MODEL 1
REMARK VINA RESULT:      -5.4      0.000      0.000
REMARK  Name = NuBBE_654
REMARK  3 active torsions:
REMARK  status: ('A' for Active; 'I' for Inactive)
REMARK    1  A    between atoms: O_1  and  C_2
REMARK    2  A    between atoms: C_6  and  C_8
REMARK    3  A    between atoms: C_8  and  C_9
REMARK                            x       y       z     vdW  Elec       q    Type
REMARK                         _______ _______ _______ _____ _____    ______ ____
ROOT
ATOM      1  C   LIG A   1     -11.189   7.461 126.891  0.00  0.00    +0.115 C 
ATOM      2  C   LIG A   1     -12.697   7.279 127.036  0.00  0.00    +0.031 C 
ATOM      3  C   LIG A   1     -13.074   6.840 128.447  0.00  0.00    +0.006 C 
ATOM      4  C   LIG A   1     -12.534   7.806 129.516  0.00  0.00    -0.011 C 
ATOM      5  C   LIG A   1     -11.016   7.996 129.355  0.00  0.00    +0.006 C 
ATOM      6  C   LIG A   1     -10.642   8.426 127.939  0.00  0.00    +0.031 C 
ENDROOT
BRANCH   1   7
ATOM      7  O   LIG A   1     -10.890   7.949 125.589  0.00  0.00    -0.392 OA
ATOM      8  H   LIG A   1     -11.658   8.455 125.273  0.00  0.00    +0.210 HD
ENDBRANCH   1   7
BRANCH   4   9
ATOM      9  C   LIG A   1     -12.915   7.293 130.918  0.00  0.00    -0.000 C 
ATOM     10  C   LIG A   1     -11.774   6.596 131.644  0.00  0.00    +0.004 C 
ENDBRANCH   4   9
TORSDOF 2
ENDMDL
MODEL 2
REMARK VINA RESULT:      -5.2     12.065     13.137
REMARK  Name = NuBBE_654
REMARK  3 active torsions:
REMARK  status: ('A' for Active; 'I' for Inactive)
REMARK    1  A    between atoms: O_1  and  C_2
REMARK    2  A    between atoms: C_6  and  C_8
REMARK    3  A    between atoms: C_8  and  C_9
REMARK                            x       y       z     vdW  Elec       q    Type
REMARK                         _______ _______ _______ _____ _____    ______ ____
ROOT
ATOM      1  C   LIG A   1      -8.724  -2.981 123.213  0.00  0.00    +0.115 C 
ATOM      2  C   LIG A   1      -8.125  -3.581 124.482  0.00  0.00    +0.031 C 
ATOM      3  C   LIG A   1      -6.660  -3.955 124.286  0.00  0.00    +0.006 C 
ATOM      4  C   LIG A   1      -5.820  -2.763 123.796  0.00  0.00    -0.011 C 
ATOM      5  C   LIG A   1      -6.437  -2.153 122.525  0.00  0.00    +0.006 C 
ATOM      6  C   LIG A   1      -7.907  -1.789 122.722  0.00  0.00    +0.031 C 
ENDROOT
BRANCH   1   7
ATOM      7  O   LIG A   1     -10.063  -2.571 123.464  0.00  0.00    -0.392 OA
ATOM      8  H   LIG A   1     -10.416  -3.122 124.184  0.00  0.00    +0.210 HD
ENDBRANCH   1   7
BRANCH   4   9
ATOM      9  C   LIG A   1      -4.362  -3.209 123.583  0.00  0.00    -0.000 C 
ATOM     10  C   LIG A   1      -4.191  -4.718 123.494  0.00  0.00    +0.004 C 
ENDBRANCH   4   9
TORSDOF 2
ENDMDL
MODEL 3
REMARK VINA RESULT:      -5.0      2.751      4.382
REMARK  Name = NuBBE_654
REMARK  3 active torsions:
REMARK  status: ('A' for Active; 'I' for Inactive)
REMARK    1  A    between atoms: O_1  and  C_2
REMARK    2  A    between atoms: C_6  and  C_8
REMARK    3  A    between atoms: C_8  and  C_9
REMARK                            x       y       z     vdW  Elec       q    Type
REMARK                         _______ _______ _______ _____ _____    ______ ____
ROOT
ATOM      1  C   LIG A   1     -10.928   6.044 131.537  0.00  0.00    +0.115 C 
ATOM      2  C   LIG A   1      -9.796   6.825 130.875  0.00  0.00    +0.031 C 
ATOM      3  C   LIG A   1     -10.178   7.282 129.471  0.00  0.00    +0.006 C 
ATOM      4  C   LIG A   1     -11.482   8.098 129.464  0.00  0.00    -0.011 C 
ATOM      5  C   LIG A   1     -12.616   7.311 130.145  0.00  0.00    +0.006 C 
ATOM      6  C   LIG A   1     -12.226   6.847 131.547  0.00  0.00    +0.031 C 
ENDROOT
BRANCH   1   7
ATOM      7  O   LIG A   1     -10.562   5.710 132.871  0.00  0.00    -0.392 OA
ATOM      8  H   LIG A   1      -9.596   5.792 132.947  0.00  0.00    +0.210 HD
ENDBRANCH   1   7
BRANCH   4   9
ATOM      9  C   LIG A   1     -11.834   8.500 128.020  0.00  0.00    -0.000 C 
ATOM     10  C   LIG A   1     -10.944   7.850 126.970  0.00  0.00    +0.004 C 
ENDBRANCH   4   9
TORSDOF 2
ENDMDL
MODEL 4
REMARK VINA RESULT:      -4.9     11.350     12.457
REMARK  Name = NuBBE_654
REMARK  3 active torsions:
REMARK  status: ('A' for Active; 'I' for Inactive)
REMARK    1  A    between atoms: O_1  and  C_2
REMARK    2  A    between atoms: C_6  and  C_8
REMARK    3  A    between atoms: C_8  and  C_9
REMARK                            x       y       z     vdW  Elec       q    Type
REMARK                         _______ _______ _______ _____ _____    ______ ____
ROOT
ATOM      1  C   LIG A   1      -8.895  -1.417 123.577  0.00  0.00    +0.115 C 
ATOM      2  C   LIG A   1      -7.612  -0.773 123.059  0.00  0.00    +0.031 C 
ATOM      3  C   LIG A   1      -6.379  -1.351 123.746  0.00  0.00    +0.006 C 
ATOM      4  C   LIG A   1      -6.312  -2.883 123.617  0.00  0.00    -0.011 C 
ATOM      5  C   LIG A   1      -7.614  -3.526 124.128  0.00  0.00    +0.006 C 
ATOM      6  C   LIG A   1      -8.847  -2.937 123.445  0.00  0.00    +0.031 C 
ENDROOT
BRANCH   1   7
ATOM      7  O   LIG A   1     -10.010  -0.910 122.854  0.00  0.00    -0.392 OA
ATOM      8  H   LIG A   1      -9.781  -0.910 121.908  0.00  0.00    +0.210 HD
ENDBRANCH   1   7
BRANCH   4   9
ATOM      9  C   LIG A   1      -5.070  -3.411 124.358  0.00  0.00    -0.000 C 
ATOM     10  C   LIG A   1      -4.386  -4.573 123.653  0.00  0.00    +0.004 C 
ENDBRANCH   4   9
TORSDOF 2
ENDMDL
MODEL 5
REMARK VINA RESULT:      -4.5     11.287     12.390
REMARK  Name = NuBBE_654
REMARK  3 active torsions:
REMARK  status: ('A' for Active; 'I' for Inactive)
REMARK    1  A    between atoms: O_1  and  C_2
REMARK    2  A    between atoms: C_6  and  C_8
REMARK    3  A    between atoms: C_8  and  C_9
REMARK                            x       y       z     vdW  Elec       q    Type
REMARK                         _______ _______ _______ _____ _____    ______ ____
ROOT
ATOM      1  C   LIG A   1      -7.624  -0.563 124.151  0.00  0.00    +0.115 C 
ATOM      2  C   LIG A   1      -7.658  -1.449 122.909  0.00  0.00    +0.031 C 
ATOM      3  C   LIG A   1      -6.291  -2.061 122.621  0.00  0.00    +0.006 C 
ATOM      4  C   LIG A   1      -5.739  -2.836 123.831  0.00  0.00    -0.011 C 
ATOM      5  C   LIG A   1      -5.721  -1.941 125.083  0.00  0.00    +0.006 C 
ATOM      6  C   LIG A   1      -7.089  -1.322 125.362  0.00  0.00    +0.031 C 
ENDROOT
BRANCH   1   7
ATOM      7  O   LIG A   1      -8.933  -0.080 124.429  0.00  0.00    -0.392 OA
ATOM      8  H   LIG A   1      -9.445  -0.809 124.820  0.00  0.00    +0.210 HD
ENDBRANCH   1   7
BRANCH   4   9
ATOM      9  C   LIG A   1      -4.346  -3.399 123.494  0.00  0.00    -0.000 C 
ATOM     10  C   LIG A   1      -4.294  -4.920 123.457  0.00  0.00    +0.004 C 
ENDBRANCH   4   9
TORSDOF 2
ENDMDL
MODEL 6
REMARK VINA RESULT:      -4.4      2.070      2.814
REMARK  Name = NuBBE_654
REMARK  3 active torsions:
REMARK  status: ('A' for Active; 'I' for Inactive)
REMARK    1  A    between atoms: O_1  and  C_2
REMARK    2  A    between atoms: C_6  and  C_8
REMARK    3  A    between atoms: C_8  and  C_9
REMARK                            x       y       z     vdW  Elec       q    Type
REMARK                         _______ _______ _______ _____ _____    ______ ____
ROOT
ATOM      1  C   LIG A   1     -12.606   8.551 128.793  0.00  0.00    +0.115 C 
ATOM      2  C   LIG A   1     -12.677   8.365 130.306  0.00  0.00    +0.031 C 
ATOM      3  C   LIG A   1     -11.883   7.145 130.758  0.00  0.00    +0.006 C 
ATOM      4  C   LIG A   1     -10.421   7.198 130.282  0.00  0.00    -0.011 C 
ATOM      5  C   LIG A   1     -10.356   7.399 128.758  0.00  0.00    +0.006 C 
ATOM      6  C   LIG A   1     -11.160   8.616 128.308  0.00  0.00    +0.031 C 
ENDROOT
BRANCH   1   7
ATOM      7  O   LIG A   1     -13.288   9.743 128.425  0.00  0.00    -0.392 OA
ATOM      8  H   LIG A   1     -13.359   9.762 127.454  0.00  0.00    +0.210 HD
ENDBRANCH   1   7
BRANCH   4   9
ATOM      9  C   LIG A   1      -9.681   5.926 130.737  0.00  0.00    -0.000 C 
ATOM     10  C   LIG A   1      -8.769   6.144 131.935  0.00  0.00    +0.004 C 
ENDBRANCH   4   9
TORSDOF 2
ENDMDL
MODEL 7
REMARK VINA RESULT:      -4.2     11.217     11.539
REMARK  Name = NuBBE_654
REMARK  3 active torsions:
REMARK  status: ('A' for Active; 'I' for Inactive)
REMARK    1  A    between atoms: O_1  and  C_2
REMARK    2  A    between atoms: C_6  and  C_8
REMARK    3  A    between atoms: C_8  and  C_9
REMARK                            x       y       z     vdW  Elec       q    Type
REMARK                         _______ _______ _______ _____ _____    ______ ____
ROOT
ATOM      1  C   LIG A   1      -6.915  -2.459 123.590  0.00  0.00    +0.115 C 
ATOM      2  C   LIG A   1      -8.395  -2.826 123.522  0.00  0.00    +0.031 C 
ATOM      3  C   LIG A   1      -8.833  -3.616 124.751  0.00  0.00    +0.006 C 
ATOM      4  C   LIG A   1      -8.514  -2.872 126.059  0.00  0.00    -0.011 C 
ATOM      5  C   LIG A   1      -7.023  -2.492 126.116  0.00  0.00    +0.006 C 
ATOM      6  C   LIG A   1      -6.587  -1.711 124.879  0.00  0.00    +0.031 C 
ENDROOT
BRANCH   1   7
ATOM      7  O   LIG A   1      -6.570  -1.655 122.469  0.00  0.00    -0.392 OA
ATOM      8  H   LIG A   1      -6.492  -0.734 122.772  0.00  0.00    +0.210 HD
ENDBRANCH   1   7
BRANCH   4   9
ATOM      9  C   LIG A   1      -8.945  -3.731 127.263  0.00  0.00    -0.000 C 
ATOM     10  C   LIG A   1      -8.347  -3.274 128.585  0.00  0.00    +0.004 C 
ENDBRANCH   4   9
TORSDOF 2
ENDMDL
MODEL 8
REMARK VINA RESULT:      -4.2      8.952     10.293
REMARK  Name = NuBBE_654
REMARK  3 active torsions:
REMARK  status: ('A' for Active; 'I' for Inactive)
REMARK    1  A    between atoms: O_1  and  C_2
REMARK    2  A    between atoms: C_6  and  C_8
REMARK    3  A    between atoms: C_8  and  C_9
REMARK                            x       y       z     vdW  Elec       q    Type
REMARK                         _______ _______ _______ _____ _____    ______ ____
ROOT
ATOM      1  C   LIG A   1      -5.700   5.124 118.996  0.00  0.00    +0.115 C 
ATOM      2  C   LIG A   1      -7.128   4.682 119.303  0.00  0.00    +0.031 C 
ATOM      3  C   LIG A   1      -7.156   3.555 120.330  0.00  0.00    +0.006 C 
ATOM      4  C   LIG A   1      -6.412   3.933 121.622  0.00  0.00    -0.011 C 
ATOM      5  C   LIG A   1      -4.977   4.391 121.305  0.00  0.00    +0.006 C 
ATOM      6  C   LIG A   1      -4.953   5.513 120.269  0.00  0.00    +0.031 C 
ENDROOT
BRANCH   1   7
ATOM      7  O   LIG A   1      -5.724   6.228 118.100  0.00  0.00    -0.392 OA
ATOM      8  H   LIG A   1      -6.281   6.923 118.492  0.00  0.00    +0.210 HD
ENDBRANCH   1   7
BRANCH   4   9
ATOM      9  C   LIG A   1      -6.443   2.747 122.604  0.00  0.00    -0.000 C 
ATOM     10  C   LIG A   1      -6.233   3.150 124.056  0.00  0.00    +0.004 C 
ENDBRANCH   4   9
TORSDOF 2
ENDMDL
MODEL 9
REMARK VINA RESULT:      -4.2      9.555     10.538
REMARK  Name = NuBBE_654
REMARK  3 active torsions:
REMARK  status: ('A' for Active; 'I' for Inactive)
REMARK    1  A    between atoms: O_1  and  C_2
REMARK    2  A    between atoms: C_6  and  C_8
REMARK    3  A    between atoms: C_8  and  C_9
REMARK                            x       y       z     vdW  Elec       q    Type
REMARK                         _______ _______ _______ _____ _____    ______ ____
ROOT
ATOM      1  C   LIG A   1      -8.918   3.896 119.130  0.00  0.00    +0.115 C 
ATOM      2  C   LIG A   1      -8.929   3.867 120.656  0.00  0.00    +0.031 C 
ATOM      3  C   LIG A   1      -7.578   3.434 121.216  0.00  0.00    +0.006 C 
ATOM      4  C   LIG A   1      -6.428   4.313 120.694  0.00  0.00    -0.011 C 
ATOM      5  C   LIG A   1      -6.431   4.349 119.155  0.00  0.00    +0.006 C 
ATOM      6  C   LIG A   1      -7.788   4.773 118.598  0.00  0.00    +0.031 C 
ENDROOT
BRANCH   1   7
ATOM      7  O   LIG A   1     -10.167   4.383 118.653  0.00  0.00    -0.392 OA
ATOM      8  H   LIG A   1     -10.444   3.821 117.908  0.00  0.00    +0.210 HD
ENDBRANCH   1   7
BRANCH   4   9
ATOM      9  C   LIG A   1      -5.089   3.807 121.264  0.00  0.00    -0.000 C 
ATOM     10  C   LIG A   1      -4.175   4.919 121.755  0.00  0.00    +0.004 C 
ENDBRANCH   4   9
TORSDOF 2
ENDMDL
