MODEL 1
REMARK VINA RESULT:      -8.0      0.000      0.000
REMARK  Name = NuBBE_1665
REMARK  7 active torsions:
REMARK  status: ('A' for Active; 'I' for Inactive)
REMARK    1  A    between atoms: C_2  and  C_3
REMARK    2  A    between atoms: C_2  and  C_12
REMARK    3  A    between atoms: C_12  and  C_14
REMARK    4  A    between atoms: C_12  and  C_15
REMARK    5  A    between atoms: C_15  and  C_17
REMARK    6  A    between atoms: C_15  and  C_18
REMARK    7  A    between atoms: C_18  and  C_19
REMARK                            x       y       z     vdW  Elec       q    Type
REMARK                         _______ _______ _______ _____ _____    ______ ____
ROOT
ATOM      1  C   LIG A   1      -7.916  -2.737 124.417  0.00  0.00    +0.060 C 
ATOM      2  C   LIG A   1      -8.822  -2.909 123.192  0.00  0.00    +0.016 C 
ENDROOT
BRANCH   1   4
ATOM      3  O   LIG A   1      -9.840  -1.601 125.418  0.00  0.00    -0.292 OA
ATOM      4  C   LIG A   1      -8.774  -2.170 125.577  0.00  0.00    +0.166 C 
BRANCH   4   5
ATOM      5  C   LIG A   1      -8.329  -2.486 126.978  0.00  0.00    +0.021 A 
ATOM      6  C   LIG A   1      -8.833  -3.620 127.656  0.00  0.00    +0.015 A 
ATOM      7  C   LIG A   1      -8.496  -3.871 128.986  0.00  0.00    +0.050 A 
ATOM      8  C   LIG A   1      -7.678  -2.967 129.618  0.00  0.00    +0.166 A 
ATOM      9  O   LIG A   1      -7.322  -3.019 130.928  0.00  0.00    -0.453 OA
ATOM     10  C   LIG A   1      -6.534  -1.818 131.039  0.00  0.00    +0.466 C 
ATOM     11  O   LIG A   1      -6.392  -1.107 129.788  0.00  0.00    -0.453 OA
ATOM     12  C   LIG A   1      -7.155  -1.877 128.962  0.00  0.00    +0.167 A 
ATOM     13  C   LIG A   1      -7.439  -1.620 127.634  0.00  0.00    +0.060 A 
ENDBRANCH   4   5
ENDBRANCH   1   4
BRANCH   1  14
ATOM     14  C   LIG A   1      -6.616  -1.955 124.071  0.00  0.00    +0.001 C 
ATOM     15  C   LIG A   1      -5.454  -2.846 123.608  0.00  0.00    +0.008 C 
BRANCH  14  16
ATOM     16  C   LIG A   1      -6.844  -0.790 123.069  0.00  0.00    +0.039 C 
BRANCH  16  17
ATOM     17  C   LIG A   1      -7.449   0.469 123.668  0.00  0.00    -0.043 A 
ATOM     18  C   LIG A   1      -8.730   0.930 123.279  0.00  0.00    +0.007 A 
ATOM     19  C   LIG A   1      -9.268   2.114 123.805  0.00  0.00    +0.050 A 
ATOM     20  C   LIG A   1      -8.500   2.829 124.697  0.00  0.00    +0.166 A 
ATOM     21  O   LIG A   1      -8.836   4.015 125.272  0.00  0.00    -0.453 OA
ATOM     22  C   LIG A   1      -7.638   4.303 126.021  0.00  0.00    +0.466 C 
ATOM     23  O   LIG A   1      -6.655   3.249 125.953  0.00  0.00    -0.453 OA
ATOM     24  C   LIG A   1      -7.264   2.385 125.096  0.00  0.00    +0.167 A 
ATOM     25  C   LIG A   1      -6.729   1.199 124.630  0.00  0.00    +0.053 A 
ENDBRANCH  16  17
ENDBRANCH  14  16
ENDBRANCH   1  14
TORSDOF 5
ENDMDL
MODEL 2
REMARK VINA RESULT:      -7.8      2.378      4.808
REMARK  Name = NuBBE_1665
REMARK  7 active torsions:
REMARK  status: ('A' for Active; 'I' for Inactive)
REMARK    1  A    between atoms: C_2  and  C_3
REMARK    2  A    between atoms: C_2  and  C_12
REMARK    3  A    between atoms: C_12  and  C_14
REMARK    4  A    between atoms: C_12  and  C_15
REMARK    5  A    between atoms: C_15  and  C_17
REMARK    6  A    between atoms: C_15  and  C_18
REMARK    7  A    between atoms: C_18  and  C_19
REMARK                            x       y       z     vdW  Elec       q    Type
REMARK                         _______ _______ _______ _____ _____    ______ ____
ROOT
ATOM      1  C   LIG A   1      -8.431  -3.350 124.981  0.00  0.00    +0.060 C 
ATOM      2  C   LIG A   1      -7.101  -3.871 124.425  0.00  0.00    +0.016 C 
ENDROOT
BRANCH   1   4
ATOM      3  O   LIG A   1     -10.019  -2.766 123.210  0.00  0.00    -0.292 OA
ATOM      4  C   LIG A   1      -9.077  -2.434 123.910  0.00  0.00    +0.166 C 
BRANCH   4   5
ATOM      5  C   LIG A   1      -8.606  -1.007 123.854  0.00  0.00    +0.021 A 
ATOM      6  C   LIG A   1      -7.355  -0.682 123.279  0.00  0.00    +0.015 A 
ATOM      7  C   LIG A   1      -6.871   0.625 123.302  0.00  0.00    +0.050 A 
ATOM      8  C   LIG A   1      -7.639   1.579 123.924  0.00  0.00    +0.166 A 
ATOM      9  O   LIG A   1      -7.278   2.876 124.106  0.00  0.00    -0.453 OA
ATOM     10  C   LIG A   1      -8.411   3.368 124.847  0.00  0.00    +0.466 C 
ATOM     11  O   LIG A   1      -9.444   2.374 125.042  0.00  0.00    -0.453 OA
ATOM     12  C   LIG A   1      -8.872   1.284 124.459  0.00  0.00    +0.167 A 
ATOM     13  C   LIG A   1      -9.397   0.007 124.418  0.00  0.00    +0.060 A 
ENDBRANCH   4   5
ENDBRANCH   1   4
BRANCH   1  14
ATOM     14  C   LIG A   1      -8.266  -2.742 126.404  0.00  0.00    +0.001 C 
ATOM     15  C   LIG A   1      -8.849  -3.612 127.528  0.00  0.00    +0.008 C 
BRANCH  14  16
ATOM     16  C   LIG A   1      -6.806  -2.329 126.734  0.00  0.00    +0.039 C 
BRANCH  16  17
ATOM     17  C   LIG A   1      -6.596  -0.846 126.990  0.00  0.00    -0.043 A 
ATOM     18  C   LIG A   1      -7.564  -0.070 127.673  0.00  0.00    +0.007 A 
ATOM     19  C   LIG A   1      -7.385   1.307 127.873  0.00  0.00    +0.050 A 
ATOM     20  C   LIG A   1      -6.245   1.888 127.363  0.00  0.00    +0.166 A 
ATOM     21  O   LIG A   1      -5.925   3.209 127.420  0.00  0.00    -0.453 OA
ATOM     22  C   LIG A   1      -4.695   3.223 126.667  0.00  0.00    +0.466 C 
ATOM     23  O   LIG A   1      -4.261   1.909 126.258  0.00  0.00    -0.453 OA
ATOM     24  C   LIG A   1      -5.291   1.145 126.714  0.00  0.00    +0.167 A 
ATOM     25  C   LIG A   1      -5.419  -0.221 126.543  0.00  0.00    +0.053 A 
ENDBRANCH  16  17
ENDBRANCH  14  16
ENDBRANCH   1  14
TORSDOF 5
ENDMDL
MODEL 3
REMARK VINA RESULT:      -7.6      1.871      2.445
REMARK  Name = NuBBE_1665
REMARK  7 active torsions:
REMARK  status: ('A' for Active; 'I' for Inactive)
REMARK    1  A    between atoms: C_2  and  C_3
REMARK    2  A    between atoms: C_2  and  C_12
REMARK    3  A    between atoms: C_12  and  C_14
REMARK    4  A    between atoms: C_12  and  C_15
REMARK    5  A    between atoms: C_15  and  C_17
REMARK    6  A    between atoms: C_15  and  C_18
REMARK    7  A    between atoms: C_18  and  C_19
REMARK                            x       y       z     vdW  Elec       q    Type
REMARK                         _______ _______ _______ _____ _____    ______ ____
ROOT
ATOM      1  C   LIG A   1      -7.726  -3.080 124.466  0.00  0.00    +0.060 C 
ATOM      2  C   LIG A   1      -9.011  -3.105 123.628  0.00  0.00    +0.016 C 
ENDROOT
BRANCH   1   4
ATOM      3  O   LIG A   1      -8.641  -3.721 126.645  0.00  0.00    -0.292 OA
ATOM      4  C   LIG A   1      -8.121  -2.865 125.949  0.00  0.00    +0.166 C 
BRANCH   4   5
ATOM      5  C   LIG A   1      -7.691  -1.576 126.595  0.00  0.00    +0.021 A 
ATOM      6  C   LIG A   1      -6.381  -1.429 127.107  0.00  0.00    +0.015 A 
ATOM      7  C   LIG A   1      -6.000  -0.273 127.786  0.00  0.00    +0.050 A 
ATOM      8  C   LIG A   1      -6.948   0.706 127.960  0.00  0.00    +0.166 A 
ATOM      9  O   LIG A   1      -6.768   1.852 128.666  0.00  0.00    -0.453 OA
ATOM     10  C   LIG A   1      -8.078   2.442 128.561  0.00  0.00    +0.466 C 
ATOM     11  O   LIG A   1      -8.992   1.665 127.754  0.00  0.00    -0.453 OA
ATOM     12  C   LIG A   1      -8.217   0.590 127.440  0.00  0.00    +0.167 A 
ATOM     13  C   LIG A   1      -8.614  -0.527 126.729  0.00  0.00    +0.060 A 
ENDBRANCH   4   5
ENDBRANCH   1   4
BRANCH   1  14
ATOM     14  C   LIG A   1      -6.672  -2.096 123.881  0.00  0.00    +0.001 C 
ATOM     15  C   LIG A   1      -5.428  -2.784 123.299  0.00  0.00    +0.008 C 
BRANCH  14  16
ATOM     16  C   LIG A   1      -7.267  -1.089 122.858  0.00  0.00    +0.039 C 
BRANCH  16  17
ATOM     17  C   LIG A   1      -7.732   0.232 123.448  0.00  0.00    -0.043 A 
ATOM     18  C   LIG A   1      -9.088   0.634 123.382  0.00  0.00    +0.007 A 
ATOM     19  C   LIG A   1      -9.507   1.872 123.892  0.00  0.00    +0.050 A 
ATOM     20  C   LIG A   1      -8.551   2.697 124.441  0.00  0.00    +0.166 A 
ATOM     21  O   LIG A   1      -8.762   3.945 124.941  0.00  0.00    -0.453 OA
ATOM     22  C   LIG A   1      -7.415   4.331 125.284  0.00  0.00    +0.466 C 
ATOM     23  O   LIG A   1      -6.448   3.282 125.070  0.00  0.00    -0.453 OA
ATOM     24  C   LIG A   1      -7.236   2.313 124.527  0.00  0.00    +0.167 A 
ATOM     25  C   LIG A   1      -6.803   1.081 124.075  0.00  0.00    +0.053 A 
ENDBRANCH  16  17
ENDBRANCH  14  16
ENDBRANCH   1  14
TORSDOF 5
ENDMDL
MODEL 4
REMARK VINA RESULT:      -7.6      1.759      4.899
REMARK  Name = NuBBE_1665
REMARK  7 active torsions:
REMARK  status: ('A' for Active; 'I' for Inactive)
REMARK    1  A    between atoms: C_2  and  C_3
REMARK    2  A    between atoms: C_2  and  C_12
REMARK    3  A    between atoms: C_12  and  C_14
REMARK    4  A    between atoms: C_12  and  C_15
REMARK    5  A    between atoms: C_15  and  C_17
REMARK    6  A    between atoms: C_15  and  C_18
REMARK    7  A    between atoms: C_18  and  C_19
REMARK                            x       y       z     vdW  Elec       q    Type
REMARK                         _______ _______ _______ _____ _____    ______ ____
ROOT
ATOM      1  C   LIG A   1      -8.474  -2.396 124.003  0.00  0.00    +0.060 C 
ATOM      2  C   LIG A   1      -9.505  -3.474 123.649  0.00  0.00    +0.016 C 
ENDROOT
BRANCH   1   4
ATOM      3  O   LIG A   1      -9.815  -0.866 122.640  0.00  0.00    -0.292 OA
ATOM      4  C   LIG A   1      -9.046  -1.021 123.574  0.00  0.00    +0.166 C 
BRANCH   4   5
ATOM      5  C   LIG A   1      -8.751   0.154 124.465  0.00  0.00    +0.021 A 
ATOM      6  C   LIG A   1      -9.051   0.105 125.846  0.00  0.00    +0.015 A 
ATOM      7  C   LIG A   1      -8.865   1.220 126.663  0.00  0.00    +0.050 A 
ATOM      8  C   LIG A   1      -8.402   2.372 126.074  0.00  0.00    +0.166 A 
ATOM      9  O   LIG A   1      -8.244   3.563 126.706  0.00  0.00    -0.453 OA
ATOM     10  C   LIG A   1      -7.806   4.392 125.611  0.00  0.00    +0.466 C 
ATOM     11  O   LIG A   1      -7.660   3.668 124.368  0.00  0.00    -0.453 OA
ATOM     12  C   LIG A   1      -8.075   2.424 124.738  0.00  0.00    +0.167 A 
ATOM     13  C   LIG A   1      -8.212   1.327 123.910  0.00  0.00    +0.060 A 
ENDBRANCH   4   5
ENDBRANCH   1   4
BRANCH   1  14
ATOM     14  C   LIG A   1      -7.056  -2.753 123.470  0.00  0.00    +0.001 C 
ATOM     15  C   LIG A   1      -6.493  -1.740 122.462  0.00  0.00    +0.008 C 
BRANCH  14  16
ATOM     16  C   LIG A   1      -6.025  -3.033 124.596  0.00  0.00    +0.039 C 
BRANCH  16  17
ATOM     17  C   LIG A   1      -5.919  -1.952 125.660  0.00  0.00    -0.043 A 
ATOM     18  C   LIG A   1      -5.366  -0.681 125.368  0.00  0.00    +0.007 A 
ATOM     19  C   LIG A   1      -5.233   0.301 126.361  0.00  0.00    +0.050 A 
ATOM     20  C   LIG A   1      -5.638  -0.017 127.638  0.00  0.00    +0.166 A 
ATOM     21  O   LIG A   1      -5.544   0.787 128.731  0.00  0.00    -0.453 OA
ATOM     22  C   LIG A   1      -6.035  -0.097 129.761  0.00  0.00    +0.466 C 
ATOM     23  O   LIG A   1      -6.494  -1.367 129.252  0.00  0.00    -0.453 OA
ATOM     24  C   LIG A   1      -6.192  -1.239 127.931  0.00  0.00    +0.167 A 
ATOM     25  C   LIG A   1      -6.377  -2.208 126.963  0.00  0.00    +0.053 A 
ENDBRANCH  16  17
ENDBRANCH  14  16
ENDBRANCH   1  14
TORSDOF 5
ENDMDL
MODEL 5
REMARK VINA RESULT:      -7.5      2.634      3.033
REMARK  Name = NuBBE_1665
REMARK  7 active torsions:
REMARK  status: ('A' for Active; 'I' for Inactive)
REMARK    1  A    between atoms: C_2  and  C_3
REMARK    2  A    between atoms: C_2  and  C_12
REMARK    3  A    between atoms: C_12  and  C_14
REMARK    4  A    between atoms: C_12  and  C_15
REMARK    5  A    between atoms: C_15  and  C_17
REMARK    6  A    between atoms: C_15  and  C_18
REMARK    7  A    between atoms: C_18  and  C_19
REMARK                            x       y       z     vdW  Elec       q    Type
REMARK                         _______ _______ _______ _____ _____    ______ ____
ROOT
ATOM      1  C   LIG A   1      -8.155  -1.009 124.640  0.00  0.00    +0.060 C 
ATOM      2  C   LIG A   1      -8.276  -1.548 123.209  0.00  0.00    +0.016 C 
ENDROOT
BRANCH   1   4
ATOM      3  O   LIG A   1      -9.866  -2.602 125.368  0.00  0.00    -0.292 OA
ATOM      4  C   LIG A   1      -8.812  -2.034 125.599  0.00  0.00    +0.166 C 
BRANCH   4   5
ATOM      5  C   LIG A   1      -8.015  -2.458 126.802  0.00  0.00    +0.021 A 
ATOM      6  C   LIG A   1      -8.608  -3.236 127.822  0.00  0.00    +0.015 A 
ATOM      7  C   LIG A   1      -7.905  -3.558 128.983  0.00  0.00    +0.050 A 
ATOM      8  C   LIG A   1      -6.626  -3.071 129.109  0.00  0.00    +0.166 A 
ATOM      9  O   LIG A   1      -5.838  -3.221 130.204  0.00  0.00    -0.453 OA
ATOM     10  C   LIG A   1      -4.674  -2.474 129.802  0.00  0.00    +0.466 C 
ATOM     11  O   LIG A   1      -4.770  -1.942 128.460  0.00  0.00    -0.453 OA
ATOM     12  C   LIG A   1      -6.025  -2.339 128.111  0.00  0.00    +0.167 A 
ATOM     13  C   LIG A   1      -6.682  -2.036 126.933  0.00  0.00    +0.060 A 
ENDBRANCH   4   5
ENDBRANCH   1   4
BRANCH   1  14
ATOM     14  C   LIG A   1      -8.655   0.460 124.750  0.00  0.00    +0.001 C 
ATOM     15  C   LIG A   1      -9.497   0.744 126.003  0.00  0.00    +0.008 C 
BRANCH  14  16
ATOM     16  C   LIG A   1      -7.521   1.511 124.605  0.00  0.00    +0.039 C 
BRANCH  16  17
ATOM     17  C   LIG A   1      -7.559   2.330 123.324  0.00  0.00    -0.043 A 
ATOM     18  C   LIG A   1      -8.759   2.499 122.591  0.00  0.00    +0.007 A 
ATOM     19  C   LIG A   1      -8.782   3.222 121.389  0.00  0.00    +0.050 A 
ATOM     20  C   LIG A   1      -7.593   3.745 120.931  0.00  0.00    +0.166 A 
ATOM     21  O   LIG A   1      -7.416   4.432 119.770  0.00  0.00    -0.453 OA
ATOM     22  C   LIG A   1      -5.989   4.642 119.794  0.00  0.00    +0.466 C 
ATOM     23  O   LIG A   1      -5.362   4.162 121.002  0.00  0.00    -0.453 OA
ATOM     24  C   LIG A   1      -6.427   3.604 121.640  0.00  0.00    +0.167 A 
ATOM     25  C   LIG A   1      -6.383   2.937 122.849  0.00  0.00    +0.053 A 
ENDBRANCH  16  17
ENDBRANCH  14  16
ENDBRANCH   1  14
TORSDOF 5
ENDMDL
MODEL 6
REMARK VINA RESULT:      -7.4      8.157      9.941
REMARK  Name = NuBBE_1665
REMARK  7 active torsions:
REMARK  status: ('A' for Active; 'I' for Inactive)
REMARK    1  A    between atoms: C_2  and  C_3
REMARK    2  A    between atoms: C_2  and  C_12
REMARK    3  A    between atoms: C_12  and  C_14
REMARK    4  A    between atoms: C_12  and  C_15
REMARK    5  A    between atoms: C_15  and  C_17
REMARK    6  A    between atoms: C_15  and  C_18
REMARK    7  A    between atoms: C_18  and  C_19
REMARK                            x       y       z     vdW  Elec       q    Type
REMARK                         _______ _______ _______ _____ _____    ______ ____
ROOT
ATOM      1  C   LIG A   1      -7.195   4.606 133.407  0.00  0.00    +0.060 C 
ATOM      2  C   LIG A   1      -7.807   4.578 134.813  0.00  0.00    +0.016 C 
ENDROOT
BRANCH   1   4
ATOM      3  O   LIG A   1      -5.605   6.167 134.422  0.00  0.00    -0.292 OA
ATOM      4  C   LIG A   1      -5.975   5.561 133.430  0.00  0.00    +0.166 C 
BRANCH   4   5
ATOM      5  C   LIG A   1      -5.117   5.609 132.196  0.00  0.00    +0.021 A 
ATOM      6  C   LIG A   1      -4.099   4.650 131.987  0.00  0.00    +0.015 A 
ATOM      7  C   LIG A   1      -3.241   4.739 130.891  0.00  0.00    +0.050 A 
ATOM      8  C   LIG A   1      -3.405   5.804 130.038  0.00  0.00    +0.166 A 
ATOM      9  O   LIG A   1      -2.606   6.083 128.976  0.00  0.00    -0.453 OA
ATOM     10  C   LIG A   1      -3.201   7.309 128.508  0.00  0.00    +0.466 C 
ATOM     11  O   LIG A   1      -4.369   7.704 129.264  0.00  0.00    -0.453 OA
ATOM     12  C   LIG A   1      -4.410   6.727 130.212  0.00  0.00    +0.167 A 
ATOM     13  C   LIG A   1      -5.301   6.645 131.265  0.00  0.00    +0.060 A 
ENDBRANCH   4   5
ENDBRANCH   1   4
BRANCH   1  14
ATOM     14  C   LIG A   1      -8.268   4.880 132.314  0.00  0.00    +0.001 C 
ATOM     15  C   LIG A   1      -8.829   3.611 131.654  0.00  0.00    +0.008 C 
BRANCH  14  16
ATOM     16  C   LIG A   1      -9.422   5.799 132.798  0.00  0.00    +0.039 C 
BRANCH  16  17
ATOM     17  C   LIG A   1     -10.229   6.461 131.691  0.00  0.00    -0.043 A 
ATOM     18  C   LIG A   1     -11.640   6.547 131.758  0.00  0.00    +0.007 A 
ATOM     19  C   LIG A   1     -12.385   7.122 130.717  0.00  0.00    +0.050 A 
ATOM     20  C   LIG A   1     -11.699   7.582 129.614  0.00  0.00    +0.166 A 
ATOM     21  O   LIG A   1     -12.252   8.125 128.496  0.00  0.00    -0.453 OA
ATOM     22  C   LIG A   1     -11.078   8.330 127.684  0.00  0.00    +0.466 C 
ATOM     23  O   LIG A   1      -9.849   7.994 128.362  0.00  0.00    -0.453 OA
ATOM     24  C   LIG A   1     -10.329   7.520 129.545  0.00  0.00    +0.167 A 
ATOM     25  C   LIG A   1      -9.568   7.001 130.574  0.00  0.00    +0.053 A 
ENDBRANCH  16  17
ENDBRANCH  14  16
ENDBRANCH   1  14
TORSDOF 5
ENDMDL
MODEL 7
REMARK VINA RESULT:      -7.3      7.062      9.087
REMARK  Name = NuBBE_1665
REMARK  7 active torsions:
REMARK  status: ('A' for Active; 'I' for Inactive)
REMARK    1  A    between atoms: C_2  and  C_3
REMARK    2  A    between atoms: C_2  and  C_12
REMARK    3  A    between atoms: C_12  and  C_14
REMARK    4  A    between atoms: C_12  and  C_15
REMARK    5  A    between atoms: C_15  and  C_17
REMARK    6  A    between atoms: C_15  and  C_18
REMARK    7  A    between atoms: C_18  and  C_19
REMARK                            x       y       z     vdW  Elec       q    Type
REMARK                         _______ _______ _______ _____ _____    ______ ____
ROOT
ATOM      1  C   LIG A   1      -8.831   3.297 131.978  0.00  0.00    +0.060 C 
ATOM      2  C   LIG A   1      -9.815   2.121 131.995  0.00  0.00    +0.016 C 
ENDROOT
BRANCH   1   4
ATOM      3  O   LIG A   1      -7.134   1.537 132.111  0.00  0.00    -0.292 OA
ATOM      4  C   LIG A   1      -7.392   2.722 131.985  0.00  0.00    +0.166 C 
BRANCH   4   5
ATOM      5  C   LIG A   1      -6.272   3.672 131.662  0.00  0.00    +0.021 A 
ATOM      6  C   LIG A   1      -5.303   4.003 132.638  0.00  0.00    +0.015 A 
ATOM      7  C   LIG A   1      -4.314   4.950 132.376  0.00  0.00    +0.050 A 
ATOM      8  C   LIG A   1      -4.329   5.566 131.148  0.00  0.00    +0.166 A 
ATOM      9  O   LIG A   1      -3.492   6.564 130.765  0.00  0.00    -0.453 OA
ATOM     10  C   LIG A   1      -4.000   6.849 129.447  0.00  0.00    +0.466 C 
ATOM     11  O   LIG A   1      -5.089   5.983 129.053  0.00  0.00    -0.453 OA
ATOM     12  C   LIG A   1      -5.246   5.231 130.179  0.00  0.00    +0.167 A 
ATOM     13  C   LIG A   1      -6.215   4.270 130.393  0.00  0.00    +0.060 A 
ENDBRANCH   4   5
ENDBRANCH   1   4
BRANCH   1  14
ATOM     14  C   LIG A   1      -9.163   4.346 133.077  0.00  0.00    +0.001 C 
ATOM     15  C   LIG A   1      -8.555   4.029 134.451  0.00  0.00    +0.008 C 
BRANCH  14  16
ATOM     16  C   LIG A   1      -8.834   5.805 132.659  0.00  0.00    +0.039 C 
BRANCH  16  17
ATOM     17  C   LIG A   1      -9.810   6.432 131.676  0.00  0.00    -0.043 A 
ATOM     18  C   LIG A   1     -11.207   6.400 131.902  0.00  0.00    +0.007 A 
ATOM     19  C   LIG A   1     -12.107   6.944 130.973  0.00  0.00    +0.050 A 
ATOM     20  C   LIG A   1     -11.590   7.492 129.821  0.00  0.00    +0.166 A 
ATOM     21  O   LIG A   1     -12.307   8.022 128.793  0.00  0.00    -0.453 OA
ATOM     22  C   LIG A   1     -11.252   8.347 127.865  0.00  0.00    +0.466 C 
ATOM     23  O   LIG A   1      -9.932   8.092 128.389  0.00  0.00    -0.453 OA
ATOM     24  C   LIG A   1     -10.236   7.545 129.597  0.00  0.00    +0.167 A 
ATOM     25  C   LIG A   1      -9.325   7.058 130.515  0.00  0.00    +0.053 A 
ENDBRANCH  16  17
ENDBRANCH  14  16
ENDBRANCH   1  14
TORSDOF 5
ENDMDL
MODEL 8
REMARK VINA RESULT:      -7.3      6.367      8.805
REMARK  Name = NuBBE_1665
REMARK  7 active torsions:
REMARK  status: ('A' for Active; 'I' for Inactive)
REMARK    1  A    between atoms: C_2  and  C_3
REMARK    2  A    between atoms: C_2  and  C_12
REMARK    3  A    between atoms: C_12  and  C_14
REMARK    4  A    between atoms: C_12  and  C_15
REMARK    5  A    between atoms: C_15  and  C_17
REMARK    6  A    between atoms: C_15  and  C_18
REMARK    7  A    between atoms: C_18  and  C_19
REMARK                            x       y       z     vdW  Elec       q    Type
REMARK                         _______ _______ _______ _____ _____    ______ ____
ROOT
ATOM      1  C   LIG A   1      -2.322   5.816 129.027  0.00  0.00    +0.060 C 
ATOM      2  C   LIG A   1      -2.739   6.936 128.066  0.00  0.00    +0.016 C 
ENDROOT
BRANCH   1   4
ATOM      3  O   LIG A   1      -2.227   3.747 127.722  0.00  0.00    -0.292 OA
ATOM      4  C   LIG A   1      -2.860   4.475 128.468  0.00  0.00    +0.166 C 
BRANCH   4   5
ATOM      5  C   LIG A   1      -4.174   3.982 129.009  0.00  0.00    +0.021 A 
ATOM      6  C   LIG A   1      -5.395   4.428 128.454  0.00  0.00    +0.015 A 
ATOM      7  C   LIG A   1      -6.618   4.048 129.006  0.00  0.00    +0.050 A 
ATOM      8  C   LIG A   1      -6.592   3.246 130.122  0.00  0.00    +0.166 A 
ATOM      9  O   LIG A   1      -7.684   2.854 130.827  0.00  0.00    -0.453 OA
ATOM     10  C   LIG A   1      -7.062   2.106 131.890  0.00  0.00    +0.466 C 
ATOM     11  O   LIG A   1      -5.624   2.022 131.766  0.00  0.00    -0.453 OA
ATOM     12  C   LIG A   1      -5.412   2.779 130.654  0.00  0.00    +0.167 A 
ATOM     13  C   LIG A   1      -4.186   3.106 130.107  0.00  0.00    +0.060 A 
ENDBRANCH   4   5
ENDBRANCH   1   4
BRANCH   1  14
ATOM     14  C   LIG A   1      -2.693   6.150 130.501  0.00  0.00    +0.001 C 
ATOM     15  C   LIG A   1      -1.484   6.462 131.396  0.00  0.00    +0.008 C 
BRANCH  14  16
ATOM     16  C   LIG A   1      -3.769   7.261 130.631  0.00  0.00    +0.039 C 
BRANCH  16  17
ATOM     17  C   LIG A   1      -5.067   6.829 131.295  0.00  0.00    -0.043 A 
ATOM     18  C   LIG A   1      -5.069   6.015 132.453  0.00  0.00    +0.007 A 
ATOM     19  C   LIG A   1      -6.268   5.585 133.040  0.00  0.00    +0.050 A 
ATOM     20  C   LIG A   1      -7.449   5.962 132.439  0.00  0.00    +0.166 A 
ATOM     21  O   LIG A   1      -8.700   5.604 132.837  0.00  0.00    -0.453 OA
ATOM     22  C   LIG A   1      -9.499   6.214 131.802  0.00  0.00    +0.466 C 
ATOM     23  O   LIG A   1      -8.724   6.993 130.867  0.00  0.00    -0.453 OA
ATOM     24  C   LIG A   1      -7.462   6.765 131.326  0.00  0.00    +0.167 A 
ATOM     25  C   LIG A   1      -6.298   7.240 130.754  0.00  0.00    +0.053 A 
ENDBRANCH  16  17
ENDBRANCH  14  16
ENDBRANCH   1  14
TORSDOF 5
ENDMDL
MODEL 9
REMARK VINA RESULT:      -7.1      2.282      6.166
REMARK  Name = NuBBE_1665
REMARK  7 active torsions:
REMARK  status: ('A' for Active; 'I' for Inactive)
REMARK    1  A    between atoms: C_2  and  C_3
REMARK    2  A    between atoms: C_2  and  C_12
REMARK    3  A    between atoms: C_12  and  C_14
REMARK    4  A    between atoms: C_12  and  C_15
REMARK    5  A    between atoms: C_15  and  C_17
REMARK    6  A    between atoms: C_15  and  C_18
REMARK    7  A    between atoms: C_18  and  C_19
REMARK                            x       y       z     vdW  Elec       q    Type
REMARK                         _______ _______ _______ _____ _____    ______ ____
ROOT
ATOM      1  C   LIG A   1      -7.161   0.419 129.794  0.00  0.00    +0.060 C 
ATOM      2  C   LIG A   1      -8.269  -0.307 130.567  0.00  0.00    +0.016 C 
ENDROOT
BRANCH   1   4
ATOM      3  O   LIG A   1      -8.261   2.547 129.288  0.00  0.00    -0.292 OA
ATOM      4  C   LIG A   1      -7.826   1.482 128.883  0.00  0.00    +0.166 C 
BRANCH   4   5
ATOM      5  C   LIG A   1      -7.781   1.240 127.399  0.00  0.00    +0.021 A 
ATOM      6  C   LIG A   1      -6.590   1.456 126.669  0.00  0.00    +0.015 A 
ATOM      7  C   LIG A   1      -6.562   1.322 125.281  0.00  0.00    +0.050 A 
ATOM      8  C   LIG A   1      -7.738   0.995 124.649  0.00  0.00    +0.166 A 
ATOM      9  O   LIG A   1      -7.902   0.906 123.304  0.00  0.00    -0.453 OA
ATOM     10  C   LIG A   1      -9.309   0.605 123.225  0.00  0.00    +0.466 C 
ATOM     11  O   LIG A   1      -9.939   0.468 124.520  0.00  0.00    -0.453 OA
ATOM     12  C   LIG A   1      -8.896   0.751 125.350  0.00  0.00    +0.167 A 
ATOM     13  C   LIG A   1      -8.947   0.839 126.728  0.00  0.00    +0.060 A 
ENDBRANCH   4   5
ENDBRANCH   1   4
BRANCH   1  14
ATOM     14  C   LIG A   1      -6.191  -0.579 129.098  0.00  0.00    +0.001 C 
ATOM     15  C   LIG A   1      -4.844  -0.747 129.817  0.00  0.00    +0.008 C 
BRANCH  14  16
ATOM     16  C   LIG A   1      -6.831  -1.964 128.809  0.00  0.00    +0.039 C 
BRANCH  16  17
ATOM     17  C   LIG A   1      -7.076  -2.269 127.340  0.00  0.00    -0.043 A 
ATOM     18  C   LIG A   1      -6.033  -2.188 126.385  0.00  0.00    +0.007 A 
ATOM     19  C   LIG A   1      -6.271  -2.431 125.025  0.00  0.00    +0.050 A 
ATOM     20  C   LIG A   1      -7.560  -2.729 124.640  0.00  0.00    +0.166 A 
ATOM     21  O   LIG A   1      -7.985  -2.949 123.367  0.00  0.00    -0.453 OA
ATOM     22  C   LIG A   1      -9.401  -3.124 123.580  0.00  0.00    +0.466 C 
ATOM     23  O   LIG A   1      -9.776  -3.097 124.973  0.00  0.00    -0.453 OA
ATOM     24  C   LIG A   1      -8.577  -2.827 125.558  0.00  0.00    +0.167 A 
ATOM     25  C   LIG A   1      -8.362  -2.639 126.909  0.00  0.00    +0.053 A 
ENDBRANCH  16  17
ENDBRANCH  14  16
ENDBRANCH   1  14
TORSDOF 5
ENDMDL
