MODEL 1
REMARK VINA RESULT:      -7.4      0.000      0.000
REMARK  Name = NuBBE_36
REMARK  10 active torsions:
REMARK  status: ('A' for Active; 'I' for Inactive)
REMARK    1  A    between atoms: C_1  and  O_2
REMARK    2  A    between atoms: O_2  and  C_3
REMARK    3  A    between atoms: C_10  and  C_11
REMARK    4  A    between atoms: C_17  and  C_19
REMARK    5  A    between atoms: C_21  and  O_22
REMARK    6  A    between atoms: O_22  and  C_23
REMARK    7  A    between atoms: C_24  and  O_25
REMARK    8  A    between atoms: O_25  and  C_26
REMARK    9  A    between atoms: C_27  and  O_28
REMARK   10  A    between atoms: O_28  and  C_29
REMARK                            x       y       z     vdW  Elec       q    Type
REMARK                         _______ _______ _______ _____ _____    ______ ____
ROOT
ATOM      1  C   LIG A   1      -8.656   4.113 130.737  0.00  0.00    +0.154 C 
ATOM      2  C   LIG A   1      -9.162   2.793 130.148  0.00  0.00    +0.056 C 
ATOM      3  C   LIG A   1      -8.391   2.354 128.931  0.00  0.00    +0.167 C 
ATOM      4  O   LIG A   1      -7.148   1.840 129.421  0.00  0.00    -0.371 OA
ATOM      5  C   LIG A   1      -7.337   1.414 130.787  0.00  0.00    +0.154 C 
ATOM      6  C   LIG A   1      -8.771   1.781 131.189  0.00  0.00    +0.056 C 
ATOM      7  C   LIG A   1      -8.847   2.561 132.478  0.00  0.00    +0.167 C 
ATOM      8  O   LIG A   1      -8.475   3.904 132.156  0.00  0.00    -0.371 OA
ENDROOT
BRANCH   1  16
ATOM      9  C   LIG A   1     -10.304   7.198 129.169  0.00  0.00    +0.166 A 
ATOM     10  C   LIG A   1     -11.378   7.348 130.037  0.00  0.00    +0.207 A 
ATOM     11  O   LIG A   1     -12.339   8.309 129.980  0.00  0.00    -0.449 OA
ATOM     12  C   LIG A   1     -13.155   7.953 131.116  0.00  0.00    +0.467 C 
ATOM     13  O   LIG A   1     -12.669   6.802 131.831  0.00  0.00    -0.453 OA
ATOM     14  C   LIG A   1     -11.568   6.482 131.095  0.00  0.00    +0.170 A 
ATOM     15  C   LIG A   1     -10.726   5.429 131.350  0.00  0.00    +0.056 A 
ATOM     16  C   LIG A   1      -9.634   5.236 130.490  0.00  0.00    -0.011 A 
ATOM     17  C   LIG A   1      -9.436   6.139 129.418  0.00  0.00    +0.056 A 
BRANCH   9  19
ATOM     18  C   LIG A   1     -10.859   7.760 126.936  0.00  0.00    +0.277 C 
ATOM     19  O   LIG A   1     -10.182   8.105 128.144  0.00  0.00    -0.491 OA
ENDBRANCH   9  19
ENDBRANCH   1  16
BRANCH   5  20
ATOM     20  C   LIG A   1      -7.081  -0.069 130.904  0.00  0.00    -0.011 A 
ATOM     21  C   LIG A   1      -6.149  -0.540 131.833  0.00  0.00    +0.056 A 
ATOM     22  C   LIG A   1      -5.922  -1.912 131.995  0.00  0.00    +0.166 A 
ATOM     23  C   LIG A   1      -6.667  -2.842 131.228  0.00  0.00    +0.203 A 
ATOM     24  C   LIG A   1      -7.616  -2.369 130.299  0.00  0.00    +0.166 A 
ATOM     25  C   LIG A   1      -7.800  -0.993 130.142  0.00  0.00    +0.056 A 
BRANCH  22  26
ATOM     26  O   LIG A   1      -4.982  -2.418 132.865  0.00  0.00    -0.491 OA
ATOM     27  C   LIG A   1      -3.609  -2.200 132.545  0.00  0.00    +0.277 C 
ENDBRANCH  22  26
BRANCH  23  28
ATOM     28  O   LIG A   1      -6.412  -4.172 131.489  0.00  0.00    -0.488 OA
ATOM     29  C   LIG A   1      -5.552  -4.848 130.578  0.00  0.00    +0.277 C 
ENDBRANCH  23  28
BRANCH  24  30
ATOM     30  O   LIG A   1      -8.430  -3.256 129.639  0.00  0.00    -0.491 OA
ATOM     31  C   LIG A   1      -8.282  -3.298 128.222  0.00  0.00    +0.277 C 
ENDBRANCH  24  30
ENDBRANCH   5  20
TORSDOF 6
ENDMDL
MODEL 2
REMARK VINA RESULT:      -7.4      0.762      2.330
REMARK  Name = NuBBE_36
REMARK  10 active torsions:
REMARK  status: ('A' for Active; 'I' for Inactive)
REMARK    1  A    between atoms: C_1  and  O_2
REMARK    2  A    between atoms: O_2  and  C_3
REMARK    3  A    between atoms: C_10  and  C_11
REMARK    4  A    between atoms: C_17  and  C_19
REMARK    5  A    between atoms: C_21  and  O_22
REMARK    6  A    between atoms: O_22  and  C_23
REMARK    7  A    between atoms: C_24  and  O_25
REMARK    8  A    between atoms: O_25  and  C_26
REMARK    9  A    between atoms: C_27  and  O_28
REMARK   10  A    between atoms: O_28  and  C_29
REMARK                            x       y       z     vdW  Elec       q    Type
REMARK                         _______ _______ _______ _____ _____    ______ ____
ROOT
ATOM      1  C   LIG A   1      -8.632   3.934 130.816  0.00  0.00    +0.154 C 
ATOM      2  C   LIG A   1      -8.804   2.777 129.828  0.00  0.00    +0.056 C 
ATOM      3  C   LIG A   1      -7.663   2.658 128.852  0.00  0.00    +0.167 C 
ATOM      4  O   LIG A   1      -6.580   2.078 129.585  0.00  0.00    -0.371 OA
ATOM      5  C   LIG A   1      -7.126   1.337 130.696  0.00  0.00    +0.154 C 
ATOM      6  C   LIG A   1      -8.643   1.559 130.695  0.00  0.00    +0.056 C 
ATOM      7  C   LIG A   1      -9.180   2.010 132.030  0.00  0.00    +0.167 C 
ATOM      8  O   LIG A   1      -8.866   3.401 132.139  0.00  0.00    -0.371 OA
ENDROOT
BRANCH   1  16
ATOM      9  C   LIG A   1     -10.255   6.958 129.110  0.00  0.00    +0.166 A 
ATOM     10  C   LIG A   1     -11.320   7.164 129.977  0.00  0.00    +0.207 A 
ATOM     11  O   LIG A   1     -12.269   8.133 129.880  0.00  0.00    -0.449 OA
ATOM     12  C   LIG A   1     -13.080   7.844 131.039  0.00  0.00    +0.467 C 
ATOM     13  O   LIG A   1     -12.603   6.724 131.806  0.00  0.00    -0.453 OA
ATOM     14  C   LIG A   1     -11.512   6.355 131.078  0.00  0.00    +0.170 A 
ATOM     15  C   LIG A   1     -10.681   5.305 131.379  0.00  0.00    +0.056 A 
ATOM     16  C   LIG A   1      -9.599   5.056 130.522  0.00  0.00    -0.011 A 
ATOM     17  C   LIG A   1      -9.398   5.902 129.405  0.00  0.00    +0.056 A 
BRANCH   9  19
ATOM     18  C   LIG A   1     -10.782   7.393 126.842  0.00  0.00    +0.277 C 
ATOM     19  O   LIG A   1     -10.131   7.812 128.040  0.00  0.00    -0.491 OA
ENDBRANCH   9  19
ENDBRANCH   1  16
BRANCH   5  20
ATOM     20  C   LIG A   1      -6.770  -0.124 130.566  0.00  0.00    -0.011 A 
ATOM     21  C   LIG A   1      -7.718  -1.028 130.082  0.00  0.00    +0.056 A 
ATOM     22  C   LIG A   1      -7.403  -2.382 129.909  0.00  0.00    +0.166 A 
ATOM     23  C   LIG A   1      -6.093  -2.839 130.200  0.00  0.00    +0.203 A 
ATOM     24  C   LIG A   1      -5.132  -1.926 130.676  0.00  0.00    +0.166 A 
ATOM     25  C   LIG A   1      -5.486  -0.588 130.864  0.00  0.00    +0.056 A 
BRANCH  22  26
ATOM     26  O   LIG A   1      -8.320  -3.315 129.479  0.00  0.00    -0.491 OA
ATOM     27  C   LIG A   1      -8.563  -3.397 128.076  0.00  0.00    +0.277 C 
ENDBRANCH  22  26
BRANCH  23  28
ATOM     28  O   LIG A   1      -5.860  -4.176 129.953  0.00  0.00    -0.488 OA
ATOM     29  C   LIG A   1      -5.623  -5.003 131.087  0.00  0.00    +0.277 C 
ENDBRANCH  23  28
BRANCH  24  30
ATOM     30  O   LIG A   1      -3.830  -2.328 130.845  0.00  0.00    -0.491 OA
ATOM     31  C   LIG A   1      -3.166  -1.813 131.996  0.00  0.00    +0.277 C 
ENDBRANCH  24  30
ENDBRANCH   5  20
TORSDOF 6
ENDMDL
MODEL 3
REMARK VINA RESULT:      -7.3      5.421      7.471
REMARK  Name = NuBBE_36
REMARK  10 active torsions:
REMARK  status: ('A' for Active; 'I' for Inactive)
REMARK    1  A    between atoms: C_1  and  O_2
REMARK    2  A    between atoms: O_2  and  C_3
REMARK    3  A    between atoms: C_10  and  C_11
REMARK    4  A    between atoms: C_17  and  C_19
REMARK    5  A    between atoms: C_21  and  O_22
REMARK    6  A    between atoms: O_22  and  C_23
REMARK    7  A    between atoms: C_24  and  O_25
REMARK    8  A    between atoms: O_25  and  C_26
REMARK    9  A    between atoms: C_27  and  O_28
REMARK   10  A    between atoms: O_28  and  C_29
REMARK                            x       y       z     vdW  Elec       q    Type
REMARK                         _______ _______ _______ _____ _____    ______ ____
ROOT
ATOM      1  C   LIG A   1      -8.405   2.197 124.204  0.00  0.00    +0.154 C 
ATOM      2  C   LIG A   1      -7.296   2.313 125.254  0.00  0.00    +0.056 C 
ATOM      3  C   LIG A   1      -7.593   3.338 126.317  0.00  0.00    +0.167 C 
ATOM      4  O   LIG A   1      -8.563   2.735 127.180  0.00  0.00    -0.371 OA
ATOM      5  C   LIG A   1      -8.442   1.301 127.072  0.00  0.00    +0.154 C 
ATOM      6  C   LIG A   1      -7.389   1.009 125.996  0.00  0.00    +0.056 C 
ATOM      7  C   LIG A   1      -7.867   0.042 124.942  0.00  0.00    +0.167 C 
ATOM      8  O   LIG A   1      -8.714   0.792 124.066  0.00  0.00    -0.371 OA
ENDROOT
BRANCH   1  16
ATOM      9  C   LIG A   1      -6.161   3.584 121.423  0.00  0.00    +0.166 A 
ATOM     10  C   LIG A   1      -7.132   3.885 120.477  0.00  0.00    +0.207 A 
ATOM     11  O   LIG A   1      -6.924   4.425 119.246  0.00  0.00    -0.449 OA
ATOM     12  C   LIG A   1      -8.276   4.501 118.745  0.00  0.00    +0.467 C 
ATOM     13  O   LIG A   1      -9.260   4.018 119.678  0.00  0.00    -0.453 OA
ATOM     14  C   LIG A   1      -8.469   3.648 120.724  0.00  0.00    +0.170 A 
ATOM     15  C   LIG A   1      -8.919   3.102 121.899  0.00  0.00    +0.056 A 
ATOM     16  C   LIG A   1      -7.969   2.774 122.879  0.00  0.00    -0.011 A 
ATOM     17  C   LIG A   1      -6.602   3.037 122.625  0.00  0.00    +0.056 A 
BRANCH   9  19
ATOM     18  C   LIG A   1      -4.286   4.994 121.750  0.00  0.00    +0.277 C 
ATOM     19  O   LIG A   1      -4.853   3.856 121.103  0.00  0.00    -0.491 OA
ENDBRANCH   9  19
ENDBRANCH   1  16
BRANCH   5  20
ATOM     20  C   LIG A   1      -8.061   0.714 128.409  0.00  0.00    -0.011 A 
ATOM     21  C   LIG A   1      -7.438  -0.536 128.465  0.00  0.00    +0.056 A 
ATOM     22  C   LIG A   1      -7.034  -1.086 129.687  0.00  0.00    +0.166 A 
ATOM     23  C   LIG A   1      -7.230  -0.355 130.885  0.00  0.00    +0.203 A 
ATOM     24  C   LIG A   1      -7.847   0.911 130.830  0.00  0.00    +0.166 A 
ATOM     25  C   LIG A   1      -8.264   1.420 129.597  0.00  0.00    +0.056 A 
BRANCH  22  26
ATOM     26  O   LIG A   1      -6.459  -2.333 129.793  0.00  0.00    -0.491 OA
ATOM     27  C   LIG A   1      -7.291  -3.463 129.530  0.00  0.00    +0.277 C 
ENDBRANCH  22  26
BRANCH  23  28
ATOM     28  O   LIG A   1      -6.757  -0.954 132.034  0.00  0.00    -0.488 OA
ATOM     29  C   LIG A   1      -7.717  -1.611 132.854  0.00  0.00    +0.277 C 
ENDBRANCH  23  28
BRANCH  24  30
ATOM     30  O   LIG A   1      -7.933   1.682 131.962  0.00  0.00    -0.491 OA
ATOM     31  C   LIG A   1      -8.440   3.000 131.779  0.00  0.00    +0.277 C 
ENDBRANCH  24  30
ENDBRANCH   5  20
TORSDOF 6
ENDMDL
MODEL 4
REMARK VINA RESULT:      -7.2      2.344      4.190
REMARK  Name = NuBBE_36
REMARK  10 active torsions:
REMARK  status: ('A' for Active; 'I' for Inactive)
REMARK    1  A    between atoms: C_1  and  O_2
REMARK    2  A    between atoms: O_2  and  C_3
REMARK    3  A    between atoms: C_10  and  C_11
REMARK    4  A    between atoms: C_17  and  C_19
REMARK    5  A    between atoms: C_21  and  O_22
REMARK    6  A    between atoms: O_22  and  C_23
REMARK    7  A    between atoms: C_24  and  O_25
REMARK    8  A    between atoms: O_25  and  C_26
REMARK    9  A    between atoms: C_27  and  O_28
REMARK   10  A    between atoms: O_28  and  C_29
REMARK                            x       y       z     vdW  Elec       q    Type
REMARK                         _______ _______ _______ _____ _____    ______ ____
ROOT
ATOM      1  C   LIG A   1     -11.188   5.092 131.128  0.00  0.00    +0.154 C 
ATOM      2  C   LIG A   1      -9.704   5.272 131.461  0.00  0.00    +0.056 C 
ATOM      3  C   LIG A   1      -9.452   5.525 132.924  0.00  0.00    +0.167 C 
ATOM      4  O   LIG A   1      -9.606   4.258 133.571  0.00  0.00    -0.371 OA
ATOM      5  C   LIG A   1      -9.360   3.217 132.602  0.00  0.00    +0.154 C 
ATOM      6  C   LIG A   1      -9.135   3.896 131.246  0.00  0.00    +0.056 C 
ATOM      7  C   LIG A   1      -9.999   3.331 130.146  0.00  0.00    +0.167 C 
ATOM      8  O   LIG A   1     -11.303   3.890 130.334  0.00  0.00    -0.371 OA
ENDROOT
BRANCH   1  16
ATOM      9  C   LIG A   1     -12.194   7.369 128.213  0.00  0.00    +0.166 A 
ATOM     10  C   LIG A   1     -12.659   8.464 128.930  0.00  0.00    +0.207 A 
ATOM     11  O   LIG A   1     -13.157   9.619 128.413  0.00  0.00    -0.449 OA
ATOM     12  C   LIG A   1     -13.462  10.353 129.618  0.00  0.00    +0.467 C 
ATOM     13  O   LIG A   1     -13.137   9.635 130.823  0.00  0.00    -0.453 OA
ATOM     14  C   LIG A   1     -12.650   8.471 130.310  0.00  0.00    +0.170 A 
ATOM     15  C   LIG A   1     -12.197   7.410 131.052  0.00  0.00    +0.056 A 
ATOM     16  C   LIG A   1     -11.728   6.279 130.367  0.00  0.00    -0.011 A 
ATOM     17  C   LIG A   1     -11.722   6.287 128.951  0.00  0.00    +0.056 A 
BRANCH   9  19
ATOM     18  C   LIG A   1     -10.970   7.632 126.204  0.00  0.00    +0.277 C 
ATOM     19  O   LIG A   1     -12.231   7.443 126.842  0.00  0.00    -0.491 OA
ENDBRANCH   9  19
ENDBRANCH   1  16
BRANCH   5  20
ATOM     20  C   LIG A   1      -8.170   2.391 133.024  0.00  0.00    -0.011 A 
ATOM     21  C   LIG A   1      -7.972   1.126 132.464  0.00  0.00    +0.056 A 
ATOM     22  C   LIG A   1      -6.854   0.354 132.803  0.00  0.00    +0.166 A 
ATOM     23  C   LIG A   1      -5.890   0.873 133.704  0.00  0.00    +0.203 A 
ATOM     24  C   LIG A   1      -6.082   2.153 134.259  0.00  0.00    +0.166 A 
ATOM     25  C   LIG A   1      -7.222   2.887 133.922  0.00  0.00    +0.056 A 
BRANCH  22  26
ATOM     26  O   LIG A   1      -6.643  -0.915 132.312  0.00  0.00    -0.491 OA
ATOM     27  C   LIG A   1      -7.540  -1.940 132.737  0.00  0.00    +0.277 C 
ENDBRANCH  22  26
BRANCH  23  28
ATOM     28  O   LIG A   1      -4.799   0.064 133.941  0.00  0.00    -0.488 OA
ATOM     29  C   LIG A   1      -3.639   0.307 133.152  0.00  0.00    +0.277 C 
ENDBRANCH  23  28
BRANCH  24  30
ATOM     30  O   LIG A   1      -5.101   2.718 135.036  0.00  0.00    -0.491 OA
ATOM     31  C   LIG A   1      -4.372   3.786 134.438  0.00  0.00    +0.277 C 
ENDBRANCH  24  30
ENDBRANCH   5  20
TORSDOF 6
ENDMDL
MODEL 5
REMARK VINA RESULT:      -7.1      4.747     10.221
REMARK  Name = NuBBE_36
REMARK  10 active torsions:
REMARK  status: ('A' for Active; 'I' for Inactive)
REMARK    1  A    between atoms: C_1  and  O_2
REMARK    2  A    between atoms: O_2  and  C_3
REMARK    3  A    between atoms: C_10  and  C_11
REMARK    4  A    between atoms: C_17  and  C_19
REMARK    5  A    between atoms: C_21  and  O_22
REMARK    6  A    between atoms: O_22  and  C_23
REMARK    7  A    between atoms: C_24  and  O_25
REMARK    8  A    between atoms: O_25  and  C_26
REMARK    9  A    between atoms: C_27  and  O_28
REMARK   10  A    between atoms: O_28  and  C_29
REMARK                            x       y       z     vdW  Elec       q    Type
REMARK                         _______ _______ _______ _____ _____    ______ ____
ROOT
ATOM      1  C   LIG A   1      -5.520  -3.592 130.025  0.00  0.00    +0.154 C 
ATOM      2  C   LIG A   1      -5.857  -2.114 129.809  0.00  0.00    +0.056 C 
ATOM      3  C   LIG A   1      -4.940  -1.435 128.827  0.00  0.00    +0.167 C 
ATOM      4  O   LIG A   1      -5.354  -1.881 127.532  0.00  0.00    -0.371 OA
ATOM      5  C   LIG A   1      -6.738  -2.285 127.609  0.00  0.00    +0.154 C 
ATOM      6  C   LIG A   1      -7.169  -2.166 129.076  0.00  0.00    +0.056 C 
ATOM      7  C   LIG A   1      -7.817  -3.419 129.610  0.00  0.00    +0.167 C 
ATOM      8  O   LIG A   1      -6.752  -4.335 129.883  0.00  0.00    -0.371 OA
ENDROOT
BRANCH   1  16
ATOM      9  C   LIG A   1      -4.969  -5.016 133.541  0.00  0.00    +0.166 A 
ATOM     10  C   LIG A   1      -3.882  -4.245 133.931  0.00  0.00    +0.207 A 
ATOM     11  O   LIG A   1      -3.232  -4.304 135.124  0.00  0.00    -0.449 OA
ATOM     12  C   LIG A   1      -2.222  -3.290 134.940  0.00  0.00    +0.467 C 
ATOM     13  O   LIG A   1      -2.289  -2.642 133.656  0.00  0.00    -0.453 OA
ATOM     14  C   LIG A   1      -3.340  -3.296 133.088  0.00  0.00    +0.170 A 
ATOM     15  C   LIG A   1      -3.827  -3.061 131.828  0.00  0.00    +0.056 A 
ATOM     16  C   LIG A   1      -4.919  -3.825 131.390  0.00  0.00    -0.011 A 
ATOM     17  C   LIG A   1      -5.482  -4.784 132.268  0.00  0.00    +0.056 A 
BRANCH   9  19
ATOM     18  C   LIG A   1      -6.624  -5.538 135.152  0.00  0.00    +0.277 C 
ATOM     19  O   LIG A   1      -5.454  -5.935 134.440  0.00  0.00    -0.491 OA
ENDBRANCH   9  19
ENDBRANCH   1  16
BRANCH   5  20
ATOM     20  C   LIG A   1      -7.579  -1.420 126.703  0.00  0.00    -0.011 A 
ATOM     21  C   LIG A   1      -8.212  -1.988 125.594  0.00  0.00    +0.056 A 
ATOM     22  C   LIG A   1      -9.033  -1.220 124.759  0.00  0.00    +0.166 A 
ATOM     23  C   LIG A   1      -9.252   0.148 125.057  0.00  0.00    +0.203 A 
ATOM     24  C   LIG A   1      -8.625   0.720 126.182  0.00  0.00    +0.166 A 
ATOM     25  C   LIG A   1      -7.790  -0.067 126.979  0.00  0.00    +0.056 A 
BRANCH  22  26
ATOM     26  O   LIG A   1      -9.638  -1.727 123.631  0.00  0.00    -0.491 OA
ATOM     27  C   LIG A   1      -9.459  -3.117 123.361  0.00  0.00    +0.277 C 
ENDBRANCH  22  26
BRANCH  23  28
ATOM     28  O   LIG A   1     -10.113   0.813 124.210  0.00  0.00    -0.488 OA
ATOM     29  C   LIG A   1      -9.520   1.649 123.222  0.00  0.00    +0.277 C 
ENDBRANCH  23  28
BRANCH  24  30
ATOM     30  O   LIG A   1      -8.923   2.008 126.553  0.00  0.00    -0.491 OA
ATOM     31  C   LIG A   1      -7.882   2.963 126.373  0.00  0.00    +0.277 C 
ENDBRANCH  24  30
ENDBRANCH   5  20
TORSDOF 6
ENDMDL
MODEL 6
REMARK VINA RESULT:      -7.0      4.599      9.691
REMARK  Name = NuBBE_36
REMARK  10 active torsions:
REMARK  status: ('A' for Active; 'I' for Inactive)
REMARK    1  A    between atoms: C_1  and  O_2
REMARK    2  A    between atoms: O_2  and  C_3
REMARK    3  A    between atoms: C_10  and  C_11
REMARK    4  A    between atoms: C_17  and  C_19
REMARK    5  A    between atoms: C_21  and  O_22
REMARK    6  A    between atoms: O_22  and  C_23
REMARK    7  A    between atoms: C_24  and  O_25
REMARK    8  A    between atoms: O_25  and  C_26
REMARK    9  A    between atoms: C_27  and  O_28
REMARK   10  A    between atoms: O_28  and  C_29
REMARK                            x       y       z     vdW  Elec       q    Type
REMARK                         _______ _______ _______ _____ _____    ______ ____
ROOT
ATOM      1  C   LIG A   1      -6.559  -2.928 130.510  0.00  0.00    +0.154 C 
ATOM      2  C   LIG A   1      -7.528  -1.765 130.279  0.00  0.00    +0.056 C 
ATOM      3  C   LIG A   1      -6.832  -0.447 130.066  0.00  0.00    +0.167 C 
ATOM      4  O   LIG A   1      -6.316  -0.489 128.732  0.00  0.00    -0.371 OA
ATOM      5  C   LIG A   1      -7.104  -1.424 127.966  0.00  0.00    +0.154 C 
ATOM      6  C   LIG A   1      -8.111  -2.069 128.926  0.00  0.00    +0.056 C 
ATOM      7  C   LIG A   1      -8.102  -3.577 128.874  0.00  0.00    +0.167 C 
ATOM      8  O   LIG A   1      -6.956  -3.996 129.620  0.00  0.00    -0.371 OA
ENDROOT
BRANCH   1  16
ATOM      9  C   LIG A   1      -5.776  -4.929 133.684  0.00  0.00    +0.166 A 
ATOM     10  C   LIG A   1      -6.672  -4.327 134.558  0.00  0.00    +0.207 A 
ATOM     11  O   LIG A   1      -6.854  -4.635 135.870  0.00  0.00    -0.449 OA
ATOM     12  C   LIG A   1      -7.888  -3.696 136.234  0.00  0.00    +0.467 C 
ATOM     13  O   LIG A   1      -8.309  -2.857 135.142  0.00  0.00    -0.453 OA
ATOM     14  C   LIG A   1      -7.502  -3.307 134.141  0.00  0.00    +0.170 A 
ATOM     15  C   LIG A   1      -7.492  -2.823 132.858  0.00  0.00    +0.056 A 
ATOM     16  C   LIG A   1      -6.595  -3.397 131.944  0.00  0.00    -0.011 A 
ATOM     17  C   LIG A   1      -5.760  -4.456 132.375  0.00  0.00    +0.056 A 
BRANCH   9  19
ATOM     18  C   LIG A   1      -3.583  -5.714 134.107  0.00  0.00    +0.277 C 
ATOM     19  O   LIG A   1      -4.989  -5.942 134.175  0.00  0.00    -0.491 OA
ENDBRANCH   9  19
ENDBRANCH   1  16
BRANCH   5  20
ATOM     20  C   LIG A   1      -7.789  -0.710 126.827  0.00  0.00    -0.011 A 
ATOM     21  C   LIG A   1      -8.301  -1.446 125.754  0.00  0.00    +0.056 A 
ATOM     22  C   LIG A   1      -8.979  -0.815 124.704  0.00  0.00    +0.166 A 
ATOM     23  C   LIG A   1      -9.179   0.588 124.741  0.00  0.00    +0.203 A 
ATOM     24  C   LIG A   1      -8.675   1.330 125.827  0.00  0.00    +0.166 A 
ATOM     25  C   LIG A   1      -7.978   0.674 126.845  0.00  0.00    +0.056 A 
BRANCH  22  26
ATOM     26  O   LIG A   1      -9.458  -1.495 123.607  0.00  0.00    -0.491 OA
ATOM     27  C   LIG A   1      -9.324  -2.915 123.606  0.00  0.00    +0.277 C 
ENDBRANCH  22  26
BRANCH  23  28
ATOM     28  O   LIG A   1      -9.899   1.115 123.689  0.00  0.00    -0.488 OA
ATOM     29  C   LIG A   1      -9.165   1.852 122.718  0.00  0.00    +0.277 C 
ENDBRANCH  23  28
BRANCH  24  30
ATOM     30  O   LIG A   1      -8.965   2.667 125.937  0.00  0.00    -0.491 OA
ATOM     31  C   LIG A   1      -7.883   3.560 125.689  0.00  0.00    +0.277 C 
ENDBRANCH  24  30
ENDBRANCH   5  20
TORSDOF 6
ENDMDL
MODEL 7
REMARK VINA RESULT:      -7.0      6.720      8.390
REMARK  Name = NuBBE_36
REMARK  10 active torsions:
REMARK  status: ('A' for Active; 'I' for Inactive)
REMARK    1  A    between atoms: C_1  and  O_2
REMARK    2  A    between atoms: O_2  and  C_3
REMARK    3  A    between atoms: C_10  and  C_11
REMARK    4  A    between atoms: C_17  and  C_19
REMARK    5  A    between atoms: C_21  and  O_22
REMARK    6  A    between atoms: O_22  and  C_23
REMARK    7  A    between atoms: C_24  and  O_25
REMARK    8  A    between atoms: O_25  and  C_26
REMARK    9  A    between atoms: C_27  and  O_28
REMARK   10  A    between atoms: O_28  and  C_29
REMARK                            x       y       z     vdW  Elec       q    Type
REMARK                         _______ _______ _______ _____ _____    ______ ____
ROOT
ATOM      1  C   LIG A   1      -6.480  -1.995 128.286  0.00  0.00    +0.154 C 
ATOM      2  C   LIG A   1      -5.579  -3.175 128.661  0.00  0.00    +0.056 C 
ATOM      3  C   LIG A   1      -4.176  -2.758 129.018  0.00  0.00    +0.167 C 
ATOM      4  O   LIG A   1      -4.257  -2.199 130.333  0.00  0.00    -0.371 OA
ATOM      5  C   LIG A   1      -5.416  -2.751 130.993  0.00  0.00    +0.154 C 
ATOM      6  C   LIG A   1      -6.146  -3.636 129.976  0.00  0.00    +0.056 C 
ATOM      7  C   LIG A   1      -7.615  -3.314 129.852  0.00  0.00    +0.167 C 
ATOM      8  O   LIG A   1      -7.700  -2.132 129.050  0.00  0.00    -0.371 OA
ENDROOT
BRANCH   1  16
ATOM      9  C   LIG A   1      -6.019  -2.318 124.495  0.00  0.00    +0.166 A 
ATOM     10  C   LIG A   1      -7.283  -1.922 124.078  0.00  0.00    +0.207 A 
ATOM     11  O   LIG A   1      -7.722  -1.832 122.794  0.00  0.00    -0.449 OA
ATOM     12  C   LIG A   1      -9.077  -1.378 122.995  0.00  0.00    +0.467 C 
ATOM     13  O   LIG A   1      -9.420  -1.198 124.382  0.00  0.00    -0.453 OA
ATOM     14  C   LIG A   1      -8.256  -1.562 124.988  0.00  0.00    +0.170 A 
ATOM     15  C   LIG A   1      -8.044  -1.580 126.343  0.00  0.00    +0.056 A 
ATOM     16  C   LIG A   1      -6.783  -1.984 126.808  0.00  0.00    -0.011 A 
ATOM     17  C   LIG A   1      -5.784  -2.333 125.867  0.00  0.00    +0.056 A 
BRANCH   9  19
ATOM     18  C   LIG A   1      -4.579  -3.978 123.612  0.00  0.00    +0.277 C 
ATOM     19  O   LIG A   1      -5.105  -2.655 123.526  0.00  0.00    -0.491 OA
ENDBRANCH   9  19
ENDBRANCH   1  16
BRANCH   5  20
ATOM     20  C   LIG A   1      -4.992  -3.528 132.215  0.00  0.00    -0.011 A 
ATOM     21  C   LIG A   1      -5.915  -4.347 132.871  0.00  0.00    +0.056 A 
ATOM     22  C   LIG A   1      -5.539  -5.113 133.981  0.00  0.00    +0.166 A 
ATOM     23  C   LIG A   1      -4.196  -5.084 134.431  0.00  0.00    +0.203 A 
ATOM     24  C   LIG A   1      -3.260  -4.270 133.763  0.00  0.00    +0.166 A 
ATOM     25  C   LIG A   1      -3.673  -3.496 132.676  0.00  0.00    +0.056 A 
BRANCH  22  26
ATOM     26  O   LIG A   1      -6.427  -5.897 134.685  0.00  0.00    -0.491 OA
ATOM     27  C   LIG A   1      -7.402  -5.228 135.483  0.00  0.00    +0.277 C 
ENDBRANCH  22  26
BRANCH  23  28
ATOM     28  O   LIG A   1      -3.907  -5.908 135.499  0.00  0.00    -0.488 OA
ATOM     29  C   LIG A   1      -3.840  -5.292 136.781  0.00  0.00    +0.277 C 
ENDBRANCH  23  28
BRANCH  24  30
ATOM     30  O   LIG A   1      -1.933  -4.324 134.110  0.00  0.00    -0.491 OA
ATOM     31  C   LIG A   1      -1.437  -3.210 134.847  0.00  0.00    +0.277 C 
ENDBRANCH  24  30
ENDBRANCH   5  20
TORSDOF 6
ENDMDL
MODEL 8
REMARK VINA RESULT:      -7.0      4.729      9.968
REMARK  Name = NuBBE_36
REMARK  10 active torsions:
REMARK  status: ('A' for Active; 'I' for Inactive)
REMARK    1  A    between atoms: C_1  and  O_2
REMARK    2  A    between atoms: O_2  and  C_3
REMARK    3  A    between atoms: C_10  and  C_11
REMARK    4  A    between atoms: C_17  and  C_19
REMARK    5  A    between atoms: C_21  and  O_22
REMARK    6  A    between atoms: O_22  and  C_23
REMARK    7  A    between atoms: C_24  and  O_25
REMARK    8  A    between atoms: O_25  and  C_26
REMARK    9  A    between atoms: C_27  and  O_28
REMARK   10  A    between atoms: O_28  and  C_29
REMARK                            x       y       z     vdW  Elec       q    Type
REMARK                         _______ _______ _______ _____ _____    ______ ____
ROOT
ATOM      1  C   LIG A   1      -6.306  -3.127 131.527  0.00  0.00    +0.154 C 
ATOM      2  C   LIG A   1      -7.691  -2.641 131.092  0.00  0.00    +0.056 C 
ATOM      3  C   LIG A   1      -7.854  -1.148 131.201  0.00  0.00    +0.167 C 
ATOM      4  O   LIG A   1      -7.139  -0.594 130.092  0.00  0.00    -0.371 OA
ATOM      5  C   LIG A   1      -7.059  -1.595 129.055  0.00  0.00    +0.154 C 
ATOM      6  C   LIG A   1      -7.687  -2.880 129.607  0.00  0.00    +0.056 C 
ATOM      7  C   LIG A   1      -6.801  -4.090 129.453  0.00  0.00    +0.167 C 
ATOM      8  O   LIG A   1      -5.814  -3.998 130.484  0.00  0.00    -0.371 OA
ENDROOT
BRANCH   1  16
ATOM      9  C   LIG A   1      -7.480  -4.224 135.007  0.00  0.00    +0.166 A 
ATOM     10  C   LIG A   1      -6.494  -5.158 135.296  0.00  0.00    +0.207 A 
ATOM     11  O   LIG A   1      -6.384  -5.896 136.433  0.00  0.00    -0.449 OA
ATOM     12  C   LIG A   1      -5.193  -6.662 136.152  0.00  0.00    +0.467 C 
ATOM     13  O   LIG A   1      -4.612  -6.367 134.868  0.00  0.00    -0.453 OA
ATOM     14  C   LIG A   1      -5.481  -5.429 134.398  0.00  0.00    +0.170 A 
ATOM     15  C   LIG A   1      -5.388  -4.809 133.178  0.00  0.00    +0.056 A 
ATOM     16  C   LIG A   1      -6.371  -3.865 132.843  0.00  0.00    -0.011 A 
ATOM     17  C   LIG A   1      -7.395  -3.579 133.777  0.00  0.00    +0.056 A 
BRANCH   9  19
ATOM     18  C   LIG A   1      -8.185  -2.945 136.872  0.00  0.00    +0.277 C 
ATOM     19  O   LIG A   1      -8.449  -4.007 135.957  0.00  0.00    -0.491 OA
ENDBRANCH   9  19
ENDBRANCH   1  16
BRANCH   5  20
ATOM     20  C   LIG A   1      -7.767  -1.109 127.814  0.00  0.00    -0.011 A 
ATOM     21  C   LIG A   1      -8.339  -2.032 126.936  0.00  0.00    +0.056 A 
ATOM     22  C   LIG A   1      -9.040  -1.610 125.799  0.00  0.00    +0.166 A 
ATOM     23  C   LIG A   1      -9.201  -0.224 125.549  0.00  0.00    +0.203 A 
ATOM     24  C   LIG A   1      -8.636   0.709 126.441  0.00  0.00    +0.166 A 
ATOM     25  C   LIG A   1      -7.918   0.255 127.551  0.00  0.00    +0.056 A 
BRANCH  22  26
ATOM     26  O   LIG A   1      -9.579  -2.485 124.883  0.00  0.00    -0.491 OA
ATOM     27  C   LIG A   1      -8.681  -3.116 123.972  0.00  0.00    +0.277 C 
ENDBRANCH  22  26
BRANCH  23  28
ATOM     28  O   LIG A   1      -9.946   0.099 124.435  0.00  0.00    -0.488 OA
ATOM     29  C   LIG A   1      -9.228   0.562 123.297  0.00  0.00    +0.277 C 
ENDBRANCH  23  28
BRANCH  24  30
ATOM     30  O   LIG A   1      -8.885   2.050 126.280  0.00  0.00    -0.491 OA
ATOM     31  C   LIG A   1      -7.785   2.837 125.831  0.00  0.00    +0.277 C 
ENDBRANCH  24  30
ENDBRANCH   5  20
TORSDOF 6
ENDMDL
MODEL 9
REMARK VINA RESULT:      -6.9      4.548      9.575
REMARK  Name = NuBBE_36
REMARK  10 active torsions:
REMARK  status: ('A' for Active; 'I' for Inactive)
REMARK    1  A    between atoms: C_1  and  O_2
REMARK    2  A    between atoms: O_2  and  C_3
REMARK    3  A    between atoms: C_10  and  C_11
REMARK    4  A    between atoms: C_17  and  C_19
REMARK    5  A    between atoms: C_21  and  O_22
REMARK    6  A    between atoms: O_22  and  C_23
REMARK    7  A    between atoms: C_24  and  O_25
REMARK    8  A    between atoms: O_25  and  C_26
REMARK    9  A    between atoms: C_27  and  O_28
REMARK   10  A    between atoms: O_28  and  C_29
REMARK                            x       y       z     vdW  Elec       q    Type
REMARK                         _______ _______ _______ _____ _____    ______ ____
ROOT
ATOM      1  C   LIG A   1      -6.604  -2.956 130.474  0.00  0.00    +0.154 C 
ATOM      2  C   LIG A   1      -7.609  -1.819 130.269  0.00  0.00    +0.056 C 
ATOM      3  C   LIG A   1      -6.951  -0.483 130.041  0.00  0.00    +0.167 C 
ATOM      4  O   LIG A   1      -6.468  -0.510 128.694  0.00  0.00    -0.371 OA
ATOM      5  C   LIG A   1      -7.252  -1.465 127.947  0.00  0.00    +0.154 C 
ATOM      6  C   LIG A   1      -8.217  -2.136 128.931  0.00  0.00    +0.056 C 
ATOM      7  C   LIG A   1      -8.171  -3.643 128.877  0.00  0.00    +0.167 C 
ATOM      8  O   LIG A   1      -6.995  -4.033 129.593  0.00  0.00    -0.371 OA
ENDROOT
BRANCH   1  16
ATOM      9  C   LIG A   1      -5.675  -4.926 133.628  0.00  0.00    +0.166 A 
ATOM     10  C   LIG A   1      -6.578  -4.363 134.521  0.00  0.00    +0.207 A 
ATOM     11  O   LIG A   1      -6.721  -4.679 135.836  0.00  0.00    -0.449 OA
ATOM     12  C   LIG A   1      -7.787  -3.786 136.222  0.00  0.00    +0.467 C 
ATOM     13  O   LIG A   1      -8.264  -2.964 135.140  0.00  0.00    -0.453 OA
ATOM     14  C   LIG A   1      -7.458  -3.379 134.122  0.00  0.00    +0.170 A 
ATOM     15  C   LIG A   1      -7.495  -2.893 132.840  0.00  0.00    +0.056 A 
ATOM     16  C   LIG A   1      -6.592  -3.428 131.908  0.00  0.00    -0.011 A 
ATOM     17  C   LIG A   1      -5.705  -4.451 132.320  0.00  0.00    +0.056 A 
BRANCH   9  19
ATOM     18  C   LIG A   1      -3.447  -5.693 133.860  0.00  0.00    +0.277 C 
ATOM     19  O   LIG A   1      -4.836  -5.905 134.102  0.00  0.00    -0.491 OA
ENDBRANCH   9  19
ENDBRANCH   1  16
BRANCH   5  20
ATOM     20  C   LIG A   1      -7.983  -0.767 126.827  0.00  0.00    -0.011 A 
ATOM     21  C   LIG A   1      -8.150   0.620 126.866  0.00  0.00    +0.056 A 
ATOM     22  C   LIG A   1      -8.786   1.300 125.820  0.00  0.00    +0.166 A 
ATOM     23  C   LIG A   1      -9.241   0.578 124.688  0.00  0.00    +0.203 A 
ATOM     24  C   LIG A   1      -9.062  -0.818 124.641  0.00  0.00    +0.166 A 
ATOM     25  C   LIG A   1      -8.449  -1.471 125.713  0.00  0.00    +0.056 A 
BRANCH  22  26
ATOM     26  O   LIG A   1      -9.013   2.658 125.839  0.00  0.00    -0.491 OA
ATOM     27  C   LIG A   1      -7.875   3.511 125.949  0.00  0.00    +0.277 C 
ENDBRANCH  22  26
BRANCH  23  28
ATOM     28  O   LIG A   1      -9.810   1.337 123.687  0.00  0.00    -0.488 OA
ATOM     29  C   LIG A   1      -8.920   1.920 122.742  0.00  0.00    +0.277 C 
ENDBRANCH  23  28
BRANCH  24  30
ATOM     30  O   LIG A   1      -9.387  -1.513 123.502  0.00  0.00    -0.491 OA
ATOM     31  C   LIG A   1      -9.242  -2.928 123.576  0.00  0.00    +0.277 C 
ENDBRANCH  24  30
ENDBRANCH   5  20
TORSDOF 6
ENDMDL
