MODEL 1
REMARK VINA RESULT:      -9.6      0.000      0.000
REMARK  Name = NuBBE_119
REMARK  16 active torsions:
REMARK  status: ('A' for Active; 'I' for Inactive)
REMARK    1  A    between atoms: O_1  and  C_2
REMARK    2  A    between atoms: C_5  and  O_6
REMARK    3  A    between atoms: O_6  and  C_7
REMARK    4  A    between atoms: C_10  and  C_12
REMARK    5  A    between atoms: C_13  and  O_15
REMARK    6  A    between atoms: C_16  and  O_18
REMARK    7  A    between atoms: O_18  and  C_19
REMARK    8  A    between atoms: C_19  and  C_20
REMARK    9  A    between atoms: C_22  and  O_23
REMARK   10  A    between atoms: C_24  and  O_25
REMARK   11  A    between atoms: O_25  and  C_26
REMARK   12  A    between atoms: C_27  and  O_28
REMARK   13  A    between atoms: C_31  and  O_33
REMARK   14  A    between atoms: C_34  and  C_35
REMARK   15  A    between atoms: C_38  and  O_39
REMARK   16  A    between atoms: C_45  and  O_46
REMARK                            x       y       z     vdW  Elec       q    Type
REMARK                         _______ _______ _______ _____ _____    ______ ____
ROOT
ATOM      1  C   LIG A   1      -7.634  -0.616 124.621  0.00  0.00    +0.341 C 
ATOM      2  O   LIG A   1      -7.384  -1.408 123.459  0.00  0.00    -0.334 OA
ATOM      3  C   LIG A   1      -7.595  -2.822 123.583  0.00  0.00    +0.151 C 
ATOM      4  C   LIG A   1      -6.329  -3.568 124.003  0.00  0.00    +0.040 C 
ATOM      5  C   LIG A   1      -8.842  -3.249 124.400  0.00  0.00    +0.186 C 
ATOM      6  C   LIG A   1      -9.076  -2.393 125.646  0.00  0.00    +0.242 C 
ATOM      7  C   LIG A   1      -9.027  -0.910 125.230  0.00  0.00    +0.226 C 
ENDROOT
BRANCH   5   8
ATOM      8  O   LIG A   1     -10.007  -3.121 123.570  0.00  0.00    -0.386 OA
ATOM      9  H   LIG A   1     -10.688  -2.651 124.082  0.00  0.00    +0.210 HD
ENDBRANCH   5   8
BRANCH   7  10
ATOM     10  O   LIG A   1      -9.348  -0.094 126.371  0.00  0.00    -0.382 OA
ATOM     11  H   LIG A   1      -8.622   0.540 126.510  0.00  0.00    +0.210 HD
ENDBRANCH   7  10
BRANCH   1  12
ATOM     12  O   LIG A   1      -7.590   0.791 124.283  0.00  0.00    -0.453 OA
BRANCH  12  16
ATOM     13  C   LIG A   1      -4.355   2.168 127.853  0.00  0.00    +0.135 A 
ATOM     14  C   LIG A   1      -4.948   2.322 126.589  0.00  0.00    +0.109 A 
ATOM     15  C   LIG A   1      -5.929   1.363 126.092  0.00  0.00    +0.238 A 
ATOM     16  C   LIG A   1      -6.563   1.601 124.756  0.00  0.00    +0.214 A 
ATOM     17  C   LIG A   1      -6.171   2.723 124.099  0.00  0.00    +0.181 A 
ATOM     18  O   LIG A   1      -5.201   3.616 124.560  0.00  0.00    -0.451 OA
ATOM     19  C   LIG A   1      -4.635   3.418 125.796  0.00  0.00    +0.146 A 
ATOM     20  C   LIG A   1      -3.722   4.369 126.267  0.00  0.00    +0.092 A 
ATOM     21  C   LIG A   1      -3.145   4.207 127.530  0.00  0.00    +0.124 A 
ATOM     22  C   LIG A   1      -3.456   3.113 128.327  0.00  0.00    +0.091 A 
ATOM     23  O   LIG A   1      -6.226   0.433 126.840  0.00  0.00    -0.283 OA
BRANCH  17  24
ATOM     24  C   LIG A   1      -6.754   3.169 122.804  0.00  0.00    +0.021 A 
ATOM     25  C   LIG A   1      -8.140   3.125 122.575  0.00  0.00    +0.015 A 
ATOM     26  C   LIG A   1      -8.686   3.511 121.336  0.00  0.00    +0.046 A 
ATOM     27  C   LIG A   1      -7.845   3.937 120.316  0.00  0.00    +0.117 A 
ATOM     28  C   LIG A   1      -6.470   3.964 120.508  0.00  0.00    +0.046 A 
ATOM     29  C   LIG A   1      -5.926   3.579 121.745  0.00  0.00    +0.015 A 
BRANCH  27  30
ATOM     30  O   LIG A   1      -8.328   4.341 119.104  0.00  0.00    -0.507 OA
ATOM     31  H   LIG A   1      -8.714   5.228 119.194  0.00  0.00    +0.292 HD
ENDBRANCH  27  30
ENDBRANCH  17  24
BRANCH  13  32
ATOM     32  O   LIG A   1      -4.610   1.116 128.691  0.00  0.00    -0.506 OA
ATOM     33  H   LIG A   1      -4.517   0.276 128.189  0.00  0.00    +0.292 HD
ENDBRANCH  13  32
BRANCH  21  34
ATOM     34  O   LIG A   1      -2.258   5.109 128.039  0.00  0.00    -0.506 OA
ATOM     35  H   LIG A   1      -1.442   4.652 128.297  0.00  0.00    +0.292 HD
ENDBRANCH  21  34
ENDBRANCH  12  16
ENDBRANCH   1  12
BRANCH   6  36
ATOM     36  O   LIG A   1      -8.064  -2.643 126.623  0.00  0.00    -0.452 OA
BRANCH  36  37
ATOM     37  C   LIG A   1      -8.406  -3.296 127.762  0.00  0.00    +0.340 C 
ATOM     38  O   LIG A   1      -9.368  -3.996 127.906  0.00  0.00    -0.245 OA
BRANCH  37  39
ATOM     39  C   LIG A   1      -7.375  -3.030 128.838  0.00  0.00    +0.066 A 
ATOM     40  C   LIG A   1      -7.739  -3.218 130.169  0.00  0.00    +0.064 A 
ATOM     41  C   LIG A   1      -6.820  -2.921 131.200  0.00  0.00    +0.163 A 
ATOM     42  C   LIG A   1      -5.554  -2.410 130.891  0.00  0.00    +0.203 A 
ATOM     43  C   LIG A   1      -5.214  -2.262 129.539  0.00  0.00    +0.163 A 
ATOM     44  C   LIG A   1      -6.100  -2.586 128.522  0.00  0.00    +0.064 A 
BRANCH  41  45
ATOM     45  O   LIG A   1      -7.198  -3.140 132.495  0.00  0.00    -0.503 OA
ATOM     46  H   LIG A   1      -6.743  -3.922 132.847  0.00  0.00    +0.292 HD
ENDBRANCH  41  45
BRANCH  42  47
ATOM     47  O   LIG A   1      -4.565  -2.049 131.771  0.00  0.00    -0.488 OA
ATOM     48  C   LIG A   1      -3.788  -3.112 132.316  0.00  0.00    +0.277 C 
ENDBRANCH  42  47
BRANCH  43  49
ATOM     49  O   LIG A   1      -4.015  -1.727 129.153  0.00  0.00    -0.503 OA
ATOM     50  H   LIG A   1      -3.348  -2.433 129.286  0.00  0.00    +0.292 HD
ENDBRANCH  43  49
ENDBRANCH  37  39
ENDBRANCH  36  37
ENDBRANCH   6  36
TORSDOF 14
ENDMDL
MODEL 2
REMARK VINA RESULT:      -9.3      5.246      9.038
REMARK  Name = NuBBE_119
REMARK  16 active torsions:
REMARK  status: ('A' for Active; 'I' for Inactive)
REMARK    1  A    between atoms: O_1  and  C_2
REMARK    2  A    between atoms: C_5  and  O_6
REMARK    3  A    between atoms: O_6  and  C_7
REMARK    4  A    between atoms: C_10  and  C_12
REMARK    5  A    between atoms: C_13  and  O_15
REMARK    6  A    between atoms: C_16  and  O_18
REMARK    7  A    between atoms: O_18  and  C_19
REMARK    8  A    between atoms: C_19  and  C_20
REMARK    9  A    between atoms: C_22  and  O_23
REMARK   10  A    between atoms: C_24  and  O_25
REMARK   11  A    between atoms: O_25  and  C_26
REMARK   12  A    between atoms: C_27  and  O_28
REMARK   13  A    between atoms: C_31  and  O_33
REMARK   14  A    between atoms: C_34  and  C_35
REMARK   15  A    between atoms: C_38  and  O_39
REMARK   16  A    between atoms: C_45  and  O_46
REMARK                            x       y       z     vdW  Elec       q    Type
REMARK                         _______ _______ _______ _____ _____    ______ ____
ROOT
ATOM      1  C   LIG A   1      -6.454   3.299 129.878  0.00  0.00    +0.341 C 
ATOM      2  O   LIG A   1      -5.179   3.499 130.489  0.00  0.00    -0.334 OA
ATOM      3  C   LIG A   1      -5.151   4.288 131.688  0.00  0.00    +0.151 C 
ATOM      4  C   LIG A   1      -4.921   5.773 131.407  0.00  0.00    +0.040 C 
ATOM      5  C   LIG A   1      -6.313   4.039 132.684  0.00  0.00    +0.186 C 
ATOM      6  C   LIG A   1      -7.669   3.844 132.003  0.00  0.00    +0.242 C 
ATOM      7  C   LIG A   1      -7.504   2.787 130.894  0.00  0.00    +0.226 C 
ENDROOT
BRANCH   5   8
ATOM      8  O   LIG A   1      -6.035   2.845 133.432  0.00  0.00    -0.386 OA
ATOM      9  H   LIG A   1      -5.518   3.097 134.216  0.00  0.00    +0.210 HD
ENDBRANCH   5   8
BRANCH   7  10
ATOM     10  O   LIG A   1      -8.793   2.516 130.312  0.00  0.00    -0.382 OA
ATOM     11  H   LIG A   1      -8.909   1.551 130.258  0.00  0.00    +0.210 HD
ENDBRANCH   7  10
BRANCH   1  12
ATOM     12  O   LIG A   1      -6.350   2.318 128.820  0.00  0.00    -0.453 OA
BRANCH  12  16
ATOM     13  C   LIG A   1      -9.330   1.476 124.879  0.00  0.00    +0.135 A 
ATOM     14  C   LIG A   1      -8.280   2.156 125.519  0.00  0.00    +0.109 A 
ATOM     15  C   LIG A   1      -7.948   1.892 126.915  0.00  0.00    +0.238 A 
ATOM     16  C   LIG A   1      -6.790   2.614 127.533  0.00  0.00    +0.214 A 
ATOM     17  C   LIG A   1      -6.119   3.473 126.723  0.00  0.00    +0.181 A 
ATOM     18  O   LIG A   1      -6.466   3.753 125.400  0.00  0.00    -0.451 OA
ATOM     19  C   LIG A   1      -7.510   3.075 124.819  0.00  0.00    +0.146 A 
ATOM     20  C   LIG A   1      -7.789   3.318 123.469  0.00  0.00    +0.092 A 
ATOM     21  C   LIG A   1      -8.832   2.628 122.843  0.00  0.00    +0.124 A 
ATOM     22  C   LIG A   1      -9.603   1.708 123.539  0.00  0.00    +0.091 A 
ATOM     23  O   LIG A   1      -8.613   1.035 127.493  0.00  0.00    -0.283 OA
BRANCH  17  24
ATOM     24  C   LIG A   1      -4.892   4.210 127.135  0.00  0.00    +0.021 A 
ATOM     25  C   LIG A   1      -3.658   3.552 127.275  0.00  0.00    +0.015 A 
ATOM     26  C   LIG A   1      -2.509   4.243 127.702  0.00  0.00    +0.046 A 
ATOM     27  C   LIG A   1      -2.591   5.598 127.998  0.00  0.00    +0.117 A 
ATOM     28  C   LIG A   1      -3.805   6.265 127.893  0.00  0.00    +0.046 A 
ATOM     29  C   LIG A   1      -4.951   5.574 127.467  0.00  0.00    +0.015 A 
BRANCH  27  30
ATOM     30  O   LIG A   1      -1.500   6.316 128.396  0.00  0.00    -0.507 OA
ATOM     31  H   LIG A   1      -1.566   7.219 128.043  0.00  0.00    +0.292 HD
ENDBRANCH  27  30
ENDBRANCH  17  24
BRANCH  13  32
ATOM     32  O   LIG A   1     -10.133   0.558 125.501  0.00  0.00    -0.506 OA
ATOM     33  H   LIG A   1      -9.957  -0.332 125.123  0.00  0.00    +0.292 HD
ENDBRANCH  13  32
BRANCH  21  34
ATOM     34  O   LIG A   1      -9.137   2.821 121.527  0.00  0.00    -0.506 OA
ATOM     35  H   LIG A   1      -9.344   3.757 121.377  0.00  0.00    +0.292 HD
ENDBRANCH  21  34
ENDBRANCH  12  16
ENDBRANCH   1  12
BRANCH   6  36
ATOM     36  O   LIG A   1      -8.120   5.069 131.425  0.00  0.00    -0.452 OA
BRANCH  36  37
ATOM     37  C   LIG A   1      -8.884   5.902 132.177  0.00  0.00    +0.340 C 
ATOM     38  O   LIG A   1      -8.730   6.130 133.343  0.00  0.00    -0.245 OA
BRANCH  37  39
ATOM     39  C   LIG A   1      -9.961   6.529 131.319  0.00  0.00    +0.066 A 
ATOM     40  C   LIG A   1      -9.586   7.159 130.134  0.00  0.00    +0.064 A 
ATOM     41  C   LIG A   1     -10.559   7.806 129.341  0.00  0.00    +0.163 A 
ATOM     42  C   LIG A   1     -11.896   7.843 129.754  0.00  0.00    +0.203 A 
ATOM     43  C   LIG A   1     -12.240   7.173 130.937  0.00  0.00    +0.163 A 
ATOM     44  C   LIG A   1     -11.294   6.505 131.702  0.00  0.00    +0.064 A 
BRANCH  41  45
ATOM     45  O   LIG A   1     -10.164   8.393 128.172  0.00  0.00    -0.503 OA
ATOM     46  H   LIG A   1     -10.365   7.809 127.422  0.00  0.00    +0.292 HD
ENDBRANCH  41  45
BRANCH  42  47
ATOM     47  O   LIG A   1     -12.948   8.449 129.115  0.00  0.00    -0.488 OA
ATOM     48  C   LIG A   1     -13.526   7.729 128.030  0.00  0.00    +0.277 C 
ENDBRANCH  42  47
BRANCH  43  49
ATOM     49  O   LIG A   1     -13.515   7.200 131.434  0.00  0.00    -0.503 OA
ATOM     50  H   LIG A   1     -13.947   6.381 131.113  0.00  0.00    +0.292 HD
ENDBRANCH  43  49
ENDBRANCH  37  39
ENDBRANCH  36  37
ENDBRANCH   6  36
TORSDOF 14
ENDMDL
MODEL 3
REMARK VINA RESULT:      -9.1      5.209      9.003
REMARK  Name = NuBBE_119
REMARK  16 active torsions:
REMARK  status: ('A' for Active; 'I' for Inactive)
REMARK    1  A    between atoms: O_1  and  C_2
REMARK    2  A    between atoms: C_5  and  O_6
REMARK    3  A    between atoms: O_6  and  C_7
REMARK    4  A    between atoms: C_10  and  C_12
REMARK    5  A    between atoms: C_13  and  O_15
REMARK    6  A    between atoms: C_16  and  O_18
REMARK    7  A    between atoms: O_18  and  C_19
REMARK    8  A    between atoms: C_19  and  C_20
REMARK    9  A    between atoms: C_22  and  O_23
REMARK   10  A    between atoms: C_24  and  O_25
REMARK   11  A    between atoms: O_25  and  C_26
REMARK   12  A    between atoms: C_27  and  O_28
REMARK   13  A    between atoms: C_31  and  O_33
REMARK   14  A    between atoms: C_34  and  C_35
REMARK   15  A    between atoms: C_38  and  O_39
REMARK   16  A    between atoms: C_45  and  O_46
REMARK                            x       y       z     vdW  Elec       q    Type
REMARK                         _______ _______ _______ _____ _____    ______ ____
ROOT
ATOM      1  C   LIG A   1      -7.604   2.187 130.701  0.00  0.00    +0.341 C 
ATOM      2  O   LIG A   1      -6.325   1.735 131.145  0.00  0.00    -0.334 OA
ATOM      3  C   LIG A   1      -5.746   2.425 132.262  0.00  0.00    +0.151 C 
ATOM      4  C   LIG A   1      -4.857   3.592 131.833  0.00  0.00    +0.040 C 
ATOM      5  C   LIG A   1      -6.728   2.805 133.400  0.00  0.00    +0.186 C 
ATOM      6  C   LIG A   1      -8.085   3.301 132.895  0.00  0.00    +0.242 C 
ATOM      7  C   LIG A   1      -8.617   2.284 131.868  0.00  0.00    +0.226 C 
ENDROOT
BRANCH   5   8
ATOM      8  O   LIG A   1      -6.972   1.645 134.210  0.00  0.00    -0.386 OA
ATOM      9  H   LIG A   1      -7.725   1.164 133.823  0.00  0.00    +0.210 HD
ENDBRANCH   5   8
BRANCH   7  10
ATOM     10  O   LIG A   1      -9.939   2.682 131.459  0.00  0.00    -0.382 OA
ATOM     11  H   LIG A   1     -10.578   2.040 131.816  0.00  0.00    +0.210 HD
ENDBRANCH   7  10
BRANCH   1  12
ATOM     12  O   LIG A   1      -8.146   1.267 129.723  0.00  0.00    -0.453 OA
BRANCH  12  16
ATOM     13  C   LIG A   1      -8.090   3.575 125.275  0.00  0.00    +0.135 A 
ATOM     14  C   LIG A   1      -7.767   2.500 126.120  0.00  0.00    +0.109 A 
ATOM     15  C   LIG A   1      -8.085   2.535 127.544  0.00  0.00    +0.238 A 
ATOM     16  C   LIG A   1      -7.758   1.342 128.389  0.00  0.00    +0.214 A 
ATOM     17  C   LIG A   1      -7.183   0.293 127.746  0.00  0.00    +0.181 A 
ATOM     18  O   LIG A   1      -6.842   0.281 126.392  0.00  0.00    -0.451 OA
ATOM     19  C   LIG A   1      -7.164   1.360 125.606  0.00  0.00    +0.146 A 
ATOM     20  C   LIG A   1      -6.880   1.291 124.237  0.00  0.00    +0.092 A 
ATOM     21  C   LIG A   1      -7.214   2.366 123.407  0.00  0.00    +0.124 A 
ATOM     22  C   LIG A   1      -7.818   3.507 123.917  0.00  0.00    +0.091 A 
ATOM     23  O   LIG A   1      -8.668   3.535 127.959  0.00  0.00    -0.283 OA
BRANCH  17  24
ATOM     24  C   LIG A   1      -6.869  -1.006 128.402  0.00  0.00    +0.021 A 
ATOM     25  C   LIG A   1      -7.852  -1.996 128.568  0.00  0.00    +0.015 A 
ATOM     26  C   LIG A   1      -7.563  -3.208 129.222  0.00  0.00    +0.046 A 
ATOM     27  C   LIG A   1      -6.285  -3.433 129.721  0.00  0.00    +0.117 A 
ATOM     28  C   LIG A   1      -5.304  -2.459 129.594  0.00  0.00    +0.046 A 
ATOM     29  C   LIG A   1      -5.594  -1.250 128.940  0.00  0.00    +0.015 A 
BRANCH  27  30
ATOM     30  O   LIG A   1      -5.951  -4.600 130.345  0.00  0.00    -0.507 OA
ATOM     31  H   LIG A   1      -5.721  -5.265 129.676  0.00  0.00    +0.292 HD
ENDBRANCH  27  30
ENDBRANCH  17  24
BRANCH  13  32
ATOM     32  O   LIG A   1      -8.683   4.731 125.707  0.00  0.00    -0.506 OA
ATOM     33  H   LIG A   1      -8.210   5.500 125.318  0.00  0.00    +0.292 HD
ENDBRANCH  13  32
BRANCH  21  34
ATOM     34  O   LIG A   1      -6.969   2.344 122.065  0.00  0.00    -0.506 OA
ATOM     35  H   LIG A   1      -6.178   2.873 121.872  0.00  0.00    +0.292 HD
ENDBRANCH  21  34
ENDBRANCH  12  16
ENDBRANCH   1  12
BRANCH   6  36
ATOM     36  O   LIG A   1      -7.950   4.578 132.271  0.00  0.00    -0.452 OA
BRANCH  36  37
ATOM     37  C   LIG A   1      -8.706   5.609 132.726  0.00  0.00    +0.340 C 
ATOM     38  O   LIG A   1      -8.617   6.116 133.809  0.00  0.00    -0.245 OA
BRANCH  37  39
ATOM     39  C   LIG A   1      -9.677   6.050 131.654  0.00  0.00    +0.066 A 
ATOM     40  C   LIG A   1     -10.976   6.387 132.029  0.00  0.00    +0.064 A 
ATOM     41  C   LIG A   1     -11.924   6.745 131.045  0.00  0.00    +0.163 A 
ATOM     42  C   LIG A   1     -11.574   6.734 129.690  0.00  0.00    +0.203 A 
ATOM     43  C   LIG A   1     -10.250   6.416 129.353  0.00  0.00    +0.163 A 
ATOM     44  C   LIG A   1      -9.305   6.099 130.319  0.00  0.00    +0.064 A 
BRANCH  41  45
ATOM     45  O   LIG A   1     -13.182   7.095 131.448  0.00  0.00    -0.503 OA
ATOM     46  H   LIG A   1     -13.551   6.408 132.026  0.00  0.00    +0.292 HD
ENDBRANCH  41  45
BRANCH  42  47
ATOM     47  O   LIG A   1     -12.380   7.027 128.620  0.00  0.00    -0.488 OA
ATOM     48  C   LIG A   1     -12.585   8.410 128.345  0.00  0.00    +0.277 C 
ENDBRANCH  42  47
BRANCH  43  49
ATOM     49  O   LIG A   1      -9.838   6.338 128.050  0.00  0.00    -0.503 OA
ATOM     50  H   LIG A   1     -10.617   6.034 127.538  0.00  0.00    +0.292 HD
ENDBRANCH  43  49
ENDBRANCH  37  39
ENDBRANCH  36  37
ENDBRANCH   6  36
TORSDOF 14
ENDMDL
MODEL 4
REMARK VINA RESULT:      -9.1      5.926     10.360
REMARK  Name = NuBBE_119
REMARK  16 active torsions:
REMARK  status: ('A' for Active; 'I' for Inactive)
REMARK    1  A    between atoms: O_1  and  C_2
REMARK    2  A    between atoms: C_5  and  O_6
REMARK    3  A    between atoms: O_6  and  C_7
REMARK    4  A    between atoms: C_10  and  C_12
REMARK    5  A    between atoms: C_13  and  O_15
REMARK    6  A    between atoms: C_16  and  O_18
REMARK    7  A    between atoms: O_18  and  C_19
REMARK    8  A    between atoms: C_19  and  C_20
REMARK    9  A    between atoms: C_22  and  O_23
REMARK   10  A    between atoms: C_24  and  O_25
REMARK   11  A    between atoms: O_25  and  C_26
REMARK   12  A    between atoms: C_27  and  O_28
REMARK   13  A    between atoms: C_31  and  O_33
REMARK   14  A    between atoms: C_34  and  C_35
REMARK   15  A    between atoms: C_38  and  O_39
REMARK   16  A    between atoms: C_45  and  O_46
REMARK                            x       y       z     vdW  Elec       q    Type
REMARK                         _______ _______ _______ _____ _____    ______ ____
ROOT
ATOM      1  C   LIG A   1      -6.773   3.353 132.824  0.00  0.00    +0.341 C 
ATOM      2  O   LIG A   1      -6.127   4.531 133.310  0.00  0.00    -0.334 OA
ATOM      3  C   LIG A   1      -6.764   5.785 133.019  0.00  0.00    +0.151 C 
ATOM      4  C   LIG A   1      -6.267   6.406 131.715  0.00  0.00    +0.040 C 
ATOM      5  C   LIG A   1      -8.310   5.798 133.140  0.00  0.00    +0.186 C 
ATOM      6  C   LIG A   1      -8.975   4.531 132.598  0.00  0.00    +0.242 C 
ATOM      7  C   LIG A   1      -8.269   3.312 133.221  0.00  0.00    +0.226 C 
ENDROOT
BRANCH   5   8
ATOM      8  O   LIG A   1      -8.667   5.908 134.526  0.00  0.00    -0.386 OA
ATOM      9  H   LIG A   1      -9.597   6.189 134.574  0.00  0.00    +0.210 HD
ENDBRANCH   5   8
BRANCH   7  10
ATOM     10  O   LIG A   1      -8.949   2.114 132.802  0.00  0.00    -0.382 OA
ATOM     11  H   LIG A   1      -9.222   1.621 133.596  0.00  0.00    +0.210 HD
ENDBRANCH   7  10
BRANCH   1  12
ATOM     12  O   LIG A   1      -6.138   2.175 133.375  0.00  0.00    -0.453 OA
BRANCH  12  16
ATOM     13  C   LIG A   1      -6.193  -2.533 131.660  0.00  0.00    +0.135 A 
ATOM     14  C   LIG A   1      -5.664  -1.232 131.699  0.00  0.00    +0.109 A 
ATOM     15  C   LIG A   1      -6.291  -0.185 132.498  0.00  0.00    +0.238 A 
ATOM     16  C   LIG A   1      -5.657   1.173 132.539  0.00  0.00    +0.214 A 
ATOM     17  C   LIG A   1      -4.517   1.323 131.817  0.00  0.00    +0.181 A 
ATOM     18  O   LIG A   1      -3.944   0.329 131.021  0.00  0.00    -0.451 OA
ATOM     19  C   LIG A   1      -4.504  -0.925 131.000  0.00  0.00    +0.146 A 
ATOM     20  C   LIG A   1      -3.867  -1.924 130.254  0.00  0.00    +0.092 A 
ATOM     21  C   LIG A   1      -4.401  -3.216 130.230  0.00  0.00    +0.124 A 
ATOM     22  C   LIG A   1      -5.559  -3.527 130.929  0.00  0.00    +0.091 A 
ATOM     23  O   LIG A   1      -7.285  -0.501 133.149  0.00  0.00    -0.283 OA
BRANCH  17  24
ATOM     24  C   LIG A   1      -3.703   2.569 131.808  0.00  0.00    +0.021 A 
ATOM     25  C   LIG A   1      -2.879   2.911 132.894  0.00  0.00    +0.015 A 
ATOM     26  C   LIG A   1      -2.140   4.108 132.899  0.00  0.00    +0.046 A 
ATOM     27  C   LIG A   1      -2.228   4.977 131.817  0.00  0.00    +0.117 A 
ATOM     28  C   LIG A   1      -3.056   4.674 130.744  0.00  0.00    +0.046 A 
ATOM     29  C   LIG A   1      -3.792   3.478 130.740  0.00  0.00    +0.015 A 
BRANCH  27  30
ATOM     30  O   LIG A   1      -1.515   6.140 131.766  0.00  0.00    -0.507 OA
ATOM     31  H   LIG A   1      -1.950   6.805 132.326  0.00  0.00    +0.292 HD
ENDBRANCH  27  30
ENDBRANCH  17  24
BRANCH  13  32
ATOM     32  O   LIG A   1      -7.331  -2.912 132.320  0.00  0.00    -0.506 OA
ATOM     33  H   LIG A   1      -8.092  -2.397 131.970  0.00  0.00    +0.292 HD
ENDBRANCH  13  32
BRANCH  21  34
ATOM     34  O   LIG A   1      -3.813  -4.227 129.527  0.00  0.00    -0.506 OA
ATOM     35  H   LIG A   1      -4.483  -4.886 129.287  0.00  0.00    +0.292 HD
ENDBRANCH  21  34
ENDBRANCH  12  16
ENDBRANCH   1  12
BRANCH   6  36
ATOM     36  O   LIG A   1      -8.855   4.472 131.176  0.00  0.00    -0.452 OA
BRANCH  36  37
ATOM     37  C   LIG A   1      -9.974   4.270 130.436  0.00  0.00    +0.340 C 
ATOM     38  O   LIG A   1     -10.368   3.210 130.038  0.00  0.00    -0.245 OA
BRANCH  37  39
ATOM     39  C   LIG A   1     -10.679   5.587 130.198  0.00  0.00    +0.066 A 
ATOM     40  C   LIG A   1     -10.139   6.472 129.267  0.00  0.00    +0.064 A 
ATOM     41  C   LIG A   1     -10.738   7.735 129.065  0.00  0.00    +0.163 A 
ATOM     42  C   LIG A   1     -11.857   8.115 129.816  0.00  0.00    +0.203 A 
ATOM     43  C   LIG A   1     -12.388   7.186 130.722  0.00  0.00    +0.163 A 
ATOM     44  C   LIG A   1     -11.825   5.930 130.899  0.00  0.00    +0.064 A 
BRANCH  41  45
ATOM     45  O   LIG A   1     -10.199   8.571 128.127  0.00  0.00    -0.503 OA
ATOM     46  H   LIG A   1      -9.236   8.620 128.238  0.00  0.00    +0.292 HD
ENDBRANCH  41  45
BRANCH  42  47
ATOM     47  O   LIG A   1     -12.533   9.307 129.759  0.00  0.00    -0.488 OA
ATOM     48  C   LIG A   1     -13.411   9.480 128.650  0.00  0.00    +0.277 C 
ENDBRANCH  42  47
BRANCH  43  49
ATOM     49  O   LIG A   1     -13.451   7.495 131.528  0.00  0.00    -0.503 OA
ATOM     50  H   LIG A   1     -14.090   6.758 131.426  0.00  0.00    +0.292 HD
ENDBRANCH  43  49
ENDBRANCH  37  39
ENDBRANCH  36  37
ENDBRANCH   6  36
TORSDOF 14
ENDMDL
MODEL 5
REMARK VINA RESULT:      -9.0      5.350      8.882
REMARK  Name = NuBBE_119
REMARK  16 active torsions:
REMARK  status: ('A' for Active; 'I' for Inactive)
REMARK    1  A    between atoms: O_1  and  C_2
REMARK    2  A    between atoms: C_5  and  O_6
REMARK    3  A    between atoms: O_6  and  C_7
REMARK    4  A    between atoms: C_10  and  C_12
REMARK    5  A    between atoms: C_13  and  O_15
REMARK    6  A    between atoms: C_16  and  O_18
REMARK    7  A    between atoms: O_18  and  C_19
REMARK    8  A    between atoms: C_19  and  C_20
REMARK    9  A    between atoms: C_22  and  O_23
REMARK   10  A    between atoms: C_24  and  O_25
REMARK   11  A    between atoms: O_25  and  C_26
REMARK   12  A    between atoms: C_27  and  O_28
REMARK   13  A    between atoms: C_31  and  O_33
REMARK   14  A    between atoms: C_34  and  C_35
REMARK   15  A    between atoms: C_38  and  O_39
REMARK   16  A    between atoms: C_45  and  O_46
REMARK                            x       y       z     vdW  Elec       q    Type
REMARK                         _______ _______ _______ _____ _____    ______ ____
ROOT
ATOM      1  C   LIG A   1      -7.405   2.636 130.014  0.00  0.00    +0.341 C 
ATOM      2  O   LIG A   1      -7.414   2.115 131.344  0.00  0.00    -0.334 OA
ATOM      3  C   LIG A   1      -7.436   0.686 131.480  0.00  0.00    +0.151 C 
ATOM      4  C   LIG A   1      -8.855   0.128 131.566  0.00  0.00    +0.040 C 
ATOM      5  C   LIG A   1      -6.542  -0.098 130.484  0.00  0.00    +0.186 C 
ATOM      6  C   LIG A   1      -6.564   0.474 129.065  0.00  0.00    +0.242 C 
ATOM      7  C   LIG A   1      -6.295   1.988 129.150  0.00  0.00    +0.226 C 
ENDROOT
BRANCH   5   8
ATOM      8  O   LIG A   1      -5.182  -0.049 130.942  0.00  0.00    -0.386 OA
ATOM      9  H   LIG A   1      -5.177  -0.280 131.887  0.00  0.00    +0.210 HD
ENDBRANCH   5   8
BRANCH   7  10
ATOM     10  O   LIG A   1      -6.210   2.524 127.816  0.00  0.00    -0.382 OA
ATOM     11  H   LIG A   1      -7.026   3.022 127.632  0.00  0.00    +0.210 HD
ENDBRANCH   7  10
BRANCH   1  12
ATOM     12  O   LIG A   1      -7.164   4.063 130.041  0.00  0.00    -0.453 OA
BRANCH  12  16
ATOM     13  C   LIG A   1     -10.421   6.806 127.398  0.00  0.00    +0.135 A 
ATOM     14  C   LIG A   1      -9.850   6.383 128.610  0.00  0.00    +0.109 A 
ATOM     15  C   LIG A   1      -8.830   5.341 128.643  0.00  0.00    +0.238 A 
ATOM     16  C   LIG A   1      -8.224   4.962 129.960  0.00  0.00    +0.214 A 
ATOM     17  C   LIG A   1      -8.677   5.641 131.045  0.00  0.00    +0.181 A 
ATOM     18  O   LIG A   1      -9.683   6.608 131.013  0.00  0.00    -0.451 OA
ATOM     19  C   LIG A   1     -10.224   6.980 129.807  0.00  0.00    +0.146 A 
ATOM     20  C   LIG A   1     -11.176   8.006 129.795  0.00  0.00    +0.092 A 
ATOM     21  C   LIG A   1     -11.730   8.421 128.580  0.00  0.00    +0.124 A 
ATOM     22  C   LIG A   1     -11.358   7.828 127.381  0.00  0.00    +0.091 A 
ATOM     23  O   LIG A   1      -8.480   4.870 127.563  0.00  0.00    -0.283 OA
BRANCH  17  24
ATOM     24  C   LIG A   1      -8.131   5.463 132.418  0.00  0.00    +0.021 A 
ATOM     25  C   LIG A   1      -6.871   5.974 132.774  0.00  0.00    +0.015 A 
ATOM     26  C   LIG A   1      -6.340   5.772 134.062  0.00  0.00    +0.046 A 
ATOM     27  C   LIG A   1      -7.067   5.049 135.000  0.00  0.00    +0.117 A 
ATOM     28  C   LIG A   1      -8.302   4.510 134.665  0.00  0.00    +0.046 A 
ATOM     29  C   LIG A   1      -8.831   4.714 133.379  0.00  0.00    +0.015 A 
BRANCH  27  30
ATOM     30  O   LIG A   1      -6.603   4.843 136.268  0.00  0.00    -0.507 OA
ATOM     31  H   LIG A   1      -5.646   5.004 136.288  0.00  0.00    +0.292 HD
ENDBRANCH  27  30
ENDBRANCH  17  24
BRANCH  13  32
ATOM     32  O   LIG A   1     -10.105   6.266 126.179  0.00  0.00    -0.506 OA
ATOM     33  H   LIG A   1      -9.151   6.029 126.170  0.00  0.00    +0.292 HD
ENDBRANCH  13  32
BRANCH  21  34
ATOM     34  O   LIG A   1     -12.654   9.423 128.512  0.00  0.00    -0.506 OA
ATOM     35  H   LIG A   1     -12.600   9.967 129.314  0.00  0.00    +0.292 HD
ENDBRANCH  21  34
ENDBRANCH  12  16
ENDBRANCH   1  12
BRANCH   6  36
ATOM     36  O   LIG A   1      -7.836   0.252 128.455  0.00  0.00    -0.452 OA
BRANCH  36  37
ATOM     37  C   LIG A   1      -7.918  -0.613 127.413  0.00  0.00    +0.340 C 
ATOM     38  O   LIG A   1      -7.650  -1.780 127.451  0.00  0.00    -0.245 OA
BRANCH  37  39
ATOM     39  C   LIG A   1      -8.423   0.108 126.183  0.00  0.00    +0.066 A 
ATOM     40  C   LIG A   1      -8.572  -0.615 125.001  0.00  0.00    +0.064 A 
ATOM     41  C   LIG A   1      -8.984   0.041 123.820  0.00  0.00    +0.163 A 
ATOM     42  C   LIG A   1      -9.214   1.421 123.823  0.00  0.00    +0.203 A 
ATOM     43  C   LIG A   1      -9.081   2.110 125.036  0.00  0.00    +0.163 A 
ATOM     44  C   LIG A   1      -8.712   1.464 126.208  0.00  0.00    +0.064 A 
BRANCH  41  45
ATOM     45  O   LIG A   1      -9.146  -0.701 122.684  0.00  0.00    -0.503 OA
ATOM     46  H   LIG A   1      -8.299  -0.782 122.215  0.00  0.00    +0.292 HD
ENDBRANCH  41  45
BRANCH  42  47
ATOM     47  O   LIG A   1      -9.589   2.205 122.760  0.00  0.00    -0.488 OA
ATOM     48  C   LIG A   1      -8.537   2.864 122.062  0.00  0.00    +0.277 C 
ENDBRANCH  42  47
BRANCH  43  49
ATOM     49  O   LIG A   1      -9.243   3.467 125.115  0.00  0.00    -0.503 OA
ATOM     50  H   LIG A   1     -10.163   3.612 125.419  0.00  0.00    +0.292 HD
ENDBRANCH  43  49
ENDBRANCH  37  39
ENDBRANCH  36  37
ENDBRANCH   6  36
TORSDOF 14
ENDMDL
MODEL 6
REMARK VINA RESULT:      -9.0      5.003      8.834
REMARK  Name = NuBBE_119
REMARK  16 active torsions:
REMARK  status: ('A' for Active; 'I' for Inactive)
REMARK    1  A    between atoms: O_1  and  C_2
REMARK    2  A    between atoms: C_5  and  O_6
REMARK    3  A    between atoms: O_6  and  C_7
REMARK    4  A    between atoms: C_10  and  C_12
REMARK    5  A    between atoms: C_13  and  O_15
REMARK    6  A    between atoms: C_16  and  O_18
REMARK    7  A    between atoms: O_18  and  C_19
REMARK    8  A    between atoms: C_19  and  C_20
REMARK    9  A    between atoms: C_22  and  O_23
REMARK   10  A    between atoms: C_24  and  O_25
REMARK   11  A    between atoms: O_25  and  C_26
REMARK   12  A    between atoms: C_27  and  O_28
REMARK   13  A    between atoms: C_31  and  O_33
REMARK   14  A    between atoms: C_34  and  C_35
REMARK   15  A    between atoms: C_38  and  O_39
REMARK   16  A    between atoms: C_45  and  O_46
REMARK                            x       y       z     vdW  Elec       q    Type
REMARK                         _______ _______ _______ _____ _____    ______ ____
ROOT
ATOM      1  C   LIG A   1      -6.364   3.737 128.332  0.00  0.00    +0.341 C 
ATOM      2  O   LIG A   1      -5.682   2.694 129.030  0.00  0.00    -0.334 OA
ATOM      3  C   LIG A   1      -5.309   1.539 128.264  0.00  0.00    +0.151 C 
ATOM      4  C   LIG A   1      -6.382   0.450 128.287  0.00  0.00    +0.040 C 
ATOM      5  C   LIG A   1      -4.771   1.821 126.838  0.00  0.00    +0.186 C 
ATOM      6  C   LIG A   1      -5.531   2.932 126.109  0.00  0.00    +0.242 C 
ATOM      7  C   LIG A   1      -5.614   4.154 127.043  0.00  0.00    +0.226 C 
ENDROOT
BRANCH   5   8
ATOM      8  O   LIG A   1      -3.399   2.234 126.932  0.00  0.00    -0.386 OA
ATOM      9  H   LIG A   1      -3.362   3.191 126.757  0.00  0.00    +0.210 HD
ENDBRANCH   5   8
BRANCH   7  10
ATOM     10  O   LIG A   1      -6.235   5.242 126.335  0.00  0.00    -0.382 OA
ATOM     11  H   LIG A   1      -7.184   5.045 126.239  0.00  0.00    +0.210 HD
ENDBRANCH   7  10
BRANCH   1  12
ATOM     12  O   LIG A   1      -6.477   4.909 129.174  0.00  0.00    -0.453 OA
BRANCH  12  16
ATOM     13  C   LIG A   1     -11.242   6.457 129.124  0.00  0.00    +0.135 A 
ATOM     14  C   LIG A   1     -10.083   6.030 129.793  0.00  0.00    +0.109 A 
ATOM     15  C   LIG A   1      -8.897   5.607 129.055  0.00  0.00    +0.238 A 
ATOM     16  C   LIG A   1      -7.673   5.205 129.820  0.00  0.00    +0.214 A 
ATOM     17  C   LIG A   1      -7.763   5.275 131.173  0.00  0.00    +0.181 A 
ATOM     18  O   LIG A   1      -8.913   5.641 131.875  0.00  0.00    -0.451 OA
ATOM     19  C   LIG A   1     -10.030   6.037 131.180  0.00  0.00    +0.146 A 
ATOM     20  C   LIG A   1     -11.144   6.472 131.908  0.00  0.00    +0.092 A 
ATOM     21  C   LIG A   1     -12.289   6.900 131.229  0.00  0.00    +0.124 A 
ATOM     22  C   LIG A   1     -12.345   6.896 129.842  0.00  0.00    +0.091 A 
ATOM     23  O   LIG A   1      -8.955   5.664 127.828  0.00  0.00    -0.283 OA
BRANCH  17  24
ATOM     24  C   LIG A   1      -6.624   5.001 132.092  0.00  0.00    +0.021 A 
ATOM     25  C   LIG A   1      -5.760   6.027 132.510  0.00  0.00    +0.015 A 
ATOM     26  C   LIG A   1      -4.662   5.758 133.348  0.00  0.00    +0.046 A 
ATOM     27  C   LIG A   1      -4.418   4.456 133.768  0.00  0.00    +0.117 A 
ATOM     28  C   LIG A   1      -5.242   3.420 133.347  0.00  0.00    +0.046 A 
ATOM     29  C   LIG A   1      -6.338   3.690 132.511  0.00  0.00    +0.015 A 
BRANCH  27  30
ATOM     30  O   LIG A   1      -3.379   4.148 134.597  0.00  0.00    -0.507 OA
ATOM     31  H   LIG A   1      -3.010   3.287 134.340  0.00  0.00    +0.292 HD
ENDBRANCH  27  30
ENDBRANCH  17  24
BRANCH  13  32
ATOM     32  O   LIG A   1     -11.371   6.478 127.761  0.00  0.00    -0.506 OA
ATOM     33  H   LIG A   1     -11.025   5.635 127.393  0.00  0.00    +0.292 HD
ENDBRANCH  13  32
BRANCH  21  34
ATOM     34  O   LIG A   1     -13.397   7.343 131.891  0.00  0.00    -0.506 OA
ATOM     35  H   LIG A   1     -13.143   8.036 132.521  0.00  0.00    +0.292 HD
ENDBRANCH  21  34
ENDBRANCH  12  16
ENDBRANCH   1  12
BRANCH   6  36
ATOM     36  O   LIG A   1      -6.851   2.500 125.776  0.00  0.00    -0.452 OA
BRANCH  36  37
ATOM     37  C   LIG A   1      -7.273   2.625 124.492  0.00  0.00    +0.340 C 
ATOM     38  O   LIG A   1      -7.316   3.646 123.866  0.00  0.00    -0.245 OA
BRANCH  37  39
ATOM     39  C   LIG A   1      -7.668   1.271 123.945  0.00  0.00    +0.066 A 
ATOM     40  C   LIG A   1      -8.954   1.109 123.435  0.00  0.00    +0.064 A 
ATOM     41  C   LIG A   1      -9.375  -0.158 122.972  0.00  0.00    +0.163 A 
ATOM     42  C   LIG A   1      -8.515  -1.259 123.051  0.00  0.00    +0.203 A 
ATOM     43  C   LIG A   1      -7.219  -1.051 123.544  0.00  0.00    +0.163 A 
ATOM     44  C   LIG A   1      -6.789   0.199 123.966  0.00  0.00    +0.064 A 
BRANCH  41  45
ATOM     45  O   LIG A   1     -10.634  -0.279 122.454  0.00  0.00    -0.503 OA
ATOM     46  H   LIG A   1     -10.785  -1.190 122.156  0.00  0.00    +0.292 HD
ENDBRANCH  41  45
BRANCH  42  47
ATOM     47  O   LIG A   1      -8.780  -2.551 122.672  0.00  0.00    -0.488 OA
ATOM     48  C   LIG A   1      -9.536  -3.334 123.591  0.00  0.00    +0.277 C 
ENDBRANCH  42  47
BRANCH  43  49
ATOM     49  O   LIG A   1      -6.332  -2.082 123.696  0.00  0.00    -0.503 OA
ATOM     50  H   LIG A   1      -5.612  -1.738 124.266  0.00  0.00    +0.292 HD
ENDBRANCH  43  49
ENDBRANCH  37  39
ENDBRANCH  36  37
ENDBRANCH   6  36
TORSDOF 14
ENDMDL
MODEL 7
REMARK VINA RESULT:      -8.9      3.799      8.870
REMARK  Name = NuBBE_119
REMARK  16 active torsions:
REMARK  status: ('A' for Active; 'I' for Inactive)
REMARK    1  A    between atoms: O_1  and  C_2
REMARK    2  A    between atoms: C_5  and  O_6
REMARK    3  A    between atoms: O_6  and  C_7
REMARK    4  A    between atoms: C_10  and  C_12
REMARK    5  A    between atoms: C_13  and  O_15
REMARK    6  A    between atoms: C_16  and  O_18
REMARK    7  A    between atoms: O_18  and  C_19
REMARK    8  A    between atoms: C_19  and  C_20
REMARK    9  A    between atoms: C_22  and  O_23
REMARK   10  A    between atoms: C_24  and  O_25
REMARK   11  A    between atoms: O_25  and  C_26
REMARK   12  A    between atoms: C_27  and  O_28
REMARK   13  A    between atoms: C_31  and  O_33
REMARK   14  A    between atoms: C_34  and  C_35
REMARK   15  A    between atoms: C_38  and  O_39
REMARK   16  A    between atoms: C_45  and  O_46
REMARK                            x       y       z     vdW  Elec       q    Type
REMARK                         _______ _______ _______ _____ _____    ______ ____
ROOT
ATOM      1  C   LIG A   1      -5.512   0.945 128.642  0.00  0.00    +0.341 C 
ATOM      2  O   LIG A   1      -5.268   1.867 127.578  0.00  0.00    -0.334 OA
ATOM      3  C   LIG A   1      -5.325   3.263 127.905  0.00  0.00    +0.151 C 
ATOM      4  C   LIG A   1      -6.719   3.855 127.705  0.00  0.00    +0.040 C 
ATOM      5  C   LIG A   1      -4.693   3.662 129.264  0.00  0.00    +0.186 C 
ATOM      6  C   LIG A   1      -4.983   2.665 130.387  0.00  0.00    +0.242 C 
ATOM      7  C   LIG A   1      -4.636   1.252 129.881  0.00  0.00    +0.226 C 
ENDROOT
BRANCH   5   8
ATOM      8  O   LIG A   1      -3.267   3.729 129.111  0.00  0.00    -0.386 OA
ATOM      9  H   LIG A   1      -3.052   4.571 128.673  0.00  0.00    +0.210 HD
ENDBRANCH   5   8
BRANCH   7  10
ATOM     10  O   LIG A   1      -4.805   0.314 130.960  0.00  0.00    -0.382 OA
ATOM     11  H   LIG A   1      -3.986  -0.203 131.049  0.00  0.00    +0.210 HD
ENDBRANCH   7  10
BRANCH   1  12
ATOM     12  O   LIG A   1      -5.208  -0.403 128.211  0.00  0.00    -0.453 OA
BRANCH  12  16
ATOM     13  C   LIG A   1      -7.300  -1.869 123.900  0.00  0.00    +0.135 A 
ATOM     14  C   LIG A   1      -7.226  -1.856 125.303  0.00  0.00    +0.109 A 
ATOM     15  C   LIG A   1      -6.145  -1.164 125.997  0.00  0.00    +0.238 A 
ATOM     16  C   LIG A   1      -6.142  -1.145 127.495  0.00  0.00    +0.214 A 
ATOM     17  C   LIG A   1      -7.175  -1.782 128.104  0.00  0.00    +0.181 A 
ATOM     18  O   LIG A   1      -8.185  -2.478 127.436  0.00  0.00    -0.451 OA
ATOM     19  C   LIG A   1      -8.209  -2.477 126.063  0.00  0.00    +0.146 A 
ATOM     20  C   LIG A   1      -9.274  -3.117 125.418  0.00  0.00    +0.092 A 
ATOM     21  C   LIG A   1      -9.338  -3.115 124.021  0.00  0.00    +0.124 A 
ATOM     22  C   LIG A   1      -8.359  -2.494 123.258  0.00  0.00    +0.091 A 
ATOM     23  O   LIG A   1      -5.321  -0.578 125.298  0.00  0.00    -0.283 OA
BRANCH  17  24
ATOM     24  C   LIG A   1      -7.385  -1.793 129.578  0.00  0.00    +0.021 A 
ATOM     25  C   LIG A   1      -8.042  -0.734 130.229  0.00  0.00    +0.015 A 
ATOM     26  C   LIG A   1      -8.206  -0.729 131.627  0.00  0.00    +0.046 A 
ATOM     27  C   LIG A   1      -7.706  -1.782 132.383  0.00  0.00    +0.117 A 
ATOM     28  C   LIG A   1      -7.030  -2.827 131.766  0.00  0.00    +0.046 A 
ATOM     29  C   LIG A   1      -6.868  -2.831 130.371  0.00  0.00    +0.015 A 
BRANCH  27  30
ATOM     30  O   LIG A   1      -7.858  -1.832 133.739  0.00  0.00    -0.507 OA
ATOM     31  H   LIG A   1      -7.838  -2.759 134.028  0.00  0.00    +0.292 HD
ENDBRANCH  27  30
ENDBRANCH  17  24
BRANCH  13  32
ATOM     32  O   LIG A   1      -6.371  -1.281 123.083  0.00  0.00    -0.506 OA
ATOM     33  H   LIG A   1      -6.354  -1.756 122.223  0.00  0.00    +0.292 HD
ENDBRANCH  13  32
BRANCH  21  34
ATOM     34  O   LIG A   1     -10.360  -3.715 123.345  0.00  0.00    -0.506 OA
ATOM     35  H   LIG A   1     -11.008  -3.045 123.075  0.00  0.00    +0.292 HD
ENDBRANCH  21  34
ENDBRANCH  12  16
ENDBRANCH   1  12
BRANCH   6  36
ATOM     36  O   LIG A   1      -6.363   2.711 130.753  0.00  0.00    -0.452 OA
BRANCH  36  37
ATOM     37  C   LIG A   1      -6.763   3.623 131.674  0.00  0.00    +0.340 C 
ATOM     38  O   LIG A   1      -6.225   3.841 132.723  0.00  0.00    -0.245 OA
BRANCH  37  39
ATOM     39  C   LIG A   1      -7.990   4.355 131.175  0.00  0.00    +0.066 A 
ATOM     40  C   LIG A   1      -9.166   3.631 130.987  0.00  0.00    +0.064 A 
ATOM     41  C   LIG A   1     -10.312   4.271 130.466  0.00  0.00    +0.163 A 
ATOM     42  C   LIG A   1     -10.265   5.624 130.109  0.00  0.00    +0.203 A 
ATOM     43  C   LIG A   1      -9.073   6.325 130.340  0.00  0.00    +0.163 A 
ATOM     44  C   LIG A   1      -7.954   5.710 130.885  0.00  0.00    +0.064 A 
BRANCH  41  45
ATOM     45  O   LIG A   1     -11.457   3.540 130.317  0.00  0.00    -0.503 OA
ATOM     46  H   LIG A   1     -11.254   2.591 130.351  0.00  0.00    +0.292 HD
ENDBRANCH  41  45
BRANCH  42  47
ATOM     47  O   LIG A   1     -11.275   6.378 129.569  0.00  0.00    -0.488 OA
ATOM     48  C   LIG A   1     -12.227   6.906 130.488  0.00  0.00    +0.277 C 
ENDBRANCH  42  47
BRANCH  43  49
ATOM     49  O   LIG A   1      -8.928   7.637 129.977  0.00  0.00    -0.503 OA
ATOM     50  H   LIG A   1      -8.143   7.671 129.392  0.00  0.00    +0.292 HD
ENDBRANCH  43  49
ENDBRANCH  37  39
ENDBRANCH  36  37
ENDBRANCH   6  36
TORSDOF 14
ENDMDL
MODEL 8
REMARK VINA RESULT:      -8.8      4.310      6.896
REMARK  Name = NuBBE_119
REMARK  16 active torsions:
REMARK  status: ('A' for Active; 'I' for Inactive)
REMARK    1  A    between atoms: O_1  and  C_2
REMARK    2  A    between atoms: C_5  and  O_6
REMARK    3  A    between atoms: O_6  and  C_7
REMARK    4  A    between atoms: C_10  and  C_12
REMARK    5  A    between atoms: C_13  and  O_15
REMARK    6  A    between atoms: C_16  and  O_18
REMARK    7  A    between atoms: O_18  and  C_19
REMARK    8  A    between atoms: C_19  and  C_20
REMARK    9  A    between atoms: C_22  and  O_23
REMARK   10  A    between atoms: C_24  and  O_25
REMARK   11  A    between atoms: O_25  and  C_26
REMARK   12  A    between atoms: C_27  and  O_28
REMARK   13  A    between atoms: C_31  and  O_33
REMARK   14  A    between atoms: C_34  and  C_35
REMARK   15  A    between atoms: C_38  and  O_39
REMARK   16  A    between atoms: C_45  and  O_46
REMARK                            x       y       z     vdW  Elec       q    Type
REMARK                         _______ _______ _______ _____ _____    ______ ____
ROOT
ATOM      1  C   LIG A   1      -6.431   1.409 130.556  0.00  0.00    +0.341 C 
ATOM      2  O   LIG A   1      -6.456   1.174 131.964  0.00  0.00    -0.334 OA
ATOM      3  C   LIG A   1      -6.349  -0.191 132.395  0.00  0.00    +0.151 C 
ATOM      4  C   LIG A   1      -7.712  -0.864 132.555  0.00  0.00    +0.040 C 
ATOM      5  C   LIG A   1      -5.337  -1.067 131.612  0.00  0.00    +0.186 C 
ATOM      6  C   LIG A   1      -5.342  -0.804 130.104  0.00  0.00    +0.242 C 
ATOM      7  C   LIG A   1      -5.224   0.715 129.879  0.00  0.00    +0.226 C 
ENDROOT
BRANCH   5   8
ATOM      8  O   LIG A   1      -4.012  -0.784 132.089  0.00  0.00    -0.386 OA
ATOM      9  H   LIG A   1      -3.416  -0.763 131.320  0.00  0.00    +0.210 HD
ENDBRANCH   5   8
BRANCH   7  10
ATOM     10  O   LIG A   1      -5.124   0.971 128.465  0.00  0.00    -0.382 OA
ATOM     11  H   LIG A   1      -6.023   1.002 128.094  0.00  0.00    +0.210 HD
ENDBRANCH   7  10
BRANCH   1  12
ATOM     12  O   LIG A   1      -6.329   2.828 130.290  0.00  0.00    -0.453 OA
BRANCH  12  16
ATOM     13  C   LIG A   1      -9.824   5.684 132.467  0.00  0.00    +0.135 A 
ATOM     14  C   LIG A   1      -9.266   5.040 131.351  0.00  0.00    +0.109 A 
ATOM     15  C   LIG A   1      -7.996   4.329 131.444  0.00  0.00    +0.238 A 
ATOM     16  C   LIG A   1      -7.470   3.621 130.232  0.00  0.00    +0.214 A 
ATOM     17  C   LIG A   1      -8.241   3.693 129.116  0.00  0.00    +0.181 A 
ATOM     18  O   LIG A   1      -9.436   4.409 129.021  0.00  0.00    -0.451 OA
ATOM     19  C   LIG A   1      -9.937   5.037 130.135  0.00  0.00    +0.146 A 
ATOM     20  C   LIG A   1     -11.174   5.684 130.032  0.00  0.00    +0.092 A 
ATOM     21  C   LIG A   1     -11.720   6.315 131.154  0.00  0.00    +0.124 A 
ATOM     22  C   LIG A   1     -11.054   6.318 132.371  0.00  0.00    +0.091 A 
ATOM     23  O   LIG A   1      -7.453   4.302 132.547  0.00  0.00    -0.283 OA
BRANCH  17  24
ATOM     24  C   LIG A   1      -7.926   2.981 127.847  0.00  0.00    +0.021 A 
ATOM     25  C   LIG A   1      -8.461   1.712 127.570  0.00  0.00    +0.015 A 
ATOM     26  C   LIG A   1      -8.131   1.025 126.387  0.00  0.00    +0.046 A 
ATOM     27  C   LIG A   1      -7.256   1.604 125.476  0.00  0.00    +0.117 A 
ATOM     28  C   LIG A   1      -6.693   2.846 125.739  0.00  0.00    +0.046 A 
ATOM     29  C   LIG A   1      -7.024   3.531 126.920  0.00  0.00    +0.015 A 
BRANCH  27  30
ATOM     30  O   LIG A   1      -6.921   0.986 124.305  0.00  0.00    -0.507 OA
ATOM     31  H   LIG A   1      -7.055   1.605 123.568  0.00  0.00    +0.292 HD
ENDBRANCH  27  30
ENDBRANCH  17  24
BRANCH  13  32
ATOM     32  O   LIG A   1      -9.224   5.731 133.698  0.00  0.00    -0.506 OA
ATOM     33  H   LIG A   1      -9.179   6.666 133.997  0.00  0.00    +0.292 HD
ENDBRANCH  13  32
BRANCH  21  34
ATOM     34  O   LIG A   1     -12.927   6.950 131.108  0.00  0.00    -0.506 OA
ATOM     35  H   LIG A   1     -13.422   6.763 131.922  0.00  0.00    +0.292 HD
ENDBRANCH  21  34
ENDBRANCH  12  16
ENDBRANCH   1  12
BRANCH   6  36
ATOM     36  O   LIG A   1      -6.556  -1.276 129.518  0.00  0.00    -0.452 OA
BRANCH  36  37
ATOM     37  C   LIG A   1      -6.579  -2.522 128.981  0.00  0.00    +0.340 C 
ATOM     38  O   LIG A   1      -6.294  -3.536 129.553  0.00  0.00    -0.245 OA
BRANCH  37  39
ATOM     39  C   LIG A   1      -7.042  -2.455 127.542  0.00  0.00    +0.066 A 
ATOM     40  C   LIG A   1      -8.375  -2.745 127.258  0.00  0.00    +0.064 A 
ATOM     41  C   LIG A   1      -8.825  -2.750 125.919  0.00  0.00    +0.163 A 
ATOM     42  C   LIG A   1      -7.932  -2.493 124.872  0.00  0.00    +0.203 A 
ATOM     43  C   LIG A   1      -6.605  -2.178 125.200  0.00  0.00    +0.163 A 
ATOM     44  C   LIG A   1      -6.166  -2.136 126.516  0.00  0.00    +0.064 A 
BRANCH  41  45
ATOM     45  O   LIG A   1     -10.144  -3.013 125.674  0.00  0.00    -0.503 OA
ATOM     46  H   LIG A   1     -10.546  -3.444 126.446  0.00  0.00    +0.292 HD
ENDBRANCH  41  45
BRANCH  42  47
ATOM     47  O   LIG A   1      -8.204  -2.488 123.528  0.00  0.00    -0.488 OA
ATOM     48  C   LIG A   1      -8.954  -1.378 123.042  0.00  0.00    +0.277 C 
ENDBRANCH  42  47
BRANCH  43  49
ATOM     49  O   LIG A   1      -5.659  -1.959 124.236  0.00  0.00    -0.503 OA
ATOM     50  H   LIG A   1      -4.839  -1.709 124.713  0.00  0.00    +0.292 HD
ENDBRANCH  43  49
ENDBRANCH  37  39
ENDBRANCH  36  37
ENDBRANCH   6  36
TORSDOF 14
ENDMDL
MODEL 9
REMARK VINA RESULT:      -8.8      2.204      7.086
REMARK  Name = NuBBE_119
REMARK  16 active torsions:
REMARK  status: ('A' for Active; 'I' for Inactive)
REMARK    1  A    between atoms: O_1  and  C_2
REMARK    2  A    between atoms: C_5  and  O_6
REMARK    3  A    between atoms: O_6  and  C_7
REMARK    4  A    between atoms: C_10  and  C_12
REMARK    5  A    between atoms: C_13  and  O_15
REMARK    6  A    between atoms: C_16  and  O_18
REMARK    7  A    between atoms: O_18  and  C_19
REMARK    8  A    between atoms: C_19  and  C_20
REMARK    9  A    between atoms: C_22  and  O_23
REMARK   10  A    between atoms: C_24  and  O_25
REMARK   11  A    between atoms: O_25  and  C_26
REMARK   12  A    between atoms: C_27  and  O_28
REMARK   13  A    between atoms: C_31  and  O_33
REMARK   14  A    between atoms: C_34  and  C_35
REMARK   15  A    between atoms: C_38  and  O_39
REMARK   16  A    between atoms: C_45  and  O_46
REMARK                            x       y       z     vdW  Elec       q    Type
REMARK                         _______ _______ _______ _____ _____    ______ ____
ROOT
ATOM      1  C   LIG A   1      -6.735   2.999 127.168  0.00  0.00    +0.341 C 
ATOM      2  O   LIG A   1      -6.083   4.254 126.967  0.00  0.00    -0.334 OA
ATOM      3  C   LIG A   1      -6.216   4.852 125.669  0.00  0.00    +0.151 C 
ATOM      4  C   LIG A   1      -5.089   4.448 124.720  0.00  0.00    +0.040 C 
ATOM      5  C   LIG A   1      -7.619   4.740 125.017  0.00  0.00    +0.186 C 
ATOM      6  C   LIG A   1      -8.286   3.381 125.236  0.00  0.00    +0.242 C 
ATOM      7  C   LIG A   1      -8.222   3.048 126.739  0.00  0.00    +0.226 C 
ENDROOT
BRANCH   5   8
ATOM      8  O   LIG A   1      -8.479   5.735 125.594  0.00  0.00    -0.386 OA
ATOM      9  H   LIG A   1      -8.105   6.609 125.388  0.00  0.00    +0.210 HD
ENDBRANCH   5   8
BRANCH   7  10
ATOM     10  O   LIG A   1      -8.936   1.820 126.976  0.00  0.00    -0.382 OA
ATOM     11  H   LIG A   1      -9.542   1.957 127.726  0.00  0.00    +0.210 HD
ENDBRANCH   7  10
BRANCH   1  12
ATOM     12  O   LIG A   1      -6.693   2.635 128.569  0.00  0.00    -0.453 OA
BRANCH  12  16
ATOM     13  C   LIG A   1      -6.288  -2.059 130.275  0.00  0.00    +0.135 A 
ATOM     14  C   LIG A   1      -5.736  -0.822 129.901  0.00  0.00    +0.109 A 
ATOM     15  C   LIG A   1      -6.567   0.236 129.335  0.00  0.00    +0.238 A 
ATOM     16  C   LIG A   1      -5.934   1.551 128.996  0.00  0.00    +0.214 A 
ATOM     17  C   LIG A   1      -4.605   1.660 129.256  0.00  0.00    +0.181 A 
ATOM     18  O   LIG A   1      -3.807   0.631 129.759  0.00  0.00    -0.451 OA
ATOM     19  C   LIG A   1      -4.386  -0.568 130.097  0.00  0.00    +0.146 A 
ATOM     20  C   LIG A   1      -3.577  -1.557 130.670  0.00  0.00    +0.092 A 
ATOM     21  C   LIG A   1      -4.141  -2.781 131.044  0.00  0.00    +0.124 A 
ATOM     22  C   LIG A   1      -5.491  -3.038 130.851  0.00  0.00    +0.091 A 
ATOM     23  O   LIG A   1      -7.768   0.001 129.224  0.00  0.00    -0.283 OA
BRANCH  17  24
ATOM     24  C   LIG A   1      -3.827   2.915 129.068  0.00  0.00    +0.021 A 
ATOM     25  C   LIG A   1      -3.824   3.926 130.045  0.00  0.00    +0.015 A 
ATOM     26  C   LIG A   1      -3.119   5.127 129.848  0.00  0.00    +0.046 A 
ATOM     27  C   LIG A   1      -2.416   5.327 128.666  0.00  0.00    +0.117 A 
ATOM     28  C   LIG A   1      -2.425   4.355 127.674  0.00  0.00    +0.046 A 
ATOM     29  C   LIG A   1      -3.129   3.156 127.872  0.00  0.00    +0.015 A 
BRANCH  27  30
ATOM     30  O   LIG A   1      -1.700   6.467 128.437  0.00  0.00    -0.507 OA
ATOM     31  H   LIG A   1      -1.586   6.585 127.480  0.00  0.00    +0.292 HD
ENDBRANCH  27  30
ENDBRANCH  17  24
BRANCH  13  32
ATOM     32  O   LIG A   1      -7.608  -2.384 130.113  0.00  0.00    -0.506 OA
ATOM     33  H   LIG A   1      -8.036  -1.712 129.536  0.00  0.00    +0.292 HD
ENDBRANCH  13  32
BRANCH  21  34
ATOM     34  O   LIG A   1      -3.398  -3.773 131.615  0.00  0.00    -0.506 OA
ATOM     35  H   LIG A   1      -3.467  -4.579 131.079  0.00  0.00    +0.292 HD
ENDBRANCH  21  34
ENDBRANCH  12  16
ENDBRANCH   1  12
BRANCH   6  36
ATOM     36  O   LIG A   1      -7.608   2.365 124.497  0.00  0.00    -0.452 OA
BRANCH  36  37
ATOM     37  C   LIG A   1      -8.259   1.761 123.471  0.00  0.00    +0.340 C 
ATOM     38  O   LIG A   1      -8.897   2.317 122.622  0.00  0.00    -0.245 OA
BRANCH  37  39
ATOM     39  C   LIG A   1      -8.047   0.264 123.537  0.00  0.00    +0.066 A 
ATOM     40  C   LIG A   1      -9.147  -0.572 123.356  0.00  0.00    +0.064 A 
ATOM     41  C   LIG A   1      -8.994  -1.972 123.471  0.00  0.00    +0.163 A 
ATOM     42  C   LIG A   1      -7.749  -2.523 123.795  0.00  0.00    +0.203 A 
ATOM     43  C   LIG A   1      -6.660  -1.651 123.941  0.00  0.00    +0.163 A 
ATOM     44  C   LIG A   1      -6.797  -0.278 123.794  0.00  0.00    +0.064 A 
BRANCH  41  45
ATOM     45  O   LIG A   1     -10.086  -2.767 123.263  0.00  0.00    -0.503 OA
ATOM     46  H   LIG A   1     -10.886  -2.330 123.600  0.00  0.00    +0.292 HD
ENDBRANCH  41  45
BRANCH  42  47
ATOM     47  O   LIG A   1      -7.445  -3.849 123.968  0.00  0.00    -0.488 OA
ATOM     48  C   LIG A   1      -7.910  -4.450 125.173  0.00  0.00    +0.277 C 
ENDBRANCH  42  47
BRANCH  43  49
ATOM     49  O   LIG A   1      -5.420  -2.103 124.302  0.00  0.00    -0.503 OA
ATOM     50  H   LIG A   1      -5.564  -2.970 124.737  0.00  0.00    +0.292 HD
ENDBRANCH  43  49
ENDBRANCH  37  39
ENDBRANCH  36  37
ENDBRANCH   6  36
TORSDOF 14
ENDMDL
