MODEL 1
REMARK VINA RESULT:      -7.8      0.000      0.000
REMARK  Name = NuBBE_2436
REMARK  3 active torsions:
REMARK  status: ('A' for Active; 'I' for Inactive)
REMARK    1  A    between atoms: C_1  and  O_2
REMARK    2  A    between atoms: O_2  and  C_3
REMARK    3  A    between atoms: N_13  and  C_14
REMARK                            x       y       z     vdW  Elec       q    Type
REMARK                         _______ _______ _______ _____ _____    ______ ____
ROOT
ATOM      1  C   LIG A   1      -6.523   3.025 123.750  0.00  0.00    +0.128 A 
ATOM      2  C   LIG A   1      -5.771   4.117 124.214  0.00  0.00    +0.046 A 
ATOM      3  C   LIG A   1      -5.012   4.016 125.377  0.00  0.00    +0.004 A 
ATOM      4  C   LIG A   1      -4.951   2.806 126.056  0.00  0.00    +0.004 A 
ATOM      5  C   LIG A   1      -5.670   1.700 125.581  0.00  0.00    -0.034 A 
ATOM      6  C   LIG A   1      -5.520   0.362 126.270  0.00  0.00    +0.059 C 
ATOM      7  C   LIG A   1      -6.528   1.802 124.456  0.00  0.00    +0.031 A 
ATOM      8  C   LIG A   1      -7.316   0.595 124.072  0.00  0.00    +0.036 A 
ATOM      9  C   LIG A   1      -6.812  -0.699 124.395  0.00  0.00    -0.015 A 
ATOM     10  C   LIG A   1      -5.533  -0.787 125.230  0.00  0.00    +0.092 C 
ATOM     11  N   LIG A   1      -5.272  -2.123 125.829  0.00  0.00    -0.298 NA
ATOM     12  C   LIG A   1      -6.050  -2.410 127.033  0.00  0.00    +0.105 C 
ATOM     13  C   LIG A   1      -5.455  -3.161 124.801  0.00  0.00    +0.089 C 
ATOM     14  C   LIG A   1      -6.884  -3.239 124.251  0.00  0.00    +0.051 C 
ATOM     15  C   LIG A   1      -7.462  -1.880 123.946  0.00  0.00    -0.037 A 
ATOM     16  C   LIG A   1      -8.681  -1.793 123.267  0.00  0.00    +0.053 A 
ATOM     17  C   LIG A   1      -9.212  -0.540 123.062  0.00  0.00    +0.167 A 
ATOM     18  C   LIG A   1      -8.565   0.615 123.457  0.00  0.00    +0.174 A 
ATOM     19  O   LIG A   1      -9.345   1.711 123.218  0.00  0.00    -0.452 OA
ATOM     20  C   LIG A   1     -10.475   1.129 122.549  0.00  0.00    +0.466 C 
ATOM     21  O   LIG A   1     -10.422  -0.305 122.484  0.00  0.00    -0.453 OA
ENDROOT
BRANCH   1  23
ATOM     22  C   LIG A   1      -6.339   3.579 121.463  0.00  0.00    +0.277 C 
ATOM     23  O   LIG A   1      -7.145   3.079 122.525  0.00  0.00    -0.494 OA
ENDBRANCH   1  23
TORSDOF 1
ENDMDL
MODEL 2
REMARK VINA RESULT:      -7.5      7.520      9.189
REMARK  Name = NuBBE_2436
REMARK  3 active torsions:
REMARK  status: ('A' for Active; 'I' for Inactive)
REMARK    1  A    between atoms: C_1  and  O_2
REMARK    2  A    between atoms: O_2  and  C_3
REMARK    3  A    between atoms: N_13  and  C_14
REMARK                            x       y       z     vdW  Elec       q    Type
REMARK                         _______ _______ _______ _____ _____    ______ ____
ROOT
ATOM      1  C   LIG A   1     -10.691   7.099 129.160  0.00  0.00    +0.128 A 
ATOM      2  C   LIG A   1     -11.949   7.712 129.279  0.00  0.00    +0.046 A 
ATOM      3  C   LIG A   1     -12.678   7.617 130.461  0.00  0.00    +0.004 A 
ATOM      4  C   LIG A   1     -12.133   6.957 131.555  0.00  0.00    +0.004 A 
ATOM      5  C   LIG A   1     -10.863   6.372 131.457  0.00  0.00    -0.034 A 
ATOM      6  C   LIG A   1     -10.237   5.742 132.681  0.00  0.00    +0.059 C 
ATOM      7  C   LIG A   1     -10.141   6.368 130.236  0.00  0.00    +0.031 A 
ATOM      8  C   LIG A   1      -8.834   5.650 130.205  0.00  0.00    +0.036 A 
ATOM      9  C   LIG A   1      -8.083   5.515 131.408  0.00  0.00    -0.015 A 
ATOM     10  C   LIG A   1      -8.712   6.015 132.711  0.00  0.00    +0.092 C 
ATOM     11  N   LIG A   1      -8.052   5.523 133.949  0.00  0.00    -0.298 NA
ATOM     12  C   LIG A   1      -8.413   4.157 134.327  0.00  0.00    +0.105 C 
ATOM     13  C   LIG A   1      -6.595   5.686 133.822  0.00  0.00    +0.089 C 
ATOM     14  C   LIG A   1      -5.979   4.864 132.685  0.00  0.00    +0.051 C 
ATOM     15  C   LIG A   1      -6.779   4.948 131.409  0.00  0.00    -0.037 A 
ATOM     16  C   LIG A   1      -6.252   4.406 130.234  0.00  0.00    +0.053 A 
ATOM     17  C   LIG A   1      -7.036   4.442 129.103  0.00  0.00    +0.167 A 
ATOM     18  C   LIG A   1      -8.286   5.031 129.084  0.00  0.00    +0.174 A 
ATOM     19  O   LIG A   1      -8.885   4.850 127.870  0.00  0.00    -0.452 OA
ATOM     20  C   LIG A   1      -7.850   4.194 127.123  0.00  0.00    +0.466 C 
ATOM     21  O   LIG A   1      -6.686   3.890 127.909  0.00  0.00    -0.453 OA
ENDROOT
BRANCH   1  23
ATOM     22  C   LIG A   1     -10.631   7.592 126.853  0.00  0.00    +0.277 C 
ATOM     23  O   LIG A   1      -9.909   7.322 128.051  0.00  0.00    -0.494 OA
ENDBRANCH   1  23
TORSDOF 1
ENDMDL
MODEL 3
REMARK VINA RESULT:      -7.3      2.346      4.498
REMARK  Name = NuBBE_2436
REMARK  3 active torsions:
REMARK  status: ('A' for Active; 'I' for Inactive)
REMARK    1  A    between atoms: C_1  and  O_2
REMARK    2  A    between atoms: O_2  and  C_3
REMARK    3  A    between atoms: N_13  and  C_14
REMARK                            x       y       z     vdW  Elec       q    Type
REMARK                         _______ _______ _______ _____ _____    ______ ____
ROOT
ATOM      1  C   LIG A   1      -7.116  -0.898 123.564  0.00  0.00    +0.128 A 
ATOM      2  C   LIG A   1      -6.550  -1.782 122.631  0.00  0.00    +0.046 A 
ATOM      3  C   LIG A   1      -5.569  -2.693 123.017  0.00  0.00    +0.004 A 
ATOM      4  C   LIG A   1      -5.186  -2.767 124.350  0.00  0.00    +0.004 A 
ATOM      5  C   LIG A   1      -5.772  -1.914 125.295  0.00  0.00    -0.034 A 
ATOM      6  C   LIG A   1      -5.421  -2.070 126.758  0.00  0.00    +0.059 C 
ATOM      7  C   LIG A   1      -6.700  -0.911 124.914  0.00  0.00    +0.031 A 
ATOM      8  C   LIG A   1      -7.207   0.005 125.975  0.00  0.00    +0.036 A 
ATOM      9  C   LIG A   1      -7.255  -0.450 127.325  0.00  0.00    -0.015 A 
ATOM     10  C   LIG A   1      -6.669  -1.828 127.644  0.00  0.00    +0.092 C 
ATOM     11  N   LIG A   1      -6.422  -2.079 129.088  0.00  0.00    -0.298 NA
ATOM     12  C   LIG A   1      -5.202  -1.466 129.611  0.00  0.00    +0.105 C 
ATOM     13  C   LIG A   1      -7.609  -1.679 129.862  0.00  0.00    +0.089 C 
ATOM     14  C   LIG A   1      -7.932  -0.184 129.765  0.00  0.00    +0.051 C 
ATOM     15  C   LIG A   1      -7.842   0.338 128.353  0.00  0.00    -0.037 A 
ATOM     16  C   LIG A   1      -8.287   1.633 128.073  0.00  0.00    +0.053 A 
ATOM     17  C   LIG A   1      -8.130   2.101 126.788  0.00  0.00    +0.167 A 
ATOM     18  C   LIG A   1      -7.601   1.326 125.775  0.00  0.00    +0.174 A 
ATOM     19  O   LIG A   1      -7.473   2.055 124.627  0.00  0.00    -0.452 OA
ATOM     20  C   LIG A   1      -8.066   3.307 125.003  0.00  0.00    +0.466 C 
ATOM     21  O   LIG A   1      -8.448   3.363 126.388  0.00  0.00    -0.453 OA
ENDROOT
BRANCH   1  23
ATOM     22  C   LIG A   1      -9.366  -0.824 122.856  0.00  0.00    +0.277 C 
ATOM     23  O   LIG A   1      -8.188  -0.110 123.215  0.00  0.00    -0.494 OA
ENDBRANCH   1  23
TORSDOF 1
ENDMDL
MODEL 4
REMARK VINA RESULT:      -7.2      2.911      5.423
REMARK  Name = NuBBE_2436
REMARK  3 active torsions:
REMARK  status: ('A' for Active; 'I' for Inactive)
REMARK    1  A    between atoms: C_1  and  O_2
REMARK    2  A    between atoms: O_2  and  C_3
REMARK    3  A    between atoms: N_13  and  C_14
REMARK                            x       y       z     vdW  Elec       q    Type
REMARK                         _______ _______ _______ _____ _____    ______ ____
ROOT
ATOM      1  C   LIG A   1      -7.326  -1.114 129.130  0.00  0.00    +0.128 A 
ATOM      2  C   LIG A   1      -7.570  -2.073 130.127  0.00  0.00    +0.046 A 
ATOM      3  C   LIG A   1      -8.185  -3.283 129.816  0.00  0.00    +0.004 A 
ATOM      4  C   LIG A   1      -8.510  -3.571 128.497  0.00  0.00    +0.004 A 
ATOM      5  C   LIG A   1      -8.238  -2.635 127.490  0.00  0.00    -0.034 A 
ATOM      6  C   LIG A   1      -8.505  -2.997 126.045  0.00  0.00    +0.059 C 
ATOM      7  C   LIG A   1      -7.704  -1.356 127.790  0.00  0.00    +0.031 A 
ATOM      8  C   LIG A   1      -7.525  -0.395 126.664  0.00  0.00    +0.036 A 
ATOM      9  C   LIG A   1      -7.316  -0.897 125.346  0.00  0.00    -0.015 A 
ATOM     10  C   LIG A   1      -7.403  -2.409 125.127  0.00  0.00    +0.092 C 
ATOM     11  N   LIG A   1      -7.540  -2.825 123.706  0.00  0.00    -0.298 NA
ATOM     12  C   LIG A   1      -8.891  -2.693 123.163  0.00  0.00    +0.105 C 
ATOM     13  C   LIG A   1      -6.551  -2.102 122.890  0.00  0.00    +0.089 C 
ATOM     14  C   LIG A   1      -6.749  -0.582 122.884  0.00  0.00    +0.051 C 
ATOM     15  C   LIG A   1      -7.020  -0.028 124.260  0.00  0.00    -0.037 A 
ATOM     16  C   LIG A   1      -7.038   1.357 124.448  0.00  0.00    +0.053 A 
ATOM     17  C   LIG A   1      -7.353   1.830 125.702  0.00  0.00    +0.167 A 
ATOM     18  C   LIG A   1      -7.599   0.991 126.772  0.00  0.00    +0.174 A 
ATOM     19  O   LIG A   1      -7.974   1.710 127.872  0.00  0.00    -0.452 OA
ATOM     20  C   LIG A   1      -7.832   3.060 127.405  0.00  0.00    +0.466 C 
ATOM     21  O   LIG A   1      -7.481   3.148 126.015  0.00  0.00    -0.453 OA
ENDROOT
BRANCH   1  23
ATOM     22  C   LIG A   1      -5.191  -0.223 129.598  0.00  0.00    +0.277 C 
ATOM     23  O   LIG A   1      -6.584   0.009 129.410  0.00  0.00    -0.494 OA
ENDBRANCH   1  23
TORSDOF 1
ENDMDL
MODEL 5
REMARK VINA RESULT:      -7.1      8.130     10.296
REMARK  Name = NuBBE_2436
REMARK  3 active torsions:
REMARK  status: ('A' for Active; 'I' for Inactive)
REMARK    1  A    between atoms: C_1  and  O_2
REMARK    2  A    between atoms: O_2  and  C_3
REMARK    3  A    between atoms: N_13  and  C_14
REMARK                            x       y       z     vdW  Elec       q    Type
REMARK                         _______ _______ _______ _____ _____    ______ ____
ROOT
ATOM      1  C   LIG A   1      -4.746   6.077 129.904  0.00  0.00    +0.128 A 
ATOM      2  C   LIG A   1      -3.502   6.247 129.273  0.00  0.00    +0.046 A 
ATOM      3  C   LIG A   1      -2.383   6.642 130.001  0.00  0.00    +0.004 A 
ATOM      4  C   LIG A   1      -2.482   6.815 131.375  0.00  0.00    +0.004 A 
ATOM      5  C   LIG A   1      -3.710   6.613 132.019  0.00  0.00    -0.034 A 
ATOM      6  C   LIG A   1      -3.785   6.708 133.527  0.00  0.00    +0.059 C 
ATOM      7  C   LIG A   1      -4.888   6.308 131.291  0.00  0.00    +0.031 A 
ATOM      8  C   LIG A   1      -6.165   6.193 132.051  0.00  0.00    +0.036 A 
ATOM      9  C   LIG A   1      -6.128   5.808 133.423  0.00  0.00    -0.015 A 
ATOM     10  C   LIG A   1      -4.760   5.642 134.089  0.00  0.00    +0.092 C 
ATOM     11  N   LIG A   1      -4.793   5.603 135.575  0.00  0.00    -0.298 NA
ATOM     12  C   LIG A   1      -4.919   6.912 136.215  0.00  0.00    +0.105 C 
ATOM     13  C   LIG A   1      -5.849   4.677 136.014  0.00  0.00    +0.089 C 
ATOM     14  C   LIG A   1      -7.259   5.106 135.593  0.00  0.00    +0.051 C 
ATOM     15  C   LIG A   1      -7.320   5.565 134.158  0.00  0.00    -0.037 A 
ATOM     16  C   LIG A   1      -8.565   5.811 133.572  0.00  0.00    +0.053 A 
ATOM     17  C   LIG A   1      -8.582   6.292 132.282  0.00  0.00    +0.167 A 
ATOM     18  C   LIG A   1      -7.429   6.488 131.547  0.00  0.00    +0.174 A 
ATOM     19  O   LIG A   1      -7.719   7.053 130.338  0.00  0.00    -0.452 OA
ATOM     20  C   LIG A   1      -9.154   7.086 130.362  0.00  0.00    +0.466 C 
ATOM     21  O   LIG A   1      -9.712   6.645 131.611  0.00  0.00    -0.453 OA
ENDROOT
BRANCH   1  23
ATOM     22  C   LIG A   1      -5.673   4.164 128.879  0.00  0.00    +0.277 C 
ATOM     23  O   LIG A   1      -5.809   5.542 129.216  0.00  0.00    -0.494 OA
ENDBRANCH   1  23
TORSDOF 1
ENDMDL
MODEL 6
REMARK VINA RESULT:      -7.1      3.296      5.615
REMARK  Name = NuBBE_2436
REMARK  3 active torsions:
REMARK  status: ('A' for Active; 'I' for Inactive)
REMARK    1  A    between atoms: C_1  and  O_2
REMARK    2  A    between atoms: O_2  and  C_3
REMARK    3  A    between atoms: N_13  and  C_14
REMARK                            x       y       z     vdW  Elec       q    Type
REMARK                         _______ _______ _______ _____ _____    ______ ____
ROOT
ATOM      1  C   LIG A   1      -7.616  -2.024 128.227  0.00  0.00    +0.128 A 
ATOM      2  C   LIG A   1      -7.804  -2.015 129.619  0.00  0.00    +0.046 A 
ATOM      3  C   LIG A   1      -7.926  -0.814 130.312  0.00  0.00    +0.004 A 
ATOM      4  C   LIG A   1      -7.920   0.387 129.615  0.00  0.00    +0.004 A 
ATOM      5  C   LIG A   1      -7.770   0.386 128.222  0.00  0.00    -0.034 A 
ATOM      6  C   LIG A   1      -7.864   1.690 127.461  0.00  0.00    +0.059 C 
ATOM      7  C   LIG A   1      -7.544  -0.815 127.501  0.00  0.00    +0.031 A 
ATOM      8  C   LIG A   1      -7.312  -0.710 126.032  0.00  0.00    +0.036 A 
ATOM      9  C   LIG A   1      -7.871   0.387 125.314  0.00  0.00    -0.015 A 
ATOM     10  C   LIG A   1      -8.591   1.478 126.109  0.00  0.00    +0.092 C 
ATOM     11  N   LIG A   1      -8.821   2.743 125.362  0.00  0.00    -0.298 NA
ATOM     12  C   LIG A   1      -7.651   3.615 125.270  0.00  0.00    +0.105 C 
ATOM     13  C   LIG A   1      -9.374   2.430 124.035  0.00  0.00    +0.089 C 
ATOM     14  C   LIG A   1      -8.428   1.609 123.151  0.00  0.00    +0.051 C 
ATOM     15  C   LIG A   1      -7.784   0.468 123.897  0.00  0.00    -0.037 A 
ATOM     16  C   LIG A   1      -7.042  -0.481 123.187  0.00  0.00    +0.053 A 
ATOM     17  C   LIG A   1      -6.413  -1.471 123.906  0.00  0.00    +0.167 A 
ATOM     18  C   LIG A   1      -6.530  -1.582 125.279  0.00  0.00    +0.174 A 
ATOM     19  O   LIG A   1      -5.738  -2.591 125.751  0.00  0.00    -0.452 OA
ATOM     20  C   LIG A   1      -5.213  -3.147 124.536  0.00  0.00    +0.466 C 
ATOM     21  O   LIG A   1      -5.600  -2.417 123.361  0.00  0.00    -0.453 OA
ENDROOT
BRANCH   1  23
ATOM     22  C   LIG A   1      -8.949  -3.763 127.347  0.00  0.00    +0.277 C 
ATOM     23  O   LIG A   1      -7.649  -3.208 127.528  0.00  0.00    -0.494 OA
ENDBRANCH   1  23
TORSDOF 1
ENDMDL
MODEL 7
REMARK VINA RESULT:      -6.9      3.327      4.612
REMARK  Name = NuBBE_2436
REMARK  3 active torsions:
REMARK  status: ('A' for Active; 'I' for Inactive)
REMARK    1  A    between atoms: C_1  and  O_2
REMARK    2  A    between atoms: O_2  and  C_3
REMARK    3  A    between atoms: N_13  and  C_14
REMARK                            x       y       z     vdW  Elec       q    Type
REMARK                         _______ _______ _______ _____ _____    ______ ____
ROOT
ATOM      1  C   LIG A   1      -7.900   1.887 127.546  0.00  0.00    +0.128 A 
ATOM      2  C   LIG A   1      -7.566   3.239 127.362  0.00  0.00    +0.046 A 
ATOM      3  C   LIG A   1      -6.933   3.664 126.197  0.00  0.00    +0.004 A 
ATOM      4  C   LIG A   1      -6.680   2.753 125.180  0.00  0.00    +0.004 A 
ATOM      5  C   LIG A   1      -7.043   1.408 125.340  0.00  0.00    -0.034 A 
ATOM      6  C   LIG A   1      -6.853   0.444 124.189  0.00  0.00    +0.059 C 
ATOM      7  C   LIG A   1      -7.597   0.928 126.554  0.00  0.00    +0.031 A 
ATOM      8  C   LIG A   1      -7.875  -0.533 126.662  0.00  0.00    +0.036 A 
ATOM      9  C   LIG A   1      -8.147  -1.280 125.479  0.00  0.00    -0.015 A 
ATOM     10  C   LIG A   1      -8.027  -0.567 124.131  0.00  0.00    +0.092 C 
ATOM     11  N   LIG A   1      -7.964  -1.471 122.952  0.00  0.00    -0.298 NA
ATOM     12  C   LIG A   1      -6.653  -2.078 122.722  0.00  0.00    +0.105 C 
ATOM     13  C   LIG A   1      -9.023  -2.487 123.061  0.00  0.00    +0.089 C 
ATOM     14  C   LIG A   1      -8.874  -3.405 124.280  0.00  0.00    +0.051 C 
ATOM     15  C   LIG A   1      -8.537  -2.646 125.539  0.00  0.00    -0.037 A 
ATOM     16  C   LIG A   1      -8.551  -3.316 126.766  0.00  0.00    +0.053 A 
ATOM     17  C   LIG A   1      -8.175  -2.611 127.886  0.00  0.00    +0.167 A 
ATOM     18  C   LIG A   1      -7.838  -1.271 127.842  0.00  0.00    +0.174 A 
ATOM     19  O   LIG A   1      -7.419  -0.839 129.068  0.00  0.00    -0.452 OA
ATOM     20  C   LIG A   1      -7.631  -2.003 129.881  0.00  0.00    +0.466 C 
ATOM     21  O   LIG A   1      -8.070  -3.149 129.132  0.00  0.00    -0.453 OA
ENDROOT
BRANCH   1  23
ATOM     22  C   LIG A   1      -8.822   2.491 129.634  0.00  0.00    +0.277 C 
ATOM     23  O   LIG A   1      -8.658   1.498 128.626  0.00  0.00    -0.494 OA
ENDBRANCH   1  23
TORSDOF 1
ENDMDL
MODEL 8
REMARK VINA RESULT:      -6.8      3.507      6.291
REMARK  Name = NuBBE_2436
REMARK  3 active torsions:
REMARK  status: ('A' for Active; 'I' for Inactive)
REMARK    1  A    between atoms: C_1  and  O_2
REMARK    2  A    between atoms: O_2  and  C_3
REMARK    3  A    between atoms: N_13  and  C_14
REMARK                            x       y       z     vdW  Elec       q    Type
REMARK                         _______ _______ _______ _____ _____    ______ ____
ROOT
ATOM      1  C   LIG A   1      -7.755  -1.962 128.810  0.00  0.00    +0.128 A 
ATOM      2  C   LIG A   1      -8.016  -3.328 129.014  0.00  0.00    +0.046 A 
ATOM      3  C   LIG A   1      -8.660  -4.084 128.038  0.00  0.00    +0.004 A 
ATOM      4  C   LIG A   1      -8.998  -3.497 126.826  0.00  0.00    +0.004 A 
ATOM      5  C   LIG A   1      -8.710  -2.145 126.599  0.00  0.00    -0.034 A 
ATOM      6  C   LIG A   1      -8.992  -1.541 125.241  0.00  0.00    +0.059 C 
ATOM      7  C   LIG A   1      -8.145  -1.326 127.610  0.00  0.00    +0.031 A 
ATOM      8  C   LIG A   1      -7.950   0.120 127.306  0.00  0.00    +0.036 A 
ATOM      9  C   LIG A   1      -7.760   0.529 125.954  0.00  0.00    -0.015 A 
ATOM     10  C   LIG A   1      -7.882  -0.530 124.856  0.00  0.00    +0.092 C 
ATOM     11  N   LIG A   1      -8.035   0.015 123.481  0.00  0.00    -0.298 NA
ATOM     12  C   LIG A   1      -9.386   0.472 123.156  0.00  0.00    +0.105 C 
ATOM     13  C   LIG A   1      -7.034   1.071 123.261  0.00  0.00    +0.089 C 
ATOM     14  C   LIG A   1      -7.198   2.278 124.192  0.00  0.00    +0.051 C 
ATOM     15  C   LIG A   1      -7.449   1.876 125.623  0.00  0.00    -0.037 A 
ATOM     16  C   LIG A   1      -7.435   2.855 126.621  0.00  0.00    +0.053 A 
ATOM     17  C   LIG A   1      -7.733   2.465 127.907  0.00  0.00    +0.167 A 
ATOM     18  C   LIG A   1      -7.992   1.150 128.243  0.00  0.00    +0.174 A 
ATOM     19  O   LIG A   1      -8.345   1.049 129.558  0.00  0.00    -0.452 OA
ATOM     20  C   LIG A   1      -8.175   2.400 130.015  0.00  0.00    +0.466 C 
ATOM     21  O   LIG A   1      -7.829   3.317 128.964  0.00  0.00    -0.453 OA
ENDROOT
BRANCH   1  23
ATOM     22  C   LIG A   1      -5.598  -1.572 129.683  0.00  0.00    +0.277 C 
ATOM     23  O   LIG A   1      -6.987  -1.258 129.707  0.00  0.00    -0.494 OA
ENDBRANCH   1  23
TORSDOF 1
ENDMDL
MODEL 9
REMARK VINA RESULT:      -6.7      4.273      6.561
REMARK  Name = NuBBE_2436
REMARK  3 active torsions:
REMARK  status: ('A' for Active; 'I' for Inactive)
REMARK    1  A    between atoms: C_1  and  O_2
REMARK    2  A    between atoms: O_2  and  C_3
REMARK    3  A    between atoms: N_13  and  C_14
REMARK                            x       y       z     vdW  Elec       q    Type
REMARK                         _______ _______ _______ _____ _____    ______ ____
ROOT
ATOM      1  C   LIG A   1      -6.375  -0.968 131.016  0.00  0.00    +0.128 A 
ATOM      2  C   LIG A   1      -5.930  -1.943 131.924  0.00  0.00    +0.046 A 
ATOM      3  C   LIG A   1      -6.224  -3.289 131.724  0.00  0.00    +0.004 A 
ATOM      4  C   LIG A   1      -6.915  -3.681 130.585  0.00  0.00    +0.004 A 
ATOM      5  C   LIG A   1      -7.332  -2.719 129.655  0.00  0.00    -0.034 A 
ATOM      6  C   LIG A   1      -7.997  -3.163 128.371  0.00  0.00    +0.059 C 
ATOM      7  C   LIG A   1      -7.134  -1.332 129.882  0.00  0.00    +0.031 A 
ATOM      8  C   LIG A   1      -7.685  -0.378 128.877  0.00  0.00    +0.036 A 
ATOM      9  C   LIG A   1      -7.843  -0.802 127.526  0.00  0.00    -0.015 A 
ATOM     10  C   LIG A   1      -7.548  -2.266 127.189  0.00  0.00    +0.092 C 
ATOM     11  N   LIG A   1      -8.073  -2.720 125.875  0.00  0.00    -0.298 NA
ATOM     12  C   LIG A   1      -9.502  -3.032 125.867  0.00  0.00    +0.105 C 
ATOM     13  C   LIG A   1      -7.726  -1.730 124.843  0.00  0.00    +0.089 C 
ATOM     14  C   LIG A   1      -8.357  -0.352 125.074  0.00  0.00    +0.051 C 
ATOM     15  C   LIG A   1      -8.248   0.103 126.507  0.00  0.00    -0.037 A 
ATOM     16  C   LIG A   1      -8.609   1.412 126.838  0.00  0.00    +0.053 A 
ATOM     17  C   LIG A   1      -8.559   1.775 128.165  0.00  0.00    +0.167 A 
ATOM     18  C   LIG A   1      -8.125   0.914 129.155  0.00  0.00    +0.174 A 
ATOM     19  O   LIG A   1      -8.259   1.488 130.387  0.00  0.00    -0.452 OA
ATOM     20  C   LIG A   1      -8.714   2.808 130.050  0.00  0.00    +0.466 C 
ATOM     21  O   LIG A   1      -8.950   2.987 128.644  0.00  0.00    -0.453 OA
ENDROOT
BRANCH   1  23
ATOM     22  C   LIG A   1      -5.448   0.690 132.417  0.00  0.00    +0.277 C 
ATOM     23  O   LIG A   1      -5.956   0.336 131.134  0.00  0.00    -0.494 OA
ENDBRANCH   1  23
TORSDOF 1
ENDMDL
