MODEL 1
REMARK VINA RESULT:      -8.3      0.000      0.000
REMARK  Name = NuBBE_834
REMARK  10 active torsions:
REMARK  status: ('A' for Active; 'I' for Inactive)
REMARK    1  A    between atoms: C_4  and  C_28
REMARK    2  A    between atoms: C_9  and  C_10
REMARK    3  A    between atoms: C_11  and  C_12
REMARK    4  A    between atoms: C_12  and  C_14
REMARK    5  A    between atoms: C_12  and  C_15
REMARK    6  A    between atoms: C_15  and  C_16
REMARK    7  A    between atoms: C_21  and  C_22
REMARK    8  A    between atoms: C_22  and  C_23
REMARK    9  A    between atoms: C_23  and  C_24
REMARK   10  A    between atoms: C_25  and  C_26
REMARK                            x       y       z     vdW  Elec       q    Type
REMARK                         _______ _______ _______ _____ _____    ______ ____
ROOT
ATOM      1  O   LIG A   1      -3.228   3.901 134.045  0.00  0.00    -0.245 OA
ATOM      2  C   LIG A   1      -4.333   4.339 133.829  0.00  0.00    +0.345 C 
ATOM      3  O   LIG A   1      -5.403   4.057 134.618  0.00  0.00    -0.442 OA
ATOM      4  C   LIG A   1      -6.581   4.445 133.944  0.00  0.00    +0.200 C 
ATOM      5  C   LIG A   1      -6.089   5.195 132.756  0.00  0.00    +0.032 C 
ATOM      6  C   LIG A   1      -7.167   5.594 131.866  0.00  0.00    +0.027 C 
ATOM      7  C   LIG A   1      -7.311   6.834 131.364  0.00  0.00    +0.204 C 
ATOM      8  O   LIG A   1      -8.396   7.251 130.603  0.00  0.00    -0.463 OA
ATOM      9  C   LIG A   1      -9.340   6.303 130.206  0.00  0.00    +0.128 C 
ATOM     10  C   LIG A   1      -9.302   5.031 130.638  0.00  0.00    +0.056 C 
ATOM     11  C   LIG A   1      -8.297   4.656 131.627  0.00  0.00    +0.011 C 
ATOM     12  C   LIG A   1      -8.369   3.502 132.329  0.00  0.00    +0.096 C 
ATOM     13 CL   LIG A   1      -9.593   2.298 132.118  0.00  0.00    -0.079 Cl
ATOM     14  C   LIG A   1      -4.749   5.211 132.701  0.00  0.00    +0.114 C 
ATOM     15  C   LIG A   1      -7.416   5.297 134.906  0.00  0.00    +0.070 C 
ATOM     16  C   LIG A   1      -7.377   3.235 133.428  0.00  0.00    +0.222 C 
ATOM     17  O   LIG A   1      -7.228   2.107 133.893  0.00  0.00    -0.286 OA
ENDROOT
BRANCH   9  18
ATOM     18  C   LIG A   1     -10.331   6.762 129.256  0.00  0.00    +0.042 C 
ATOM     19  C   LIG A   1     -10.426   8.018 128.789  0.00  0.00    -0.020 C 
BRANCH  19  20
ATOM     20  C   LIG A   1     -11.425   8.445 127.734  0.00  0.00    +0.008 C 
ATOM     21  C   LIG A   1     -11.340   7.521 126.514  0.00  0.00    +0.012 C 
BRANCH  20  22
ATOM     22  C   LIG A   1     -12.852   8.458 128.319  0.00  0.00    +0.004 C 
ATOM     23  C   LIG A   1     -13.095   9.632 129.263  0.00  0.00    +0.004 C 
ENDBRANCH  20  22
ENDBRANCH  19  20
ENDBRANCH   9  18
BRANCH  14  24
ATOM     24  C   LIG A   1      -3.847   5.771 131.656  0.00  0.00    +0.196 C 
ATOM     25  O   LIG A   1      -3.426   5.041 130.759  0.00  0.00    -0.287 OA
BRANCH  24  26
ATOM     26  C   LIG A   1      -3.432   7.229 131.692  0.00  0.00    -0.007 C 
ATOM     27  C   LIG A   1      -3.793   8.061 130.486  0.00  0.00    +0.047 C 
ATOM     28  C   LIG A   1      -2.781   7.763 132.746  0.00  0.00    -0.023 C 
ATOM     29  C   LIG A   1      -2.180   9.130 132.825  0.00  0.00    +0.035 C 
ENDBRANCH  24  26
ENDBRANCH  14  24
TORSDOF 5
ENDMDL
MODEL 2
REMARK VINA RESULT:      -8.1      7.968     11.243
REMARK  Name = NuBBE_834
REMARK  10 active torsions:
REMARK  status: ('A' for Active; 'I' for Inactive)
REMARK    1  A    between atoms: C_4  and  C_28
REMARK    2  A    between atoms: C_9  and  C_10
REMARK    3  A    between atoms: C_11  and  C_12
REMARK    4  A    between atoms: C_12  and  C_14
REMARK    5  A    between atoms: C_12  and  C_15
REMARK    6  A    between atoms: C_15  and  C_16
REMARK    7  A    between atoms: C_21  and  C_22
REMARK    8  A    between atoms: C_22  and  C_23
REMARK    9  A    between atoms: C_23  and  C_24
REMARK   10  A    between atoms: C_25  and  C_26
REMARK                            x       y       z     vdW  Elec       q    Type
REMARK                         _______ _______ _______ _____ _____    ______ ____
ROOT
ATOM      1  O   LIG A   1      -8.966   2.904 121.804  0.00  0.00    -0.245 OA
ATOM      2  C   LIG A   1      -8.674   2.677 122.953  0.00  0.00    +0.345 C 
ATOM      3  O   LIG A   1      -8.191   3.631 123.792  0.00  0.00    -0.442 OA
ATOM      4  C   LIG A   1      -7.662   3.002 124.940  0.00  0.00    +0.200 C 
ATOM      5  C   LIG A   1      -8.079   1.580 124.801  0.00  0.00    +0.032 C 
ATOM      6  C   LIG A   1      -7.534   0.735 125.850  0.00  0.00    +0.027 C 
ATOM      7  C   LIG A   1      -8.259  -0.145 126.564  0.00  0.00    +0.204 C 
ATOM      8  O   LIG A   1      -7.768  -0.875 127.639  0.00  0.00    -0.463 OA
ATOM      9  C   LIG A   1      -6.405  -0.810 127.929  0.00  0.00    +0.128 C 
ATOM     10  C   LIG A   1      -5.576   0.028 127.282  0.00  0.00    +0.056 C 
ATOM     11  C   LIG A   1      -6.139   0.965 126.317  0.00  0.00    +0.011 C 
ATOM     12  C   LIG A   1      -5.444   2.027 125.848  0.00  0.00    +0.096 C 
ATOM     13 CL   LIG A   1      -3.803   2.385 126.261  0.00  0.00    -0.079 Cl
ATOM     14  C   LIG A   1      -8.751   1.371 123.658  0.00  0.00    +0.114 C 
ATOM     15  C   LIG A   1      -8.249   3.697 126.172  0.00  0.00    +0.070 C 
ATOM     16  C   LIG A   1      -6.124   3.030 124.958  0.00  0.00    +0.222 C 
ATOM     17  O   LIG A   1      -5.476   3.837 124.293  0.00  0.00    -0.286 OA
ENDROOT
BRANCH   9  18
ATOM     18  C   LIG A   1      -5.928  -1.741 128.929  0.00  0.00    +0.042 C 
ATOM     19  C   LIG A   1      -5.078  -2.754 128.695  0.00  0.00    -0.020 C 
BRANCH  19  20
ATOM     20  C   LIG A   1      -4.537  -3.660 129.780  0.00  0.00    +0.008 C 
ATOM     21  C   LIG A   1      -3.770  -2.842 130.824  0.00  0.00    +0.012 C 
BRANCH  20  22
ATOM     22  C   LIG A   1      -5.683  -4.457 130.435  0.00  0.00    +0.004 C 
ATOM     23  C   LIG A   1      -5.262  -5.141 131.734  0.00  0.00    +0.004 C 
ENDBRANCH  20  22
ENDBRANCH  19  20
ENDBRANCH   9  18
BRANCH  14  24
ATOM     24  C   LIG A   1      -9.278   0.103 123.084  0.00  0.00    +0.196 C 
ATOM     25  O   LIG A   1     -10.427   0.061 122.647  0.00  0.00    -0.287 OA
BRANCH  24  26
ATOM     26  C   LIG A   1      -8.416  -1.145 123.042  0.00  0.00    -0.007 C 
ATOM     27  C   LIG A   1      -9.130  -2.462 123.223  0.00  0.00    +0.047 C 
ATOM     28  C   LIG A   1      -7.083  -1.088 122.847  0.00  0.00    -0.023 C 
ATOM     29  C   LIG A   1      -6.116  -2.225 122.951  0.00  0.00    +0.035 C 
ENDBRANCH  24  26
ENDBRANCH  14  24
TORSDOF 5
ENDMDL
MODEL 3
REMARK VINA RESULT:      -8.0      7.911     10.626
REMARK  Name = NuBBE_834
REMARK  10 active torsions:
REMARK  status: ('A' for Active; 'I' for Inactive)
REMARK    1  A    between atoms: C_4  and  C_28
REMARK    2  A    between atoms: C_9  and  C_10
REMARK    3  A    between atoms: C_11  and  C_12
REMARK    4  A    between atoms: C_12  and  C_14
REMARK    5  A    between atoms: C_12  and  C_15
REMARK    6  A    between atoms: C_15  and  C_16
REMARK    7  A    between atoms: C_21  and  C_22
REMARK    8  A    between atoms: C_22  and  C_23
REMARK    9  A    between atoms: C_23  and  C_24
REMARK   10  A    between atoms: C_25  and  C_26
REMARK                            x       y       z     vdW  Elec       q    Type
REMARK                         _______ _______ _______ _____ _____    ______ ____
ROOT
ATOM      1  O   LIG A   1      -7.156   2.408 123.405  0.00  0.00    -0.245 OA
ATOM      2  C   LIG A   1      -6.919   1.352 123.940  0.00  0.00    +0.345 C 
ATOM      3  O   LIG A   1      -7.115   0.155 123.326  0.00  0.00    -0.442 OA
ATOM      4  C   LIG A   1      -7.049  -0.870 124.294  0.00  0.00    +0.200 C 
ATOM      5  C   LIG A   1      -6.571  -0.179 125.523  0.00  0.00    +0.032 C 
ATOM      6  C   LIG A   1      -6.536  -1.061 126.678  0.00  0.00    +0.027 C 
ATOM      7  C   LIG A   1      -5.488  -1.168 127.514  0.00  0.00    +0.204 C 
ATOM      8  O   LIG A   1      -5.406  -2.086 128.554  0.00  0.00    -0.463 OA
ATOM      9  C   LIG A   1      -6.525  -2.862 128.854  0.00  0.00    +0.128 C 
ATOM     10  C   LIG A   1      -7.635  -2.840 128.096  0.00  0.00    +0.056 C 
ATOM     11  C   LIG A   1      -7.630  -2.053 126.867  0.00  0.00    +0.011 C 
ATOM     12  C   LIG A   1      -8.570  -2.204 125.906  0.00  0.00    +0.096 C 
ATOM     13 CL   LIG A   1      -9.922  -3.277 126.016  0.00  0.00    -0.079 Cl
ATOM     14  C   LIG A   1      -6.412   1.138 125.320  0.00  0.00    +0.114 C 
ATOM     15  C   LIG A   1      -6.086  -1.944 123.778  0.00  0.00    +0.070 C 
ATOM     16  C   LIG A   1      -8.434  -1.460 124.607  0.00  0.00    +0.222 C 
ATOM     17  O   LIG A   1      -9.384  -1.346 123.834  0.00  0.00    -0.286 OA
ENDROOT
BRANCH   9  18
ATOM     18  C   LIG A   1      -6.439  -3.649 130.066  0.00  0.00    +0.042 C 
ATOM     19  C   LIG A   1      -5.303  -3.918 130.730  0.00  0.00    -0.020 C 
BRANCH  19  20
ATOM     20  C   LIG A   1      -5.258  -4.678 132.038  0.00  0.00    +0.008 C 
ATOM     21  C   LIG A   1      -3.867  -4.569 132.671  0.00  0.00    +0.012 C 
BRANCH  20  22
ATOM     22  C   LIG A   1      -6.345  -4.157 133.000  0.00  0.00    +0.004 C 
ATOM     23  C   LIG A   1      -6.405  -4.942 134.308  0.00  0.00    +0.004 C 
ENDBRANCH  20  22
ENDBRANCH  19  20
ENDBRANCH   9  18
BRANCH  14  24
ATOM     24  C   LIG A   1      -6.033   2.208 126.283  0.00  0.00    +0.196 C 
ATOM     25  O   LIG A   1      -6.797   2.502 127.202  0.00  0.00    -0.287 OA
BRANCH  24  26
ATOM     26  C   LIG A   1      -4.719   2.951 126.136  0.00  0.00    -0.007 C 
ATOM     27  C   LIG A   1      -4.731   4.167 125.242  0.00  0.00    +0.047 C 
ATOM     28  C   LIG A   1      -3.598   2.557 126.772  0.00  0.00    -0.023 C 
ATOM     29  C   LIG A   1      -2.220   3.105 126.577  0.00  0.00    +0.035 C 
ENDBRANCH  24  26
ENDBRANCH  14  24
TORSDOF 5
ENDMDL
MODEL 4
REMARK VINA RESULT:      -7.9      7.876     10.977
REMARK  Name = NuBBE_834
REMARK  10 active torsions:
REMARK  status: ('A' for Active; 'I' for Inactive)
REMARK    1  A    between atoms: C_4  and  C_28
REMARK    2  A    between atoms: C_9  and  C_10
REMARK    3  A    between atoms: C_11  and  C_12
REMARK    4  A    between atoms: C_12  and  C_14
REMARK    5  A    between atoms: C_12  and  C_15
REMARK    6  A    between atoms: C_15  and  C_16
REMARK    7  A    between atoms: C_21  and  C_22
REMARK    8  A    between atoms: C_22  and  C_23
REMARK    9  A    between atoms: C_23  and  C_24
REMARK   10  A    between atoms: C_25  and  C_26
REMARK                            x       y       z     vdW  Elec       q    Type
REMARK                         _______ _______ _______ _____ _____    ______ ____
ROOT
ATOM      1  O   LIG A   1      -8.604   0.798 123.785  0.00  0.00    -0.245 OA
ATOM      2  C   LIG A   1      -8.080  -0.104 124.394  0.00  0.00    +0.345 C 
ATOM      3  O   LIG A   1      -8.314  -1.413 124.114  0.00  0.00    -0.442 OA
ATOM      4  C   LIG A   1      -7.816  -2.201 125.175  0.00  0.00    +0.200 C 
ATOM      5  C   LIG A   1      -7.059  -1.237 126.019  0.00  0.00    +0.032 C 
ATOM      6  C   LIG A   1      -6.548  -1.846 127.236  0.00  0.00    +0.027 C 
ATOM      7  C   LIG A   1      -5.283  -1.714 127.673  0.00  0.00    +0.204 C 
ATOM      8  O   LIG A   1      -4.760  -2.380 128.774  0.00  0.00    -0.463 OA
ATOM      9  C   LIG A   1      -5.621  -3.133 129.574  0.00  0.00    +0.128 C 
ATOM     10  C   LIG A   1      -6.908  -3.335 129.245  0.00  0.00    +0.056 C 
ATOM     11  C   LIG A   1      -7.393  -2.832 127.965  0.00  0.00    +0.011 C 
ATOM     12  C   LIG A   1      -8.565  -3.237 127.424  0.00  0.00    +0.096 C 
ATOM     13 CL   LIG A   1      -9.668  -4.333 128.181  0.00  0.00    -0.079 Cl
ATOM     14  C   LIG A   1      -7.136   0.012 125.536  0.00  0.00    +0.114 C 
ATOM     15  C   LIG A   1      -6.944  -3.307 124.572  0.00  0.00    +0.070 C 
ATOM     16  C   LIG A   1      -8.945  -2.784 126.041  0.00  0.00    +0.222 C 
ATOM     17  O   LIG A   1     -10.098  -2.891 125.629  0.00  0.00    -0.286 OA
ENDROOT
BRANCH   9  18
ATOM     18  C   LIG A   1      -5.055  -3.636 130.808  0.00  0.00    +0.042 C 
ATOM     19  C   LIG A   1      -5.537  -4.677 131.507  0.00  0.00    -0.020 C 
BRANCH  19  20
ATOM     20  C   LIG A   1      -4.873  -5.227 132.751  0.00  0.00    +0.008 C 
ATOM     21  C   LIG A   1      -3.688  -4.344 133.158  0.00  0.00    +0.012 C 
BRANCH  20  22
ATOM     22  C   LIG A   1      -5.896  -5.342 133.900  0.00  0.00    +0.004 C 
ATOM     23  C   LIG A   1      -6.831  -4.138 133.985  0.00  0.00    +0.004 C 
ENDBRANCH  20  22
ENDBRANCH  19  20
ENDBRANCH   9  18
BRANCH  14  24
ATOM     24  C   LIG A   1      -6.604   1.283 126.098  0.00  0.00    +0.196 C 
ATOM     25  O   LIG A   1      -5.478   1.667 125.780  0.00  0.00    -0.287 OA
BRANCH  24  26
ATOM     26  C   LIG A   1      -7.428   2.106 127.069  0.00  0.00    -0.007 C 
ATOM     27  C   LIG A   1      -7.525   3.585 126.784  0.00  0.00    +0.047 C 
ATOM     28  C   LIG A   1      -8.051   1.552 128.129  0.00  0.00    -0.023 C 
ATOM     29  C   LIG A   1      -8.747   2.278 129.236  0.00  0.00    +0.035 C 
ENDBRANCH  24  26
ENDBRANCH  14  24
TORSDOF 5
ENDMDL
MODEL 5
REMARK VINA RESULT:      -7.9      7.947     10.973
REMARK  Name = NuBBE_834
REMARK  10 active torsions:
REMARK  status: ('A' for Active; 'I' for Inactive)
REMARK    1  A    between atoms: C_4  and  C_28
REMARK    2  A    between atoms: C_9  and  C_10
REMARK    3  A    between atoms: C_11  and  C_12
REMARK    4  A    between atoms: C_12  and  C_14
REMARK    5  A    between atoms: C_12  and  C_15
REMARK    6  A    between atoms: C_15  and  C_16
REMARK    7  A    between atoms: C_21  and  C_22
REMARK    8  A    between atoms: C_22  and  C_23
REMARK    9  A    between atoms: C_23  and  C_24
REMARK   10  A    between atoms: C_25  and  C_26
REMARK                            x       y       z     vdW  Elec       q    Type
REMARK                         _______ _______ _______ _____ _____    ______ ____
ROOT
ATOM      1  O   LIG A   1     -10.452   0.237 122.403  0.00  0.00    -0.245 OA
ATOM      2  C   LIG A   1      -9.548  -0.216 123.063  0.00  0.00    +0.345 C 
ATOM      3  O   LIG A   1      -9.226  -1.537 123.062  0.00  0.00    -0.442 OA
ATOM      4  C   LIG A   1      -8.358  -1.794 124.145  0.00  0.00    +0.200 C 
ATOM      5  C   LIG A   1      -8.016  -0.443 124.667  0.00  0.00    +0.032 C 
ATOM      6  C   LIG A   1      -7.200  -0.501 125.868  0.00  0.00    +0.027 C 
ATOM      7  C   LIG A   1      -6.079   0.220 126.054  0.00  0.00    +0.204 C 
ATOM      8  O   LIG A   1      -5.237   0.089 127.152  0.00  0.00    -0.463 OA
ATOM      9  C   LIG A   1      -5.630  -0.739 128.204  0.00  0.00    +0.128 C 
ATOM     10  C   LIG A   1      -6.731  -1.506 128.138  0.00  0.00    +0.056 C 
ATOM     11  C   LIG A   1      -7.485  -1.546 126.890  0.00  0.00    +0.011 C 
ATOM     12  C   LIG A   1      -8.413  -2.496 126.634  0.00  0.00    +0.096 C 
ATOM     13 CL   LIG A   1      -8.882  -3.734 127.747  0.00  0.00    -0.079 Cl
ATOM     14  C   LIG A   1      -8.655   0.524 123.991  0.00  0.00    +0.114 C 
ATOM     15  C   LIG A   1      -7.150  -2.569 123.607  0.00  0.00    +0.070 C 
ATOM     16  C   LIG A   1      -9.059  -2.562 125.278  0.00  0.00    +0.222 C 
ATOM     17  O   LIG A   1     -10.087  -3.211 125.091  0.00  0.00    -0.286 OA
ENDROOT
BRANCH   9  18
ATOM     18  C   LIG A   1      -4.807  -0.676 129.394  0.00  0.00    +0.042 C 
ATOM     19  C   LIG A   1      -4.583  -1.704 130.229  0.00  0.00    -0.020 C 
BRANCH  19  20
ATOM     20  C   LIG A   1      -3.653  -1.626 131.421  0.00  0.00    +0.008 C 
ATOM     21  C   LIG A   1      -4.034  -0.443 132.318  0.00  0.00    +0.012 C 
BRANCH  20  22
ATOM     22  C   LIG A   1      -3.681  -2.950 132.212  0.00  0.00    +0.004 C 
ATOM     23  C   LIG A   1      -4.865  -3.838 131.842  0.00  0.00    +0.004 C 
ENDBRANCH  20  22
ENDBRANCH  19  20
ENDBRANCH   9  18
BRANCH  14  24
ATOM     24  C   LIG A   1      -8.669   1.995 124.224  0.00  0.00    +0.196 C 
ATOM     25  O   LIG A   1      -9.399   2.469 125.094  0.00  0.00    -0.287 OA
BRANCH  24  26
ATOM     26  C   LIG A   1      -7.802   2.919 123.389  0.00  0.00    -0.007 C 
ATOM     27  C   LIG A   1      -8.267   3.183 121.978  0.00  0.00    +0.047 C 
ATOM     28  C   LIG A   1      -6.680   3.483 123.878  0.00  0.00    -0.023 C 
ATOM     29  C   LIG A   1      -5.666   4.269 123.108  0.00  0.00    +0.035 C 
ENDBRANCH  24  26
ENDBRANCH  14  24
TORSDOF 5
ENDMDL
MODEL 6
REMARK VINA RESULT:      -7.9      6.150      8.379
REMARK  Name = NuBBE_834
REMARK  10 active torsions:
REMARK  status: ('A' for Active; 'I' for Inactive)
REMARK    1  A    between atoms: C_4  and  C_28
REMARK    2  A    between atoms: C_9  and  C_10
REMARK    3  A    between atoms: C_11  and  C_12
REMARK    4  A    between atoms: C_12  and  C_14
REMARK    5  A    between atoms: C_12  and  C_15
REMARK    6  A    between atoms: C_15  and  C_16
REMARK    7  A    between atoms: C_21  and  C_22
REMARK    8  A    between atoms: C_22  and  C_23
REMARK    9  A    between atoms: C_23  and  C_24
REMARK   10  A    between atoms: C_25  and  C_26
REMARK                            x       y       z     vdW  Elec       q    Type
REMARK                         _______ _______ _______ _____ _____    ______ ____
ROOT
ATOM      1  O   LIG A   1      -6.365   6.561 130.618  0.00  0.00    -0.245 OA
ATOM      2  C   LIG A   1      -6.022   5.455 130.273  0.00  0.00    +0.345 C 
ATOM      3  O   LIG A   1      -4.806   4.933 130.580  0.00  0.00    -0.442 OA
ATOM      4  C   LIG A   1      -4.590   3.784 129.788  0.00  0.00    +0.200 C 
ATOM      5  C   LIG A   1      -5.903   3.545 129.129  0.00  0.00    +0.032 C 
ATOM      6  C   LIG A   1      -5.855   2.448 128.177  0.00  0.00    +0.027 C 
ATOM      7  C   LIG A   1      -6.757   1.451 128.128  0.00  0.00    +0.204 C 
ATOM      8  O   LIG A   1      -6.658   0.345 127.294  0.00  0.00    -0.463 OA
ATOM      9  C   LIG A   1      -5.638   0.311 126.342  0.00  0.00    +0.128 C 
ATOM     10  C   LIG A   1      -4.680   1.252 126.288  0.00  0.00    +0.056 C 
ATOM     11  C   LIG A   1      -4.651   2.285 127.317  0.00  0.00    +0.011 C 
ATOM     12  C   LIG A   1      -3.574   3.079 127.516  0.00  0.00    +0.096 C 
ATOM     13 CL   LIG A   1      -2.133   3.036 126.561  0.00  0.00    -0.079 Cl
ATOM     14  C   LIG A   1      -6.801   4.486 129.459  0.00  0.00    +0.114 C 
ATOM     15  C   LIG A   1      -4.152   2.647 130.717  0.00  0.00    +0.070 C 
ATOM     16  C   LIG A   1      -3.556   4.034 128.678  0.00  0.00    +0.222 C 
ATOM     17  O   LIG A   1      -2.743   4.955 128.735  0.00  0.00    -0.286 OA
ENDROOT
BRANCH   9  18
ATOM     18  C   LIG A   1      -5.710  -0.769 125.380  0.00  0.00    +0.042 C 
ATOM     19  C   LIG A   1      -5.920  -2.059 125.687  0.00  0.00    -0.020 C 
BRANCH  19  20
ATOM     20  C   LIG A   1      -6.069  -3.152 124.650  0.00  0.00    +0.008 C 
ATOM     21  C   LIG A   1      -7.399  -2.999 123.903  0.00  0.00    +0.012 C 
BRANCH  20  22
ATOM     22  C   LIG A   1      -4.879  -3.129 123.670  0.00  0.00    +0.004 C 
ATOM     23  C   LIG A   1      -4.182  -4.482 123.552  0.00  0.00    +0.004 C 
ENDBRANCH  20  22
ENDBRANCH  19  20
ENDBRANCH   9  18
BRANCH  14  24
ATOM     24  C   LIG A   1      -8.195   4.680 128.974  0.00  0.00    +0.196 C 
ATOM     25  O   LIG A   1      -8.409   4.832 127.772  0.00  0.00    -0.287 OA
BRANCH  24  26
ATOM     26  C   LIG A   1      -9.357   4.707 129.950  0.00  0.00    -0.007 C 
ATOM     27  C   LIG A   1      -9.964   3.372 130.308  0.00  0.00    +0.047 C 
ATOM     28  C   LIG A   1      -9.823   5.856 130.477  0.00  0.00    -0.023 C 
ATOM     29  C   LIG A   1     -11.055   6.022 131.310  0.00  0.00    +0.035 C 
ENDBRANCH  24  26
ENDBRANCH  14  24
TORSDOF 5
ENDMDL
MODEL 7
REMARK VINA RESULT:      -7.8      8.006     10.543
REMARK  Name = NuBBE_834
REMARK  10 active torsions:
REMARK  status: ('A' for Active; 'I' for Inactive)
REMARK    1  A    between atoms: C_4  and  C_28
REMARK    2  A    between atoms: C_9  and  C_10
REMARK    3  A    between atoms: C_11  and  C_12
REMARK    4  A    between atoms: C_12  and  C_14
REMARK    5  A    between atoms: C_12  and  C_15
REMARK    6  A    between atoms: C_15  and  C_16
REMARK    7  A    between atoms: C_21  and  C_22
REMARK    8  A    between atoms: C_22  and  C_23
REMARK    9  A    between atoms: C_23  and  C_24
REMARK   10  A    between atoms: C_25  and  C_26
REMARK                            x       y       z     vdW  Elec       q    Type
REMARK                         _______ _______ _______ _____ _____    ______ ____
ROOT
ATOM      1  O   LIG A   1      -9.166  -1.733 122.671  0.00  0.00    -0.245 OA
ATOM      2  C   LIG A   1      -8.807  -0.849 123.410  0.00  0.00    +0.345 C 
ATOM      3  O   LIG A   1      -9.327   0.407 123.363  0.00  0.00    -0.442 OA
ATOM      4  C   LIG A   1      -8.501   1.269 124.116  0.00  0.00    +0.200 C 
ATOM      5  C   LIG A   1      -7.552   0.354 124.805  0.00  0.00    +0.032 C 
ATOM      6  C   LIG A   1      -6.538   1.071 125.562  0.00  0.00    +0.027 C 
ATOM      7  C   LIG A   1      -6.204   0.787 126.833  0.00  0.00    +0.204 C 
ATOM      8  O   LIG A   1      -5.316   1.536 127.596  0.00  0.00    -0.463 OA
ATOM      9  C   LIG A   1      -4.612   2.572 126.982  0.00  0.00    +0.128 C 
ATOM     10  C   LIG A   1      -4.854   2.947 125.714  0.00  0.00    +0.056 C 
ATOM     11  C   LIG A   1      -5.953   2.316 124.992  0.00  0.00    +0.011 C 
ATOM     12  C   LIG A   1      -6.453   2.827 123.844  0.00  0.00    +0.096 C 
ATOM     13 CL   LIG A   1      -5.838   4.231 123.044  0.00  0.00    -0.079 Cl
ATOM     14  C   LIG A   1      -7.759  -0.926 124.460  0.00  0.00    +0.114 C 
ATOM     15  C   LIG A   1      -9.397   2.061 125.074  0.00  0.00    +0.070 C 
ATOM     16  C   LIG A   1      -7.672   2.205 123.220  0.00  0.00    +0.222 C 
ATOM     17  O   LIG A   1      -7.989   2.448 122.057  0.00  0.00    -0.286 OA
ENDROOT
BRANCH   9  18
ATOM     18  C   LIG A   1      -3.565   3.179 127.776  0.00  0.00    +0.042 C 
ATOM     19  C   LIG A   1      -3.680   4.341 128.441  0.00  0.00    -0.020 C 
BRANCH  19  20
ATOM     20  C   LIG A   1      -2.592   4.907 129.328  0.00  0.00    +0.008 C 
ATOM     21  C   LIG A   1      -2.228   6.328 128.884  0.00  0.00    +0.012 C 
BRANCH  20  22
ATOM     22  C   LIG A   1      -3.037   4.887 130.805  0.00  0.00    +0.004 C 
ATOM     23  C   LIG A   1      -4.272   5.746 131.064  0.00  0.00    +0.004 C 
ENDBRANCH  20  22
ENDBRANCH  19  20
ENDBRANCH   9  18
BRANCH  14  24
ATOM     24  C   LIG A   1      -7.000  -2.148 124.843  0.00  0.00    +0.196 C 
ATOM     25  O   LIG A   1      -7.243  -2.709 125.911  0.00  0.00    -0.287 OA
BRANCH  24  26
ATOM     26  C   LIG A   1      -5.920  -2.705 123.935  0.00  0.00    -0.007 C 
ATOM     27  C   LIG A   1      -5.813  -2.088 122.561  0.00  0.00    +0.047 C 
ATOM     28  C   LIG A   1      -5.091  -3.692 124.330  0.00  0.00    -0.023 C 
ATOM     29  C   LIG A   1      -4.107  -4.428 123.476  0.00  0.00    +0.035 C 
ENDBRANCH  24  26
ENDBRANCH  14  24
TORSDOF 5
ENDMDL
MODEL 8
REMARK VINA RESULT:      -7.6      1.732      2.548
REMARK  Name = NuBBE_834
REMARK  10 active torsions:
REMARK  status: ('A' for Active; 'I' for Inactive)
REMARK    1  A    between atoms: C_4  and  C_28
REMARK    2  A    between atoms: C_9  and  C_10
REMARK    3  A    between atoms: C_11  and  C_12
REMARK    4  A    between atoms: C_12  and  C_14
REMARK    5  A    between atoms: C_12  and  C_15
REMARK    6  A    between atoms: C_15  and  C_16
REMARK    7  A    between atoms: C_21  and  C_22
REMARK    8  A    between atoms: C_22  and  C_23
REMARK    9  A    between atoms: C_23  and  C_24
REMARK   10  A    between atoms: C_25  and  C_26
REMARK                            x       y       z     vdW  Elec       q    Type
REMARK                         _______ _______ _______ _____ _____    ______ ____
ROOT
ATOM      1  O   LIG A   1      -3.303   2.443 132.824  0.00  0.00    -0.245 OA
ATOM      2  C   LIG A   1      -4.342   3.049 132.928  0.00  0.00    +0.345 C 
ATOM      3  O   LIG A   1      -5.265   2.768 133.885  0.00  0.00    -0.442 OA
ATOM      4  C   LIG A   1      -6.474   3.418 133.556  0.00  0.00    +0.200 C 
ATOM      5  C   LIG A   1      -6.114   4.301 132.414  0.00  0.00    +0.032 C 
ATOM      6  C   LIG A   1      -7.267   4.988 131.857  0.00  0.00    +0.027 C 
ATOM      7  C   LIG A   1      -7.304   6.306 131.591  0.00  0.00    +0.204 C 
ATOM      8  O   LIG A   1      -8.437   6.987 131.161  0.00  0.00    -0.463 OA
ATOM      9  C   LIG A   1      -9.582   6.255 130.849  0.00  0.00    +0.128 C 
ATOM     10  C   LIG A   1      -9.666   4.932 131.067  0.00  0.00    +0.056 C 
ATOM     11  C   LIG A   1      -8.560   4.259 131.739  0.00  0.00    +0.011 C 
ATOM     12  C   LIG A   1      -8.677   3.016 132.260  0.00  0.00    +0.096 C 
ATOM     13 CL   LIG A   1     -10.098   2.036 132.151  0.00  0.00    -0.079 Cl
ATOM     14  C   LIG A   1      -4.826   4.157 132.064  0.00  0.00    +0.114 C 
ATOM     15  C   LIG A   1      -6.952   4.181 134.796  0.00  0.00    +0.070 C 
ATOM     16  C   LIG A   1      -7.544   2.432 133.057  0.00  0.00    +0.222 C 
ATOM     17  O   LIG A   1      -7.490   1.228 133.304  0.00  0.00    -0.286 OA
ENDROOT
BRANCH   9  18
ATOM     18  C   LIG A   1     -10.655   7.000 130.223  0.00  0.00    +0.042 C 
ATOM     19  C   LIG A   1     -11.583   6.474 129.407  0.00  0.00    -0.020 C 
BRANCH  19  20
ATOM     20  C   LIG A   1     -12.738   7.266 128.834  0.00  0.00    +0.008 C 
ATOM     21  C   LIG A   1     -12.617   8.743 129.226  0.00  0.00    +0.012 C 
BRANCH  20  22
ATOM     22  C   LIG A   1     -12.793   7.104 127.301  0.00  0.00    +0.004 C 
ATOM     23  C   LIG A   1     -11.455   7.392 126.625  0.00  0.00    +0.004 C 
ENDBRANCH  20  22
ENDBRANCH  19  20
ENDBRANCH   9  18
BRANCH  14  24
ATOM     24  C   LIG A   1      -4.072   4.776 130.940  0.00  0.00    +0.196 C 
ATOM     25  O   LIG A   1      -3.651   5.927 131.048  0.00  0.00    -0.287 OA
BRANCH  24  26
ATOM     26  C   LIG A   1      -3.828   4.008 129.655  0.00  0.00    -0.007 C 
ATOM     27  C   LIG A   1      -4.668   2.772 129.441  0.00  0.00    +0.047 C 
ATOM     28  C   LIG A   1      -2.916   4.405 128.745  0.00  0.00    -0.023 C 
ATOM     29  C   LIG A   1      -2.474   3.647 127.533  0.00  0.00    +0.035 C 
ENDBRANCH  24  26
ENDBRANCH  14  24
TORSDOF 5
ENDMDL
MODEL 9
REMARK VINA RESULT:      -7.6      6.990      8.822
REMARK  Name = NuBBE_834
REMARK  10 active torsions:
REMARK  status: ('A' for Active; 'I' for Inactive)
REMARK    1  A    between atoms: C_4  and  C_28
REMARK    2  A    between atoms: C_9  and  C_10
REMARK    3  A    between atoms: C_11  and  C_12
REMARK    4  A    between atoms: C_12  and  C_14
REMARK    5  A    between atoms: C_12  and  C_15
REMARK    6  A    between atoms: C_15  and  C_16
REMARK    7  A    between atoms: C_21  and  C_22
REMARK    8  A    between atoms: C_22  and  C_23
REMARK    9  A    between atoms: C_23  and  C_24
REMARK   10  A    between atoms: C_25  and  C_26
REMARK                            x       y       z     vdW  Elec       q    Type
REMARK                         _______ _______ _______ _____ _____    ______ ____
ROOT
ATOM      1  O   LIG A   1      -4.975  -0.120 134.356  0.00  0.00    -0.245 OA
ATOM      2  C   LIG A   1      -5.336  -0.791 133.419  0.00  0.00    +0.345 C 
ATOM      3  O   LIG A   1      -5.131  -2.133 133.352  0.00  0.00    -0.442 OA
ATOM      4  C   LIG A   1      -5.376  -2.566 132.031  0.00  0.00    +0.200 C 
ATOM      5  C   LIG A   1      -5.966  -1.375 131.362  0.00  0.00    +0.032 C 
ATOM      6  C   LIG A   1      -6.195  -1.592 129.943  0.00  0.00    +0.027 C 
ATOM      7  C   LIG A   1      -7.345  -1.296 129.311  0.00  0.00    +0.204 C 
ATOM      8  O   LIG A   1      -7.609  -1.600 127.981  0.00  0.00    -0.463 OA
ATOM      9  C   LIG A   1      -6.581  -2.123 127.195  0.00  0.00    +0.128 C 
ATOM     10  C   LIG A   1      -5.386  -2.455 127.711  0.00  0.00    +0.056 C 
ATOM     11  C   LIG A   1      -5.191  -2.357 129.153  0.00  0.00    +0.011 C 
ATOM     12  C   LIG A   1      -4.147  -2.941 129.785  0.00  0.00    +0.096 C 
ATOM     13 CL   LIG A   1      -2.882  -3.812 128.991  0.00  0.00    -0.079 Cl
ATOM     14  C   LIG A   1      -6.024  -0.320 132.189  0.00  0.00    +0.114 C 
ATOM     15  C   LIG A   1      -6.324  -3.767 132.097  0.00  0.00    +0.070 C 
ATOM     16  C   LIG A   1      -4.076  -2.916 131.287  0.00  0.00    +0.222 C 
ATOM     17  O   LIG A   1      -3.031  -3.177 131.881  0.00  0.00    -0.286 OA
ENDROOT
BRANCH   9  18
ATOM     18  C   LIG A   1      -6.863  -2.231 125.779  0.00  0.00    +0.042 C 
ATOM     19  C   LIG A   1      -7.727  -3.102 125.231  0.00  0.00    -0.020 C 
BRANCH  19  20
ATOM     20  C   LIG A   1      -8.058  -3.134 123.755  0.00  0.00    +0.008 C 
ATOM     21  C   LIG A   1      -9.553  -3.405 123.549  0.00  0.00    +0.012 C 
BRANCH  20  22
ATOM     22  C   LIG A   1      -7.639  -1.811 123.081  0.00  0.00    +0.004 C 
ATOM     23  C   LIG A   1      -6.251  -1.881 122.449  0.00  0.00    +0.004 C 
ENDBRANCH  20  22
ENDBRANCH  19  20
ENDBRANCH   9  18
BRANCH  14  24
ATOM     24  C   LIG A   1      -6.461   1.077 131.918  0.00  0.00    +0.196 C 
ATOM     25  O   LIG A   1      -5.726   1.836 131.289  0.00  0.00    -0.287 OA
BRANCH  24  26
ATOM     26  C   LIG A   1      -7.801   1.580 132.422  0.00  0.00    -0.007 C 
ATOM     27  C   LIG A   1      -9.021   0.820 131.960  0.00  0.00    +0.047 C 
ATOM     28  C   LIG A   1      -7.904   2.644 133.243  0.00  0.00    -0.023 C 
ATOM     29  C   LIG A   1      -9.166   3.326 133.667  0.00  0.00    +0.035 C 
ENDBRANCH  24  26
ENDBRANCH  14  24
TORSDOF 5
ENDMDL
