MODEL 1
REMARK VINA RESULT:      -8.4      0.000      0.000
REMARK  Name = NuBBE_481
REMARK  14 active torsions:
REMARK  status: ('A' for Active; 'I' for Inactive)
REMARK    1  A    between atoms: C_1  and  C_2
REMARK    2  A    between atoms: C_6  and  C_7
REMARK    3  A    between atoms: C_6  and  C_9
REMARK    4  A    between atoms: C_7  and  O_8
REMARK    5  A    between atoms: C_9  and  O_10
REMARK    6  A    between atoms: C_11  and  O_13
REMARK    7  A    between atoms: C_16  and  C_17
REMARK    8  A    between atoms: C_22  and  C_23
REMARK    9  A    between atoms: C_26  and  C_27
REMARK   10  A    between atoms: C_27  and  O_28
REMARK   11  A    between atoms: O_28  and  C_29
REMARK   12  A    between atoms: C_32  and  C_33
REMARK   13  A    between atoms: C_32  and  O_34
REMARK   14  A    between atoms: C_35  and  C_37
REMARK                            x       y       z     vdW  Elec       q    Type
REMARK                         _______ _______ _______ _____ _____    ______ ____
ROOT
ATOM      1  C   LIG A   1      -5.320  -2.430 128.179  0.00  0.00    +0.012 C 
ATOM      2  C   LIG A   1      -6.503  -1.458 128.371  0.00  0.00    -0.019 C 
ATOM      3  C   LIG A   1      -7.822  -2.255 128.155  0.00  0.00    +0.008 C 
ATOM      4  C   LIG A   1      -8.050  -2.744 126.719  0.00  0.00    +0.005 C 
ATOM      5  C   LIG A   1      -7.969  -1.709 125.558  0.00  0.00    +0.008 C 
ATOM      6  C   LIG A   1      -8.126  -2.400 124.114  0.00  0.00    +0.046 C 
ATOM      7  C   LIG A   1      -6.757  -2.983 123.654  0.00  0.00    +0.125 C 
ATOM      8  C   LIG A   1      -5.617  -1.961 123.731  0.00  0.00    +0.032 C 
ATOM      9  C   LIG A   1      -5.433  -1.374 125.141  0.00  0.00    +0.010 C 
ATOM     10  C   LIG A   1      -6.714  -0.739 125.731  0.00  0.00    -0.025 C 
ATOM     11  C   LIG A   1      -6.925   0.593 124.945  0.00  0.00    +0.012 C 
ATOM     12  C   LIG A   1      -6.645  -0.331 127.268  0.00  0.00    +0.006 C 
ATOM     13  C   LIG A   1      -5.819   0.881 127.661  0.00  0.00    +0.031 C 
ATOM     14  C   LIG A   1      -6.453   1.430 128.909  0.00  0.00    -0.026 C 
ATOM     15  C   LIG A   1      -6.722   0.662 129.980  0.00  0.00    -0.060 C 
ATOM     16  C   LIG A   1      -6.377  -0.840 129.915  0.00  0.00    -0.005 C 
ATOM     17  C   LIG A   1      -7.232  -1.738 130.860  0.00  0.00    +0.016 C 
ATOM     18  C   LIG A   1      -4.922  -0.805 130.525  0.00  0.00    +0.012 C 
ATOM     19  C   LIG A   1      -4.816  -0.154 131.938  0.00  0.00    +0.019 C 
ATOM     20  C   LIG A   1      -5.581   1.197 132.165  0.00  0.00    +0.077 C 
ATOM     21  C   LIG A   1      -6.942   1.212 131.394  0.00  0.00    +0.064 C 
ATOM     22  C   LIG A   1      -7.882   2.435 131.691  0.00  0.00    +0.073 C 
ATOM     23  C   LIG A   1      -7.462   3.814 131.178  0.00  0.00    +0.042 C 
ATOM     24  C   LIG A   1      -8.133   2.463 133.237  0.00  0.00    +0.018 C 
ATOM     25  C   LIG A   1      -9.057   3.593 133.705  0.00  0.00    +0.010 C 
ATOM     26  C   LIG A   1      -6.820   2.492 134.033  0.00  0.00    +0.007 C 
ATOM     27  C   LIG A   1      -5.899   1.321 133.685  0.00  0.00    +0.019 C 
ENDROOT
BRANCH   7  28
ATOM     28  O   LIG A   1      -6.349  -4.109 124.434  0.00  0.00    -0.391 OA
ATOM     29  H   LIG A   1      -6.910  -4.115 125.241  0.00  0.00    +0.210 HD
ENDBRANCH   7  28
BRANCH  20  30
ATOM     30  C   LIG A   1      -4.591   2.333 131.804  0.00  0.00    +0.314 C 
ATOM     31  O   LIG A   1      -4.273   2.637 130.667  0.00  0.00    -0.250 OA
BRANCH  30  32
ATOM     32  O   LIG A   1      -4.162   2.996 132.902  0.00  0.00    -0.468 OA
ATOM     33  C   LIG A   1      -2.765   3.255 133.053  0.00  0.00    +0.280 C 
ENDBRANCH  30  32
ENDBRANCH  20  30
BRANCH  22  34
ATOM     34  O   LIG A   1      -9.160   2.153 131.083  0.00  0.00    -0.388 OA
ATOM     35  H   LIG A   1      -9.823   2.703 131.535  0.00  0.00    +0.210 HD
ENDBRANCH  22  34
BRANCH   6  36
ATOM     36  C   LIG A   1      -8.649  -1.380 123.054  0.00  0.00    +0.167 C 
BRANCH  36  37
ATOM     37  O   LIG A   1      -9.752  -0.623 123.552  0.00  0.00    -0.394 OA
ATOM     38  H   LIG A   1      -9.564  -0.419 124.486  0.00  0.00    +0.209 HD
ENDBRANCH  36  37
ENDBRANCH   6  36
BRANCH   6  39
ATOM     39  C   LIG A   1      -9.223  -3.521 124.093  0.00  0.00    +0.167 C 
BRANCH  39  40
ATOM     40  O   LIG A   1     -10.306  -3.257 123.206  0.00  0.00    -0.394 OA
ATOM     41  H   LIG A   1     -10.470  -2.297 123.249  0.00  0.00    +0.209 HD
ENDBRANCH  39  40
ENDBRANCH   6  39
TORSDOF 8
ENDMDL
MODEL 2
REMARK VINA RESULT:      -8.3      3.179      5.029
REMARK  Name = NuBBE_481
REMARK  14 active torsions:
REMARK  status: ('A' for Active; 'I' for Inactive)
REMARK    1  A    between atoms: C_1  and  C_2
REMARK    2  A    between atoms: C_6  and  C_7
REMARK    3  A    between atoms: C_6  and  C_9
REMARK    4  A    between atoms: C_7  and  O_8
REMARK    5  A    between atoms: C_9  and  O_10
REMARK    6  A    between atoms: C_11  and  O_13
REMARK    7  A    between atoms: C_16  and  C_17
REMARK    8  A    between atoms: C_22  and  C_23
REMARK    9  A    between atoms: C_26  and  C_27
REMARK   10  A    between atoms: C_27  and  O_28
REMARK   11  A    between atoms: O_28  and  C_29
REMARK   12  A    between atoms: C_32  and  C_33
REMARK   13  A    between atoms: C_32  and  O_34
REMARK   14  A    between atoms: C_35  and  C_37
REMARK                            x       y       z     vdW  Elec       q    Type
REMARK                         _______ _______ _______ _____ _____    ______ ____
ROOT
ATOM      1  C   LIG A   1      -5.223   3.438 125.189  0.00  0.00    +0.012 C 
ATOM      2  C   LIG A   1      -5.121   2.804 126.592  0.00  0.00    -0.019 C 
ATOM      3  C   LIG A   1      -4.566   1.359 126.430  0.00  0.00    +0.008 C 
ATOM      4  C   LIG A   1      -5.508   0.384 125.715  0.00  0.00    +0.005 C 
ATOM      5  C   LIG A   1      -6.966   0.235 126.243  0.00  0.00    +0.008 C 
ATOM      6  C   LIG A   1      -7.851  -0.743 125.320  0.00  0.00    +0.046 C 
ATOM      7  C   LIG A   1      -8.404   0.042 124.095  0.00  0.00    +0.125 C 
ATOM      8  C   LIG A   1      -9.121   1.337 124.489  0.00  0.00    +0.032 C 
ATOM      9  C   LIG A   1      -8.229   2.293 125.300  0.00  0.00    +0.010 C 
ATOM     10  C   LIG A   1      -7.614   1.656 126.568  0.00  0.00    -0.025 C 
ATOM     11  C   LIG A   1      -8.793   1.514 127.582  0.00  0.00    +0.012 C 
ATOM     12  C   LIG A   1      -6.502   2.519 127.313  0.00  0.00    +0.006 C 
ATOM     13  C   LIG A   1      -6.938   3.745 128.095  0.00  0.00    +0.031 C 
ATOM     14  C   LIG A   1      -5.921   3.924 129.188  0.00  0.00    -0.026 C 
ATOM     15  C   LIG A   1      -4.598   3.952 128.945  0.00  0.00    -0.060 C 
ATOM     16  C   LIG A   1      -4.112   3.779 127.492  0.00  0.00    -0.005 C 
ATOM     17  C   LIG A   1      -2.663   3.216 127.362  0.00  0.00    +0.016 C 
ATOM     18  C   LIG A   1      -4.046   5.293 127.053  0.00  0.00    +0.012 C 
ATOM     19  C   LIG A   1      -3.155   6.202 127.954  0.00  0.00    +0.019 C 
ATOM     20  C   LIG A   1      -3.313   6.048 129.508  0.00  0.00    +0.077 C 
ATOM     21  C   LIG A   1      -3.566   4.556 129.904  0.00  0.00    +0.064 C 
ATOM     22  C   LIG A   1      -3.556   4.248 131.445  0.00  0.00    +0.073 C 
ATOM     23  C   LIG A   1      -4.713   4.775 132.297  0.00  0.00    +0.042 C 
ATOM     24  C   LIG A   1      -2.177   4.733 132.006  0.00  0.00    +0.018 C 
ATOM     25  C   LIG A   1      -1.987   4.488 133.508  0.00  0.00    +0.010 C 
ATOM     26  C   LIG A   1      -1.907   6.209 131.676  0.00  0.00    +0.007 C 
ATOM     27  C   LIG A   1      -1.977   6.493 130.174  0.00  0.00    +0.019 C 
ENDROOT
BRANCH   7  28
ATOM     28  O   LIG A   1      -7.378   0.409 123.168  0.00  0.00    -0.391 OA
ATOM     29  H   LIG A   1      -7.682   1.226 122.716  0.00  0.00    +0.210 HD
ENDBRANCH   7  28
BRANCH  20  30
ATOM     30  C   LIG A   1      -4.407   7.055 129.944  0.00  0.00    +0.314 C 
ATOM     31  O   LIG A   1      -5.605   6.829 129.916  0.00  0.00    -0.250 OA
BRANCH  30  32
ATOM     32  O   LIG A   1      -3.874   8.202 130.422  0.00  0.00    -0.468 OA
ATOM     33  C   LIG A   1      -4.013   9.401 129.657  0.00  0.00    +0.280 C 
ENDBRANCH  30  32
ENDBRANCH  20  30
BRANCH  22  34
ATOM     34  O   LIG A   1      -3.568   2.813 131.596  0.00  0.00    -0.388 OA
ATOM     35  H   LIG A   1      -3.520   2.428 130.703  0.00  0.00    +0.210 HD
ENDBRANCH  22  34
BRANCH   6  36
ATOM     36  C   LIG A   1      -9.034  -1.363 126.129  0.00  0.00    +0.167 C 
BRANCH  36  37
ATOM     37  O   LIG A   1      -9.778  -2.294 125.344  0.00  0.00    -0.394 OA
ATOM     38  H   LIG A   1     -10.571  -1.830 125.020  0.00  0.00    +0.209 HD
ENDBRANCH  36  37
ENDBRANCH   6  36
BRANCH   6  39
ATOM     39  C   LIG A   1      -7.056  -2.006 124.839  0.00  0.00    +0.167 C 
BRANCH  39  40
ATOM     40  O   LIG A   1      -7.460  -2.495 123.563  0.00  0.00    -0.394 OA
ATOM     41  H   LIG A   1      -6.894  -2.050 122.905  0.00  0.00    +0.209 HD
ENDBRANCH  39  40
ENDBRANCH   6  39
TORSDOF 8
ENDMDL
MODEL 3
REMARK VINA RESULT:      -8.3      3.291      4.821
REMARK  Name = NuBBE_481
REMARK  14 active torsions:
REMARK  status: ('A' for Active; 'I' for Inactive)
REMARK    1  A    between atoms: C_1  and  C_2
REMARK    2  A    between atoms: C_6  and  C_7
REMARK    3  A    between atoms: C_6  and  C_9
REMARK    4  A    between atoms: C_7  and  O_8
REMARK    5  A    between atoms: C_9  and  O_10
REMARK    6  A    between atoms: C_11  and  O_13
REMARK    7  A    between atoms: C_16  and  C_17
REMARK    8  A    between atoms: C_22  and  C_23
REMARK    9  A    between atoms: C_26  and  C_27
REMARK   10  A    between atoms: C_27  and  O_28
REMARK   11  A    between atoms: O_28  and  C_29
REMARK   12  A    between atoms: C_32  and  C_33
REMARK   13  A    between atoms: C_32  and  O_34
REMARK   14  A    between atoms: C_35  and  C_37
REMARK                            x       y       z     vdW  Elec       q    Type
REMARK                         _______ _______ _______ _____ _____    ______ ____
ROOT
ATOM      1  C   LIG A   1      -5.553  -1.562 126.863  0.00  0.00    +0.012 C 
ATOM      2  C   LIG A   1      -6.419  -1.109 128.057  0.00  0.00    -0.019 C 
ATOM      3  C   LIG A   1      -7.882  -0.936 127.554  0.00  0.00    +0.008 C 
ATOM      4  C   LIG A   1      -8.089   0.217 126.564  0.00  0.00    +0.005 C 
ATOM      5  C   LIG A   1      -7.592   1.638 126.961  0.00  0.00    +0.008 C 
ATOM      6  C   LIG A   1      -7.789   2.706 125.774  0.00  0.00    +0.046 C 
ATOM      7  C   LIG A   1      -6.606   2.603 124.767  0.00  0.00    +0.125 C 
ATOM      8  C   LIG A   1      -5.235   2.680 125.447  0.00  0.00    +0.032 C 
ATOM      9  C   LIG A   1      -5.038   1.596 126.521  0.00  0.00    +0.010 C 
ATOM     10  C   LIG A   1      -6.136   1.584 127.611  0.00  0.00    -0.025 C 
ATOM     11  C   LIG A   1      -5.870   2.845 128.492  0.00  0.00    +0.012 C 
ATOM     12  C   LIG A   1      -6.114   0.343 128.609  0.00  0.00    +0.006 C 
ATOM     13  C   LIG A   1      -5.019   0.277 129.659  0.00  0.00    +0.031 C 
ATOM     14  C   LIG A   1      -5.595  -0.499 130.811  0.00  0.00    -0.026 C 
ATOM     15  C   LIG A   1      -6.184  -1.698 130.651  0.00  0.00    -0.060 C 
ATOM     16  C   LIG A   1      -6.282  -2.287 129.229  0.00  0.00    -0.005 C 
ATOM     17  C   LIG A   1      -7.454  -3.296 129.030  0.00  0.00    +0.016 C 
ATOM     18  C   LIG A   1      -4.951  -3.135 129.201  0.00  0.00    +0.012 C 
ATOM     19  C   LIG A   1      -4.811  -4.179 130.350  0.00  0.00    +0.019 C 
ATOM     20  C   LIG A   1      -5.173  -3.702 131.801  0.00  0.00    +0.077 C 
ATOM     21  C   LIG A   1      -6.383  -2.711 131.784  0.00  0.00    +0.064 C 
ATOM     22  C   LIG A   1      -6.956  -2.309 133.191  0.00  0.00    +0.073 C 
ATOM     23  C   LIG A   1      -6.104  -1.411 134.091  0.00  0.00    +0.042 C 
ATOM     24  C   LIG A   1      -7.349  -3.634 133.928  0.00  0.00    +0.018 C 
ATOM     25  C   LIG A   1      -7.952  -3.424 135.322  0.00  0.00    +0.010 C 
ATOM     26  C   LIG A   1      -6.174  -4.621 134.005  0.00  0.00    +0.007 C 
ATOM     27  C   LIG A   1      -5.599  -4.953 132.626  0.00  0.00    +0.019 C 
ENDROOT
BRANCH   7  28
ATOM     28  O   LIG A   1      -6.625   1.383 124.020  0.00  0.00    -0.391 OA
ATOM     29  H   LIG A   1      -6.078   1.533 123.218  0.00  0.00    +0.210 HD
ENDBRANCH   7  28
BRANCH  20  30
ATOM     30  C   LIG A   1      -3.865  -3.156 132.428  0.00  0.00    +0.314 C 
ATOM     31  O   LIG A   1      -3.545  -1.980 132.444  0.00  0.00    -0.250 OA
BRANCH  30  32
ATOM     32  O   LIG A   1      -3.140  -4.135 133.015  0.00  0.00    -0.468 OA
ATOM     33  C   LIG A   1      -2.487  -3.863 134.256  0.00  0.00    +0.280 C 
ENDBRANCH  30  32
ENDBRANCH  20  30
BRANCH  22  34
ATOM     34  O   LIG A   1      -8.190  -1.596 132.964  0.00  0.00    -0.388 OA
ATOM     35  H   LIG A   1      -8.368  -1.065 133.761  0.00  0.00    +0.210 HD
ENDBRANCH  22  34
BRANCH   6  36
ATOM     36  C   LIG A   1      -7.882   4.161 126.333  0.00  0.00    +0.167 C 
BRANCH  36  37
ATOM     37  O   LIG A   1      -8.667   5.001 125.487  0.00  0.00    -0.394 OA
ATOM     38  H   LIG A   1      -9.524   5.138 125.930  0.00  0.00    +0.209 HD
ENDBRANCH  36  37
ENDBRANCH   6  36
BRANCH   6  39
ATOM     39  C   LIG A   1      -9.155   2.532 125.022  0.00  0.00    +0.167 C 
BRANCH  39  40
ATOM     40  O   LIG A   1      -9.129   2.962 123.664  0.00  0.00    -0.394 OA
ATOM     41  H   LIG A   1      -9.178   3.936 123.682  0.00  0.00    +0.209 HD
ENDBRANCH  39  40
ENDBRANCH   6  39
TORSDOF 8
ENDMDL
MODEL 4
REMARK VINA RESULT:      -8.1      2.550      8.358
REMARK  Name = NuBBE_481
REMARK  14 active torsions:
REMARK  status: ('A' for Active; 'I' for Inactive)
REMARK    1  A    between atoms: C_1  and  C_2
REMARK    2  A    between atoms: C_6  and  C_7
REMARK    3  A    between atoms: C_6  and  C_9
REMARK    4  A    between atoms: C_7  and  O_8
REMARK    5  A    between atoms: C_9  and  O_10
REMARK    6  A    between atoms: C_11  and  O_13
REMARK    7  A    between atoms: C_16  and  C_17
REMARK    8  A    between atoms: C_22  and  C_23
REMARK    9  A    between atoms: C_26  and  C_27
REMARK   10  A    between atoms: C_27  and  O_28
REMARK   11  A    between atoms: O_28  and  C_29
REMARK   12  A    between atoms: C_32  and  C_33
REMARK   13  A    between atoms: C_32  and  O_34
REMARK   14  A    between atoms: C_35  and  C_37
REMARK                            x       y       z     vdW  Elec       q    Type
REMARK                         _______ _______ _______ _____ _____    ______ ____
ROOT
ATOM      1  C   LIG A   1      -5.678   3.859 128.207  0.00  0.00    +0.012 C 
ATOM      2  C   LIG A   1      -7.010   3.154 127.873  0.00  0.00    -0.019 C 
ATOM      3  C   LIG A   1      -8.002   4.227 127.338  0.00  0.00    +0.008 C 
ATOM      4  C   LIG A   1      -8.450   5.263 128.377  0.00  0.00    +0.005 C 
ATOM      5  C   LIG A   1      -9.039   4.757 129.728  0.00  0.00    +0.008 C 
ATOM      6  C   LIG A   1      -9.359   5.964 130.742  0.00  0.00    +0.046 C 
ATOM      7  C   LIG A   1      -8.061   6.381 131.495  0.00  0.00    +0.125 C 
ATOM      8  C   LIG A   1      -7.343   5.196 132.149  0.00  0.00    +0.032 C 
ATOM      9  C   LIG A   1      -6.973   4.091 131.145  0.00  0.00    +0.010 C 
ATOM     10  C   LIG A   1      -8.172   3.559 130.326  0.00  0.00    -0.025 C 
ATOM     11  C   LIG A   1      -9.016   2.702 131.321  0.00  0.00    +0.012 C 
ATOM     12  C   LIG A   1      -7.814   2.589 129.114  0.00  0.00    +0.006 C 
ATOM     13  C   LIG A   1      -7.353   1.177 129.427  0.00  0.00    +0.031 C 
ATOM     14  C   LIG A   1      -7.755   0.337 128.247  0.00  0.00    -0.026 C 
ATOM     15  C   LIG A   1      -7.448   0.675 126.982  0.00  0.00    -0.060 C 
ATOM     16  C   LIG A   1      -6.666   1.982 126.738  0.00  0.00    -0.005 C 
ATOM     17  C   LIG A   1      -6.882   2.606 125.326  0.00  0.00    +0.016 C 
ATOM     18  C   LIG A   1      -5.193   1.416 126.758  0.00  0.00    +0.012 C 
ATOM     19  C   LIG A   1      -4.914   0.269 125.740  0.00  0.00    +0.019 C 
ATOM     20  C   LIG A   1      -5.982  -0.878 125.640  0.00  0.00    +0.077 C 
ATOM     21  C   LIG A   1      -7.431  -0.315 125.812  0.00  0.00    +0.064 C 
ATOM     22  C   LIG A   1      -8.596  -1.336 125.548  0.00  0.00    +0.073 C 
ATOM     23  C   LIG A   1      -8.808  -2.469 126.554  0.00  0.00    +0.042 C 
ATOM     24  C   LIG A   1      -8.399  -1.899 124.100  0.00  0.00    +0.018 C 
ATOM     25  C   LIG A   1      -9.471  -2.906 123.664  0.00  0.00    +0.010 C 
ATOM     26  C   LIG A   1      -7.000  -2.502 123.901  0.00  0.00    +0.007 C 
ATOM     27  C   LIG A   1      -5.884  -1.503 124.217  0.00  0.00    +0.019 C 
ENDROOT
BRANCH   7  28
ATOM     28  O   LIG A   1      -7.108   7.014 130.637  0.00  0.00    -0.391 OA
ATOM     29  H   LIG A   1      -7.469   7.900 130.415  0.00  0.00    +0.210 HD
ENDBRANCH   7  28
BRANCH  20  30
ATOM     30  C   LIG A   1      -5.558  -1.967 126.657  0.00  0.00    +0.314 C 
ATOM     31  O   LIG A   1      -5.520  -3.162 126.414  0.00  0.00    -0.250 OA
BRANCH  30  32
ATOM     32  O   LIG A   1      -5.172  -1.432 127.837  0.00  0.00    -0.468 OA
ATOM     33  C   LIG A   1      -4.850  -2.306 128.921  0.00  0.00    +0.280 C 
ENDBRANCH  30  32
ENDBRANCH  20  30
BRANCH  22  34
ATOM     34  O   LIG A   1      -9.828  -0.586 125.522  0.00  0.00    -0.388 OA
ATOM     35  H   LIG A   1     -10.307  -0.788 126.345  0.00  0.00    +0.210 HD
ENDBRANCH  22  34
BRANCH   6  36
ATOM     36  C   LIG A   1     -10.460   5.558 131.772  0.00  0.00    +0.167 C 
BRANCH  36  37
ATOM     37  O   LIG A   1     -10.495   6.450 132.885  0.00  0.00    -0.394 OA
ATOM     38  H   LIG A   1     -10.933   7.268 132.586  0.00  0.00    +0.209 HD
ENDBRANCH  36  37
ENDBRANCH   6  36
BRANCH   6  39
ATOM     39  C   LIG A   1      -9.991   7.208 130.026  0.00  0.00    +0.167 C 
BRANCH  39  40
ATOM     40  O   LIG A   1     -11.394   7.343 130.227  0.00  0.00    -0.394 OA
ATOM     41  H   LIG A   1     -11.520   7.535 131.175  0.00  0.00    +0.209 HD
ENDBRANCH  39  40
ENDBRANCH   6  39
TORSDOF 8
ENDMDL
MODEL 5
REMARK VINA RESULT:      -8.1      4.415      7.255
REMARK  Name = NuBBE_481
REMARK  14 active torsions:
REMARK  status: ('A' for Active; 'I' for Inactive)
REMARK    1  A    between atoms: C_1  and  C_2
REMARK    2  A    between atoms: C_6  and  C_7
REMARK    3  A    between atoms: C_6  and  C_9
REMARK    4  A    between atoms: C_7  and  O_8
REMARK    5  A    between atoms: C_9  and  O_10
REMARK    6  A    between atoms: C_11  and  O_13
REMARK    7  A    between atoms: C_16  and  C_17
REMARK    8  A    between atoms: C_22  and  C_23
REMARK    9  A    between atoms: C_26  and  C_27
REMARK   10  A    between atoms: C_27  and  O_28
REMARK   11  A    between atoms: O_28  and  C_29
REMARK   12  A    between atoms: C_32  and  C_33
REMARK   13  A    between atoms: C_32  and  O_34
REMARK   14  A    between atoms: C_35  and  C_37
REMARK                            x       y       z     vdW  Elec       q    Type
REMARK                         _______ _______ _______ _____ _____    ______ ____
ROOT
ATOM      1  C   LIG A   1      -6.365   2.939 129.417  0.00  0.00    +0.012 C 
ATOM      2  C   LIG A   1      -7.131   2.141 130.493  0.00  0.00    -0.019 C 
ATOM      3  C   LIG A   1      -8.596   1.952 130.002  0.00  0.00    +0.008 C 
ATOM      4  C   LIG A   1      -9.420   3.243 129.925  0.00  0.00    +0.005 C 
ATOM      5  C   LIG A   1      -9.496   4.155 131.186  0.00  0.00    +0.008 C 
ATOM      6  C   LIG A   1     -10.309   5.515 130.905  0.00  0.00    +0.046 C 
ATOM      7  C   LIG A   1      -9.372   6.563 130.237  0.00  0.00    +0.125 C 
ATOM      8  C   LIG A   1      -8.064   6.772 131.007  0.00  0.00    +0.032 C 
ATOM      9  C   LIG A   1      -7.263   5.471 131.190  0.00  0.00    +0.010 C 
ATOM     10  C   LIG A   1      -8.062   4.330 131.863  0.00  0.00    -0.025 C 
ATOM     11  C   LIG A   1      -8.199   4.738 133.364  0.00  0.00    +0.012 C 
ATOM     12  C   LIG A   1      -7.366   2.898 131.864  0.00  0.00    +0.006 C 
ATOM     13  C   LIG A   1      -6.185   2.666 132.790  0.00  0.00    +0.031 C 
ATOM     14  C   LIG A   1      -6.192   1.197 133.112  0.00  0.00    -0.026 C 
ATOM     15  C   LIG A   1      -6.251   0.249 132.159  0.00  0.00    -0.060 C 
ATOM     16  C   LIG A   1      -6.329   0.692 130.684  0.00  0.00    -0.005 C 
ATOM     17  C   LIG A   1      -6.996  -0.350 129.735  0.00  0.00    +0.016 C 
ATOM     18  C   LIG A   1      -4.792   0.704 130.329  0.00  0.00    +0.012 C 
ATOM     19  C   LIG A   1      -4.046  -0.641 130.586  0.00  0.00    +0.019 C 
ATOM     20  C   LIG A   1      -4.329  -1.370 131.947  0.00  0.00    +0.077 C 
ATOM     21  C   LIG A   1      -5.825  -1.207 132.374  0.00  0.00    +0.064 C 
ATOM     22  C   LIG A   1      -6.273  -2.047 133.625  0.00  0.00    +0.073 C 
ATOM     23  C   LIG A   1      -5.732  -1.645 134.999  0.00  0.00    +0.042 C 
ATOM     24  C   LIG A   1      -5.957  -3.548 133.312  0.00  0.00    +0.018 C 
ATOM     25  C   LIG A   1      -6.354  -4.521 134.430  0.00  0.00    +0.010 C 
ATOM     26  C   LIG A   1      -4.484  -3.760 132.929  0.00  0.00    +0.007 C 
ATOM     27  C   LIG A   1      -4.059  -2.890 131.744  0.00  0.00    +0.019 C 
ENDROOT
BRANCH   7  28
ATOM     28  O   LIG A   1      -9.008   6.203 128.902  0.00  0.00    -0.391 OA
ATOM     29  H   LIG A   1      -8.403   5.432 128.970  0.00  0.00    +0.210 HD
ENDBRANCH   7  28
BRANCH  20  30
ATOM     30  C   LIG A   1      -3.279  -0.843 132.958  0.00  0.00    +0.314 C 
ATOM     31  O   LIG A   1      -3.434   0.138 133.666  0.00  0.00    -0.250 OA
BRANCH  30  32
ATOM     32  O   LIG A   1      -2.186  -1.637 133.010  0.00  0.00    -0.468 OA
ATOM     33  C   LIG A   1      -1.177  -1.363 133.984  0.00  0.00    +0.280 C 
ENDBRANCH  30  32
ENDBRANCH  20  30
BRANCH  22  34
ATOM     34  O   LIG A   1      -7.710  -1.950 133.714  0.00  0.00    -0.388 OA
ATOM     35  H   LIG A   1      -8.076  -2.800 133.413  0.00  0.00    +0.210 HD
ENDBRANCH  22  34
BRANCH   6  36
ATOM     36  C   LIG A   1     -10.901   6.100 132.227  0.00  0.00    +0.167 C 
BRANCH  36  37
ATOM     37  O   LIG A   1     -12.283   6.425 132.085  0.00  0.00    -0.394 OA
ATOM     38  H   LIG A   1     -12.344   7.153 131.441  0.00  0.00    +0.209 HD
ENDBRANCH  36  37
ENDBRANCH   6  36
BRANCH   6  39
ATOM     39  C   LIG A   1     -11.584   5.288 130.021  0.00  0.00    +0.167 C 
BRANCH  39  40
ATOM     40  O   LIG A   1     -11.765   6.267 129.001  0.00  0.00    -0.394 OA
ATOM     41  H   LIG A   1     -11.636   7.135 129.426  0.00  0.00    +0.209 HD
ENDBRANCH  39  40
ENDBRANCH   6  39
TORSDOF 8
ENDMDL
MODEL 6
REMARK VINA RESULT:      -7.9      2.280      3.140
REMARK  Name = NuBBE_481
REMARK  14 active torsions:
REMARK  status: ('A' for Active; 'I' for Inactive)
REMARK    1  A    between atoms: C_1  and  C_2
REMARK    2  A    between atoms: C_6  and  C_7
REMARK    3  A    between atoms: C_6  and  C_9
REMARK    4  A    between atoms: C_7  and  O_8
REMARK    5  A    between atoms: C_9  and  O_10
REMARK    6  A    between atoms: C_11  and  O_13
REMARK    7  A    between atoms: C_16  and  C_17
REMARK    8  A    between atoms: C_22  and  C_23
REMARK    9  A    between atoms: C_26  and  C_27
REMARK   10  A    between atoms: C_27  and  O_28
REMARK   11  A    between atoms: O_28  and  C_29
REMARK   12  A    between atoms: C_32  and  C_33
REMARK   13  A    between atoms: C_32  and  O_34
REMARK   14  A    between atoms: C_35  and  C_37
REMARK                            x       y       z     vdW  Elec       q    Type
REMARK                         _______ _______ _______ _____ _____    ______ ____
ROOT
ATOM      1  C   LIG A   1      -5.611   0.322 129.047  0.00  0.00    +0.012 C 
ATOM      2  C   LIG A   1      -7.034   0.883 128.840  0.00  0.00    -0.019 C 
ATOM      3  C   LIG A   1      -8.037  -0.304 128.921  0.00  0.00    +0.008 C 
ATOM      4  C   LIG A   1      -7.931  -1.315 127.773  0.00  0.00    +0.005 C 
ATOM      5  C   LIG A   1      -7.994  -0.788 126.308  0.00  0.00    +0.008 C 
ATOM      6  C   LIG A   1      -7.762  -1.960 125.230  0.00  0.00    +0.046 C 
ATOM      7  C   LIG A   1      -6.237  -2.215 125.045  0.00  0.00    +0.125 C 
ATOM      8  C   LIG A   1      -5.450  -0.935 124.747  0.00  0.00    +0.032 C 
ATOM      9  C   LIG A   1      -5.621   0.140 125.834  0.00  0.00    +0.010 C 
ATOM     10  C   LIG A   1      -7.094   0.515 126.121  0.00  0.00    -0.025 C 
ATOM     11  C   LIG A   1      -7.566   1.348 124.887  0.00  0.00    +0.012 C 
ATOM     12  C   LIG A   1      -7.342   1.443 127.391  0.00  0.00    +0.006 C 
ATOM     13  C   LIG A   1      -6.947   2.907 127.309  0.00  0.00    +0.031 C 
ATOM     14  C   LIG A   1      -7.865   3.639 128.248  0.00  0.00    -0.026 C 
ATOM     15  C   LIG A   1      -8.044   3.258 129.526  0.00  0.00    -0.060 C 
ATOM     16  C   LIG A   1      -7.287   2.016 130.038  0.00  0.00    -0.005 C 
ATOM     17  C   LIG A   1      -7.972   1.295 131.239  0.00  0.00    +0.016 C 
ATOM     18  C   LIG A   1      -5.992   2.712 130.611  0.00  0.00    +0.012 C 
ATOM     19  C   LIG A   1      -6.257   3.820 131.675  0.00  0.00    +0.019 C 
ATOM     20  C   LIG A   1      -7.393   4.858 131.364  0.00  0.00    +0.077 C 
ATOM     21  C   LIG A   1      -8.591   4.178 130.623  0.00  0.00    +0.064 C 
ATOM     22  C   LIG A   1      -9.867   5.073 130.423  0.00  0.00    +0.073 C 
ATOM     23  C   LIG A   1      -9.786   6.238 129.433  0.00  0.00    +0.042 C 
ATOM     24  C   LIG A   1     -10.313   5.569 131.840  0.00  0.00    +0.018 C 
ATOM     25  C   LIG A   1     -11.570   6.448 131.833  0.00  0.00    +0.010 C 
ATOM     26  C   LIG A   1      -9.175   6.283 132.586  0.00  0.00    +0.007 C 
ATOM     27  C   LIG A   1      -7.926   5.409 132.719  0.00  0.00    +0.019 C 
ENDROOT
BRANCH   7  28
ATOM     28  O   LIG A   1      -5.634  -2.807 126.199  0.00  0.00    -0.391 OA
ATOM     29  H   LIG A   1      -6.305  -3.406 126.594  0.00  0.00    +0.210 HD
ENDBRANCH   7  28
BRANCH  20  30
ATOM     30  C   LIG A   1      -6.722   6.038 130.615  0.00  0.00    +0.314 C 
ATOM     31  O   LIG A   1      -7.033   7.209 130.751  0.00  0.00    -0.250 OA
BRANCH  30  32
ATOM     32  O   LIG A   1      -5.701   5.622 129.832  0.00  0.00    -0.468 OA
ATOM     33  C   LIG A   1      -4.489   6.379 129.816  0.00  0.00    +0.280 C 
ENDBRANCH  30  32
ENDBRANCH  20  30
BRANCH  22  34
ATOM     34  O   LIG A   1     -10.924   4.214 129.947  0.00  0.00    -0.388 OA
ATOM     35  H   LIG A   1     -10.504   3.431 129.551  0.00  0.00    +0.210 HD
ENDBRANCH  22  34
BRANCH   6  36
ATOM     36  C   LIG A   1      -8.409  -1.597 123.856  0.00  0.00    +0.167 C 
BRANCH  36  37
ATOM     37  O   LIG A   1      -9.675  -2.233 123.685  0.00  0.00    -0.394 OA
ATOM     38  H   LIG A   1      -9.552  -2.953 123.040  0.00  0.00    +0.209 HD
ENDBRANCH  36  37
ENDBRANCH   6  36
BRANCH   6  39
ATOM     39  C   LIG A   1      -8.489  -3.294 125.618  0.00  0.00    +0.167 C 
BRANCH  39  40
ATOM     40  O   LIG A   1      -8.073  -4.425 124.857  0.00  0.00    -0.394 OA
ATOM     41  H   LIG A   1      -7.404  -4.888 125.395  0.00  0.00    +0.209 HD
ENDBRANCH  39  40
ENDBRANCH   6  39
TORSDOF 8
ENDMDL
MODEL 7
REMARK VINA RESULT:      -7.7      3.220      5.049
REMARK  Name = NuBBE_481
REMARK  14 active torsions:
REMARK  status: ('A' for Active; 'I' for Inactive)
REMARK    1  A    between atoms: C_1  and  C_2
REMARK    2  A    between atoms: C_6  and  C_7
REMARK    3  A    between atoms: C_6  and  C_9
REMARK    4  A    between atoms: C_7  and  O_8
REMARK    5  A    between atoms: C_9  and  O_10
REMARK    6  A    between atoms: C_11  and  O_13
REMARK    7  A    between atoms: C_16  and  C_17
REMARK    8  A    between atoms: C_22  and  C_23
REMARK    9  A    between atoms: C_26  and  C_27
REMARK   10  A    between atoms: C_27  and  O_28
REMARK   11  A    between atoms: O_28  and  C_29
REMARK   12  A    between atoms: C_32  and  C_33
REMARK   13  A    between atoms: C_32  and  O_34
REMARK   14  A    between atoms: C_35  and  C_37
REMARK                            x       y       z     vdW  Elec       q    Type
REMARK                         _______ _______ _______ _____ _____    ______ ____
ROOT
ATOM      1  C   LIG A   1      -6.174   0.143 128.846  0.00  0.00    +0.012 C 
ATOM      2  C   LIG A   1      -5.904  -1.354 129.108  0.00  0.00    -0.019 C 
ATOM      3  C   LIG A   1      -4.884  -1.853 128.044  0.00  0.00    +0.008 C 
ATOM      4  C   LIG A   1      -5.415  -1.879 126.605  0.00  0.00    +0.005 C 
ATOM      5  C   LIG A   1      -6.750  -2.629 126.317  0.00  0.00    +0.008 C 
ATOM      6  C   LIG A   1      -7.219  -2.470 124.786  0.00  0.00    +0.046 C 
ATOM      7  C   LIG A   1      -7.969  -1.120 124.600  0.00  0.00    +0.125 C 
ATOM      8  C   LIG A   1      -9.098  -0.918 125.617  0.00  0.00    +0.032 C 
ATOM      9  C   LIG A   1      -8.610  -0.991 127.074  0.00  0.00    +0.010 C 
ATOM     10  C   LIG A   1      -7.853  -2.295 127.420  0.00  0.00    -0.025 C 
ATOM     11  C   LIG A   1      -8.942  -3.413 127.477  0.00  0.00    +0.012 C 
ATOM     12  C   LIG A   1      -7.125  -2.325 128.836  0.00  0.00    +0.006 C 
ATOM     13  C   LIG A   1      -7.977  -2.444 130.087  0.00  0.00    +0.031 C 
ATOM     14  C   LIG A   1      -7.116  -3.128 131.113  0.00  0.00    -0.026 C 
ATOM     15  C   LIG A   1      -5.876  -2.702 131.412  0.00  0.00    -0.060 C 
ATOM     16  C   LIG A   1      -5.316  -1.475 130.663  0.00  0.00    -0.005 C 
ATOM     17  C   LIG A   1      -3.759  -1.422 130.590  0.00  0.00    +0.016 C 
ATOM     18  C   LIG A   1      -5.758  -0.333 131.658  0.00  0.00    +0.012 C 
ATOM     19  C   LIG A   1      -5.259  -0.507 133.124  0.00  0.00    +0.019 C 
ATOM     20  C   LIG A   1      -5.401  -1.932 133.767  0.00  0.00    +0.077 C 
ATOM     21  C   LIG A   1      -5.141  -3.056 132.710  0.00  0.00    +0.064 C 
ATOM     22  C   LIG A   1      -5.072  -4.520 133.275  0.00  0.00    +0.073 C 
ATOM     23  C   LIG A   1      -6.364  -5.161 133.786  0.00  0.00    +0.042 C 
ATOM     24  C   LIG A   1      -3.959  -4.541 134.376  0.00  0.00    +0.018 C 
ATOM     25  C   LIG A   1      -3.741  -5.914 135.025  0.00  0.00    +0.010 C 
ATOM     26  C   LIG A   1      -4.200  -3.479 135.459  0.00  0.00    +0.007 C 
ATOM     27  C   LIG A   1      -4.318  -2.069 134.878  0.00  0.00    +0.019 C 
ENDROOT
BRANCH   7  28
ATOM     28  O   LIG A   1      -7.103   0.012 124.720  0.00  0.00    -0.391 OA
ATOM     29  H   LIG A   1      -7.351   0.637 124.004  0.00  0.00    +0.210 HD
ENDBRANCH   7  28
BRANCH  20  30
ATOM     30  C   LIG A   1      -6.785  -1.969 134.461  0.00  0.00    +0.314 C 
ATOM     31  O   LIG A   1      -7.847  -2.112 133.879  0.00  0.00    -0.250 OA
BRANCH  30  32
ATOM     32  O   LIG A   1      -6.677  -1.884 135.806  0.00  0.00    -0.468 OA
ATOM     33  C   LIG A   1      -7.515  -2.705 136.621  0.00  0.00    +0.280 C 
ENDBRANCH  30  32
ENDBRANCH  20  30
BRANCH  22  34
ATOM     34  O   LIG A   1      -4.597  -5.369 132.209  0.00  0.00    -0.388 OA
ATOM     35  H   LIG A   1      -4.264  -4.788 131.503  0.00  0.00    +0.210 HD
ENDBRANCH  22  34
BRANCH   6  36
ATOM     36  C   LIG A   1      -8.143  -3.653 124.355  0.00  0.00    +0.167 C 
BRANCH  36  37
ATOM     37  O   LIG A   1      -8.948  -3.308 123.228  0.00  0.00    -0.394 OA
ATOM     38  H   LIG A   1      -8.454  -3.570 122.429  0.00  0.00    +0.209 HD
ENDBRANCH  36  37
ENDBRANCH   6  36
BRANCH   6  39
ATOM     39  C   LIG A   1      -6.026  -2.570 123.773  0.00  0.00    +0.167 C 
BRANCH  39  40
ATOM     40  O   LIG A   1      -6.267  -1.921 122.528  0.00  0.00    -0.394 OA
ATOM     41  H   LIG A   1      -5.403  -1.856 122.079  0.00  0.00    +0.209 HD
ENDBRANCH  39  40
ENDBRANCH   6  39
TORSDOF 8
ENDMDL
MODEL 8
REMARK VINA RESULT:      -7.7      4.668      7.461
REMARK  Name = NuBBE_481
REMARK  14 active torsions:
REMARK  status: ('A' for Active; 'I' for Inactive)
REMARK    1  A    between atoms: C_1  and  C_2
REMARK    2  A    between atoms: C_6  and  C_7
REMARK    3  A    between atoms: C_6  and  C_9
REMARK    4  A    between atoms: C_7  and  O_8
REMARK    5  A    between atoms: C_9  and  O_10
REMARK    6  A    between atoms: C_11  and  O_13
REMARK    7  A    between atoms: C_16  and  C_17
REMARK    8  A    between atoms: C_22  and  C_23
REMARK    9  A    between atoms: C_26  and  C_27
REMARK   10  A    between atoms: C_27  and  O_28
REMARK   11  A    between atoms: O_28  and  C_29
REMARK   12  A    between atoms: C_32  and  C_33
REMARK   13  A    between atoms: C_32  and  O_34
REMARK   14  A    between atoms: C_35  and  C_37
REMARK                            x       y       z     vdW  Elec       q    Type
REMARK                         _______ _______ _______ _____ _____    ______ ____
ROOT
ATOM      1  C   LIG A   1      -6.268   1.219 130.115  0.00  0.00    +0.012 C 
ATOM      2  C   LIG A   1      -7.178   0.727 131.261  0.00  0.00    -0.019 C 
ATOM      3  C   LIG A   1      -8.656   0.850 130.789  0.00  0.00    +0.008 C 
ATOM      4  C   LIG A   1      -9.151   2.289 130.593  0.00  0.00    +0.005 C 
ATOM      5  C   LIG A   1      -8.979   3.302 131.764  0.00  0.00    +0.008 C 
ATOM      6  C   LIG A   1      -9.451   4.786 131.358  0.00  0.00    +0.046 C 
ATOM      7  C   LIG A   1      -8.307   5.515 130.595  0.00  0.00    +0.125 C 
ATOM      8  C   LIG A   1      -6.969   5.473 131.342  0.00  0.00    +0.032 C 
ATOM      9  C   LIG A   1      -6.498   4.041 131.646  0.00  0.00    +0.010 C 
ATOM     10  C   LIG A   1      -7.531   3.190 132.421  0.00  0.00    -0.025 C 
ATOM     11  C   LIG A   1      -7.533   3.753 133.878  0.00  0.00    +0.012 C 
ATOM     12  C   LIG A   1      -7.196   1.639 132.556  0.00  0.00    +0.006 C 
ATOM     13  C   LIG A   1      -6.084   1.215 133.499  0.00  0.00    +0.031 C 
ATOM     14  C   LIG A   1      -6.432  -0.174 133.956  0.00  0.00    -0.026 C 
ATOM     15  C   LIG A   1      -6.736  -1.162 133.095  0.00  0.00    -0.060 C 
ATOM     16  C   LIG A   1      -6.740  -0.849 131.585  0.00  0.00    -0.005 C 
ATOM     17  C   LIG A   1      -7.657  -1.782 130.737  0.00  0.00    +0.016 C 
ATOM     18  C   LIG A   1      -5.252  -1.237 131.230  0.00  0.00    +0.012 C 
ATOM     19  C   LIG A   1      -4.843  -2.692 131.611  0.00  0.00    +0.019 C 
ATOM     20  C   LIG A   1      -5.260  -3.206 133.034  0.00  0.00    +0.077 C 
ATOM     21  C   LIG A   1      -6.665  -2.652 133.445  0.00  0.00    +0.064 C 
ATOM     22  C   LIG A   1      -7.272  -3.244 134.768  0.00  0.00    +0.073 C 
ATOM     23  C   LIG A   1      -6.620  -2.861 136.099  0.00  0.00    +0.042 C 
ATOM     24  C   LIG A   1      -7.329  -4.800 134.597  0.00  0.00    +0.018 C 
ATOM     25  C   LIG A   1      -7.921  -5.545 135.800  0.00  0.00    +0.010 C 
ATOM     26  C   LIG A   1      -5.958  -5.391 134.235  0.00  0.00    +0.007 C 
ATOM     27  C   LIG A   1      -5.365  -4.759 132.974  0.00  0.00    +0.019 C 
ENDROOT
BRANCH   7  28
ATOM     28  O   LIG A   1      -8.069   4.959 129.299  0.00  0.00    -0.391 OA
ATOM     29  H   LIG A   1      -7.220   5.337 128.979  0.00  0.00    +0.210 HD
ENDBRANCH   7  28
BRANCH  20  30
ATOM     30  C   LIG A   1      -4.093  -2.856 133.992  0.00  0.00    +0.314 C 
ATOM     31  O   LIG A   1      -4.072  -1.885 134.729  0.00  0.00    -0.250 OA
BRANCH  30  32
ATOM     32  O   LIG A   1      -3.118  -3.792 133.961  0.00  0.00    -0.468 OA
ATOM     33  C   LIG A   1      -2.259  -3.934 135.093  0.00  0.00    +0.280 C 
ENDBRANCH  30  32
ENDBRANCH  20  30
BRANCH  22  34
ATOM     34  O   LIG A   1      -8.642  -2.799 134.849  0.00  0.00    -0.388 OA
ATOM     35  H   LIG A   1      -9.131  -3.236 134.129  0.00  0.00    +0.210 HD
ENDBRANCH  22  34
BRANCH   6  36
ATOM     36  C   LIG A   1      -9.857   5.612 132.620  0.00  0.00    +0.167 C 
BRANCH  36  37
ATOM     37  O   LIG A   1     -11.221   6.027 132.560  0.00  0.00    -0.394 OA
ATOM     38  H   LIG A   1     -11.755   5.238 132.359  0.00  0.00    +0.209 HD
ENDBRANCH  36  37
ENDBRANCH   6  36
BRANCH   6  39
ATOM     39  C   LIG A   1     -10.763   4.792 130.498  0.00  0.00    +0.167 C 
BRANCH  39  40
ATOM     40  O   LIG A   1     -10.760   5.747 129.441  0.00  0.00    -0.394 OA
ATOM     41  H   LIG A   1     -11.637   5.695 129.019  0.00  0.00    +0.209 HD
ENDBRANCH  39  40
ENDBRANCH   6  39
TORSDOF 8
ENDMDL
MODEL 9
REMARK VINA RESULT:      -7.6      2.532      8.503
REMARK  Name = NuBBE_481
REMARK  14 active torsions:
REMARK  status: ('A' for Active; 'I' for Inactive)
REMARK    1  A    between atoms: C_1  and  C_2
REMARK    2  A    between atoms: C_6  and  C_7
REMARK    3  A    between atoms: C_6  and  C_9
REMARK    4  A    between atoms: C_7  and  O_8
REMARK    5  A    between atoms: C_9  and  O_10
REMARK    6  A    between atoms: C_11  and  O_13
REMARK    7  A    between atoms: C_16  and  C_17
REMARK    8  A    between atoms: C_22  and  C_23
REMARK    9  A    between atoms: C_26  and  C_27
REMARK   10  A    between atoms: C_27  and  O_28
REMARK   11  A    between atoms: O_28  and  C_29
REMARK   12  A    between atoms: C_32  and  C_33
REMARK   13  A    between atoms: C_32  and  O_34
REMARK   14  A    between atoms: C_35  and  C_37
REMARK                            x       y       z     vdW  Elec       q    Type
REMARK                         _______ _______ _______ _____ _____    ______ ____
ROOT
ATOM      1  C   LIG A   1      -4.341   1.520 129.291  0.00  0.00    +0.012 C 
ATOM      2  C   LIG A   1      -5.441   2.202 128.449  0.00  0.00    -0.019 C 
ATOM      3  C   LIG A   1      -4.879   3.557 127.928  0.00  0.00    +0.008 C 
ATOM      4  C   LIG A   1      -4.624   4.607 129.016  0.00  0.00    +0.005 C 
ATOM      5  C   LIG A   1      -5.781   4.961 129.996  0.00  0.00    +0.008 C 
ATOM      6  C   LIG A   1      -5.317   5.997 131.137  0.00  0.00    +0.046 C 
ATOM      7  C   LIG A   1      -4.609   5.231 132.292  0.00  0.00    +0.125 C 
ATOM      8  C   LIG A   1      -5.436   4.055 132.823  0.00  0.00    +0.032 C 
ATOM      9  C   LIG A   1      -5.796   3.034 131.730  0.00  0.00    +0.010 C 
ATOM     10  C   LIG A   1      -6.527   3.649 130.512  0.00  0.00    -0.025 C 
ATOM     11  C   LIG A   1      -7.968   3.984 131.010  0.00  0.00    +0.012 C 
ATOM     12  C   LIG A   1      -6.713   2.690 129.255  0.00  0.00    +0.006 C 
ATOM     13  C   LIG A   1      -7.730   1.566 129.344  0.00  0.00    +0.031 C 
ATOM     14  C   LIG A   1      -8.194   1.313 127.936  0.00  0.00    -0.026 C 
ATOM     15  C   LIG A   1      -7.337   1.109 126.919  0.00  0.00    -0.060 C 
ATOM     16  C   LIG A   1      -5.824   1.152 127.211  0.00  0.00    -0.005 C 
ATOM     17  C   LIG A   1      -4.942   1.524 125.980  0.00  0.00    +0.016 C 
ATOM     18  C   LIG A   1      -5.566  -0.378 127.501  0.00  0.00    +0.012 C 
ATOM     19  C   LIG A   1      -6.001  -1.347 126.361  0.00  0.00    +0.019 C 
ATOM     20  C   LIG A   1      -7.407  -1.102 125.707  0.00  0.00    +0.077 C 
ATOM     21  C   LIG A   1      -7.721   0.427 125.601  0.00  0.00    +0.064 C 
ATOM     22  C   LIG A   1      -9.018   0.804 124.797  0.00  0.00    +0.073 C 
ATOM     23  C   LIG A   1     -10.377   0.465 125.413  0.00  0.00    +0.042 C 
ATOM     24  C   LIG A   1      -8.876   0.177 123.369  0.00  0.00    +0.018 C 
ATOM     25  C   LIG A   1     -10.056   0.467 122.433  0.00  0.00    +0.010 C 
ATOM     26  C   LIG A   1      -8.609  -1.334 123.426  0.00  0.00    +0.007 C 
ATOM     27  C   LIG A   1      -7.373  -1.677 124.261  0.00  0.00    +0.019 C 
ENDROOT
BRANCH   7  28
ATOM     28  O   LIG A   1      -3.341   4.696 131.901  0.00  0.00    -0.391 OA
ATOM     29  H   LIG A   1      -2.730   4.832 132.658  0.00  0.00    +0.210 HD
ENDBRANCH   7  28
BRANCH  20  30
ATOM     30  C   LIG A   1      -8.425  -1.943 126.518  0.00  0.00    +0.314 C 
ATOM     31  O   LIG A   1      -9.399  -2.499 126.039  0.00  0.00    -0.250 OA
BRANCH  30  32
ATOM     32  O   LIG A   1      -8.073  -2.043 127.819  0.00  0.00    -0.468 OA
ATOM     33  C   LIG A   1      -8.283  -3.281 128.501  0.00  0.00    +0.280 C 
ENDBRANCH  30  32
ENDBRANCH  20  30
BRANCH  22  34
ATOM     34  O   LIG A   1      -9.007   2.234 124.610  0.00  0.00    -0.388 OA
ATOM     35  H   LIG A   1      -9.838   2.474 124.164  0.00  0.00    +0.210 HD
ENDBRANCH  22  34
BRANCH   6  36
ATOM     36  C   LIG A   1      -6.535   6.797 131.700  0.00  0.00    +0.167 C 
BRANCH  36  37
ATOM     37  O   LIG A   1      -7.436   7.183 130.664  0.00  0.00    -0.394 OA
ATOM     38  H   LIG A   1      -8.103   7.769 131.064  0.00  0.00    +0.209 HD
ENDBRANCH  36  37
ENDBRANCH   6  36
BRANCH   6  39
ATOM     39  C   LIG A   1      -4.381   7.128 130.585  0.00  0.00    +0.167 C 
BRANCH  39  40
ATOM     40  O   LIG A   1      -5.058   8.124 129.826  0.00  0.00    -0.394 OA
ATOM     41  H   LIG A   1      -6.012   7.971 129.957  0.00  0.00    +0.209 HD
ENDBRANCH  39  40
ENDBRANCH   6  39
TORSDOF 8
ENDMDL
