MODEL 1
REMARK VINA RESULT:      -9.2      0.000      0.000
REMARK  Name = NuBBE_1120
REMARK  10 active torsions:
REMARK  status: ('A' for Active; 'I' for Inactive)
REMARK    1  A    between atoms: C_1  and  C_2
REMARK    2  A    between atoms: C_5  and  C_26
REMARK    3  A    between atoms: C_6  and  O_22
REMARK    4  A    between atoms: C_10  and  C_11
REMARK    5  A    between atoms: C_10  and  C_21
REMARK    6  A    between atoms: C_15  and  C_19
REMARK    7  A    between atoms: O_22  and  C_23
REMARK    8  A    between atoms: C_23  and  C_24
REMARK    9  A    between atoms: C_31  and  C_33
REMARK   10  A    between atoms: C_35  and  O_39
REMARK                            x       y       z     vdW  Elec       q    Type
REMARK                         _______ _______ _______ _____ _____    ______ ____
ROOT
ATOM      1  C   LIG A   1      -7.168   1.863 133.355  0.00  0.00    +0.018 C 
ATOM      2  C   LIG A   1      -8.028   2.355 132.146  0.00  0.00    +0.042 C 
ATOM      3  C   LIG A   1      -7.187   2.317 130.868  0.00  0.00    +0.125 C 
ATOM      4  O   LIG A   1      -5.768   2.406 131.098  0.00  0.00    -0.351 OA
ATOM      5  C   LIG A   1      -7.541   1.337 129.680  0.00  0.00    +0.041 C 
ATOM      6  C   LIG A   1      -6.296   1.135 128.730  0.00  0.00    +0.186 C 
ATOM      7  C   LIG A   1      -5.292   0.042 129.127  0.00  0.00    +0.050 C 
ATOM      8  C   LIG A   1      -5.769  -0.952 130.199  0.00  0.00    +0.016 C 
ATOM      9  C   LIG A   1      -4.762  -2.143 130.414  0.00  0.00    +0.031 C 
ATOM     10  C   LIG A   1      -4.366  -2.909 129.137  0.00  0.00    +0.019 C 
ATOM     11  C   LIG A   1      -5.331  -3.168 131.402  0.00  0.00    +0.162 C 
ATOM     12  C   LIG A   1      -6.791  -3.244 131.614  0.00  0.00    +0.043 C 
ATOM     13  C   LIG A   1      -7.646  -2.452 130.960  0.00  0.00    -0.016 C 
ATOM     14  C   LIG A   1      -7.260  -1.348 129.985  0.00  0.00    -0.006 C 
ATOM     15  C   LIG A   1      -8.164  -0.042 130.175  0.00  0.00    +0.011 C 
ATOM     16  C   LIG A   1      -8.833   0.039 131.578  0.00  0.00    +0.006 C 
ATOM     17  C   LIG A   1      -9.249   1.432 132.024  0.00  0.00    +0.014 C 
ATOM     18  C   LIG A   1      -7.541  -1.985 128.597  0.00  0.00    +0.016 C 
ATOM     19  O   LIG A   1      -4.626  -3.991 131.988  0.00  0.00    -0.292 OA
ATOM     20  C   LIG A   1      -3.455  -1.602 131.043  0.00  0.00    +0.019 C 
ATOM     21  C   LIG A   1      -8.643   2.025 128.823  0.00  0.00    +0.018 C 
ATOM     22  C   LIG A   1      -6.400   3.604 130.627  0.00  0.00    +0.260 C 
ATOM     23  C   LIG A   1      -6.352   4.706 131.613  0.00  0.00    +0.340 C 
ATOM     24  O   LIG A   1      -7.347   4.742 132.540  0.00  0.00    -0.454 OA
ATOM     25  C   LIG A   1      -8.471   3.832 132.484  0.00  0.00    +0.222 C 
ATOM     26  O   LIG A   1      -5.460   5.540 131.578  0.00  0.00    -0.248 OA
ENDROOT
BRANCH  25  27
ATOM     27  C   LIG A   1      -9.562   4.521 131.723  0.00  0.00    +0.079 C 
ATOM     28  C   LIG A   1     -10.225   4.252 130.598  0.00  0.00    +0.061 C 
ATOM     29  C   LIG A   1     -11.246   5.273 130.318  0.00  0.00    +0.334 C 
ATOM     30  O   LIG A   1     -10.987   6.294 131.260  0.00  0.00    -0.428 OA
ATOM     31  C   LIG A   1     -10.092   5.824 132.173  0.00  0.00    +0.341 C 
ATOM     32  O   LIG A   1      -9.773   6.390 133.192  0.00  0.00    -0.245 OA
BRANCH  29  33
ATOM     33  O   LIG A   1     -11.155   5.730 128.989  0.00  0.00    -0.354 OA
ATOM     34  H   LIG A   1     -11.805   6.437 128.860  0.00  0.00    +0.214 HD
ENDBRANCH  29  33
ENDBRANCH  25  27
BRANCH   6  35
ATOM     35  O   LIG A   1      -6.688   0.836 127.366  0.00  0.00    -0.461 OA
BRANCH  35  36
ATOM     36  C   LIG A   1      -5.705   0.876 126.419  0.00  0.00    +0.304 C 
ATOM     37  C   LIG A   1      -5.677  -0.415 125.664  0.00  0.00    +0.136 C 
ATOM     38  O   LIG A   1      -4.964   1.825 126.200  0.00  0.00    -0.251 OA
ENDBRANCH  35  36
ENDBRANCH   6  35
TORSDOF 4
ENDMDL
MODEL 2
REMARK VINA RESULT:      -9.1      3.082      5.140
REMARK  Name = NuBBE_1120
REMARK  10 active torsions:
REMARK  status: ('A' for Active; 'I' for Inactive)
REMARK    1  A    between atoms: C_1  and  C_2
REMARK    2  A    between atoms: C_5  and  C_26
REMARK    3  A    between atoms: C_6  and  O_22
REMARK    4  A    between atoms: C_10  and  C_11
REMARK    5  A    between atoms: C_10  and  C_21
REMARK    6  A    between atoms: C_15  and  C_19
REMARK    7  A    between atoms: O_22  and  C_23
REMARK    8  A    between atoms: C_23  and  C_24
REMARK    9  A    between atoms: C_31  and  C_33
REMARK   10  A    between atoms: C_35  and  O_39
REMARK                            x       y       z     vdW  Elec       q    Type
REMARK                         _______ _______ _______ _____ _____    ______ ____
ROOT
ATOM      1  C   LIG A   1      -4.936  -0.071 128.773  0.00  0.00    +0.018 C 
ATOM      2  C   LIG A   1      -5.709   1.287 128.706  0.00  0.00    +0.042 C 
ATOM      3  C   LIG A   1      -5.725   1.799 127.264  0.00  0.00    +0.125 C 
ATOM      4  O   LIG A   1      -4.640   1.305 126.455  0.00  0.00    -0.351 OA
ATOM      5  C   LIG A   1      -7.073   1.918 126.448  0.00  0.00    +0.041 C 
ATOM      6  C   LIG A   1      -6.787   1.989 124.898  0.00  0.00    +0.186 C 
ATOM      7  C   LIG A   1      -6.639   0.651 124.159  0.00  0.00    +0.050 C 
ATOM      8  C   LIG A   1      -7.115  -0.596 124.923  0.00  0.00    +0.016 C 
ATOM      9  C   LIG A   1      -7.105  -1.895 124.033  0.00  0.00    +0.031 C 
ATOM     10  C   LIG A   1      -7.866  -1.785 122.698  0.00  0.00    +0.019 C 
ATOM     11  C   LIG A   1      -7.696  -3.085 124.798  0.00  0.00    +0.162 C 
ATOM     12  C   LIG A   1      -8.612  -2.842 125.931  0.00  0.00    +0.043 C 
ATOM     13  C   LIG A   1      -8.958  -1.609 126.314  0.00  0.00    -0.016 C 
ATOM     14  C   LIG A   1      -8.432  -0.315 125.706  0.00  0.00    -0.006 C 
ATOM     15  C   LIG A   1      -8.130   0.789 126.825  0.00  0.00    +0.011 C 
ATOM     16  C   LIG A   1      -7.922   0.181 128.242  0.00  0.00    +0.006 C 
ATOM     17  C   LIG A   1      -7.137   1.046 129.216  0.00  0.00    +0.014 C 
ATOM     18  C   LIG A   1      -9.604   0.157 124.804  0.00  0.00    +0.016 C 
ATOM     19  O   LIG A   1      -7.497  -4.255 124.467  0.00  0.00    -0.292 OA
ATOM     20  C   LIG A   1      -5.642  -2.272 123.694  0.00  0.00    +0.019 C 
ATOM     21  C   LIG A   1      -7.733   3.273 126.838  0.00  0.00    +0.018 C 
ATOM     22  C   LIG A   1      -4.509   2.656 126.916  0.00  0.00    +0.260 C 
ATOM     23  C   LIG A   1      -3.372   2.840 127.844  0.00  0.00    +0.340 C 
ATOM     24  O   LIG A   1      -3.607   2.588 129.160  0.00  0.00    -0.454 OA
ATOM     25  C   LIG A   1      -4.936   2.288 129.650  0.00  0.00    +0.222 C 
ATOM     26  O   LIG A   1      -2.282   3.208 127.434  0.00  0.00    -0.248 OA
ENDROOT
BRANCH  25  27
ATOM     27  C   LIG A   1      -5.547   3.581 130.095  0.00  0.00    +0.079 C 
ATOM     28  C   LIG A   1      -5.791   4.748 129.500  0.00  0.00    +0.061 C 
ATOM     29  C   LIG A   1      -6.458   5.689 130.413  0.00  0.00    +0.334 C 
ATOM     30  O   LIG A   1      -6.394   5.056 131.675  0.00  0.00    -0.428 OA
ATOM     31  C   LIG A   1      -5.981   3.770 131.494  0.00  0.00    +0.341 C 
ATOM     32  O   LIG A   1      -5.964   2.917 132.349  0.00  0.00    -0.245 OA
BRANCH  29  33
ATOM     33  O   LIG A   1      -5.817   6.943 130.405  0.00  0.00    -0.354 OA
ATOM     34  H   LIG A   1      -6.388   7.579 129.948  0.00  0.00    +0.214 HD
ENDBRANCH  29  33
ENDBRANCH  25  27
BRANCH   6  35
ATOM     35  O   LIG A   1      -7.810   2.726 124.182  0.00  0.00    -0.461 OA
BRANCH  35  36
ATOM     36  C   LIG A   1      -7.453   3.272 122.983  0.00  0.00    +0.304 C 
ATOM     37  C   LIG A   1      -8.565   3.098 121.997  0.00  0.00    +0.136 C 
ATOM     38  O   LIG A   1      -6.394   3.835 122.742  0.00  0.00    -0.251 OA
ENDBRANCH  35  36
ENDBRANCH   6  35
TORSDOF 4
ENDMDL
MODEL 3
REMARK VINA RESULT:      -8.7      3.219      7.277
REMARK  Name = NuBBE_1120
REMARK  10 active torsions:
REMARK  status: ('A' for Active; 'I' for Inactive)
REMARK    1  A    between atoms: C_1  and  C_2
REMARK    2  A    between atoms: C_5  and  C_26
REMARK    3  A    between atoms: C_6  and  O_22
REMARK    4  A    between atoms: C_10  and  C_11
REMARK    5  A    between atoms: C_10  and  C_21
REMARK    6  A    between atoms: C_15  and  C_19
REMARK    7  A    between atoms: O_22  and  C_23
REMARK    8  A    between atoms: C_23  and  C_24
REMARK    9  A    between atoms: C_31  and  C_33
REMARK   10  A    between atoms: C_35  and  O_39
REMARK                            x       y       z     vdW  Elec       q    Type
REMARK                         _______ _______ _______ _____ _____    ______ ____
ROOT
ATOM      1  C   LIG A   1      -3.022   3.064 127.364  0.00  0.00    +0.018 C 
ATOM      2  C   LIG A   1      -4.550   3.385 127.266  0.00  0.00    +0.042 C 
ATOM      3  C   LIG A   1      -5.251   2.944 128.553  0.00  0.00    +0.125 C 
ATOM      4  O   LIG A   1      -4.564   1.898 129.266  0.00  0.00    -0.351 OA
ATOM      5  C   LIG A   1      -5.917   3.995 129.527  0.00  0.00    +0.041 C 
ATOM      6  C   LIG A   1      -6.126   3.374 130.963  0.00  0.00    +0.186 C 
ATOM      7  C   LIG A   1      -4.939   3.459 131.934  0.00  0.00    +0.050 C 
ATOM      8  C   LIG A   1      -3.809   4.423 131.533  0.00  0.00    +0.016 C 
ATOM      9  C   LIG A   1      -2.726   4.593 132.662  0.00  0.00    +0.031 C 
ATOM     10  C   LIG A   1      -3.273   4.986 134.047  0.00  0.00    +0.019 C 
ATOM     11  C   LIG A   1      -1.686   5.649 132.267  0.00  0.00    +0.162 C 
ATOM     12  C   LIG A   1      -2.036   6.678 131.266  0.00  0.00    +0.043 C 
ATOM     13  C   LIG A   1      -3.242   6.731 130.694  0.00  0.00    -0.016 C 
ATOM     14  C   LIG A   1      -4.376   5.741 130.925  0.00  0.00    -0.006 C 
ATOM     15  C   LIG A   1      -5.143   5.385 129.567  0.00  0.00    +0.011 C 
ATOM     16  C   LIG A   1      -4.293   5.668 128.294  0.00  0.00    +0.006 C 
ATOM     17  C   LIG A   1      -4.705   4.897 127.049  0.00  0.00    +0.014 C 
ATOM     18  C   LIG A   1      -5.328   6.508 131.882  0.00  0.00    +0.016 C 
ATOM     19  O   LIG A   1      -0.578   5.725 132.800  0.00  0.00    -0.292 OA
ATOM     20  C   LIG A   1      -1.956   3.261 132.838  0.00  0.00    +0.019 C 
ATOM     21  C   LIG A   1      -7.337   4.308 128.971  0.00  0.00    +0.018 C 
ATOM     22  C   LIG A   1      -5.716   1.489 128.517  0.00  0.00    +0.260 C 
ATOM     23  C   LIG A   1      -5.384   0.573 127.403  0.00  0.00    +0.340 C 
ATOM     24  O   LIG A   1      -5.026   1.148 126.224  0.00  0.00    -0.454 OA
ATOM     25  C   LIG A   1      -5.096   2.580 126.023  0.00  0.00    +0.222 C 
ATOM     26  O   LIG A   1      -5.441  -0.638 127.550  0.00  0.00    -0.248 OA
ENDROOT
BRANCH  25  27
ATOM     27  C   LIG A   1      -6.434   2.877 125.418  0.00  0.00    +0.079 C 
ATOM     28  C   LIG A   1      -7.694   2.729 125.828  0.00  0.00    +0.061 C 
ATOM     29  C   LIG A   1      -8.648   3.231 124.827  0.00  0.00    +0.334 C 
ATOM     30  O   LIG A   1      -7.854   3.493 123.688  0.00  0.00    -0.428 OA
ATOM     31  C   LIG A   1      -6.541   3.416 124.047  0.00  0.00    +0.341 C 
ATOM     32  O   LIG A   1      -5.607   3.732 123.349  0.00  0.00    -0.245 OA
BRANCH  29  33
ATOM     33  O   LIG A   1      -9.660   2.285 124.573  0.00  0.00    -0.354 OA
ATOM     34  H   LIG A   1      -9.594   2.004 123.647  0.00  0.00    +0.214 HD
ENDBRANCH  29  33
ENDBRANCH  25  27
BRANCH   6  35
ATOM     35  O   LIG A   1      -7.251   3.967 131.661  0.00  0.00    -0.461 OA
BRANCH  35  36
ATOM     36  C   LIG A   1      -7.958   3.151 132.497  0.00  0.00    +0.304 C 
ATOM     37  C   LIG A   1      -8.209   3.852 133.794  0.00  0.00    +0.136 C 
ATOM     38  O   LIG A   1      -8.347   2.022 132.232  0.00  0.00    -0.251 OA
ENDBRANCH  35  36
ENDBRANCH   6  35
TORSDOF 4
ENDMDL
MODEL 4
REMARK VINA RESULT:      -8.7      2.642      5.611
REMARK  Name = NuBBE_1120
REMARK  10 active torsions:
REMARK  status: ('A' for Active; 'I' for Inactive)
REMARK    1  A    between atoms: C_1  and  C_2
REMARK    2  A    between atoms: C_5  and  C_26
REMARK    3  A    between atoms: C_6  and  O_22
REMARK    4  A    between atoms: C_10  and  C_11
REMARK    5  A    between atoms: C_10  and  C_21
REMARK    6  A    between atoms: C_15  and  C_19
REMARK    7  A    between atoms: O_22  and  C_23
REMARK    8  A    between atoms: C_23  and  C_24
REMARK    9  A    between atoms: C_31  and  C_33
REMARK   10  A    between atoms: C_35  and  O_39
REMARK                            x       y       z     vdW  Elec       q    Type
REMARK                         _______ _______ _______ _____ _____    ______ ____
ROOT
ATOM      1  C   LIG A   1      -8.795   2.087 128.329  0.00  0.00    +0.018 C 
ATOM      2  C   LIG A   1      -7.306   2.012 128.803  0.00  0.00    +0.042 C 
ATOM      3  C   LIG A   1      -6.933   0.557 129.096  0.00  0.00    +0.125 C 
ATOM      4  O   LIG A   1      -8.058  -0.282 129.423  0.00  0.00    -0.351 OA
ATOM      5  C   LIG A   1      -5.851  -0.204 128.232  0.00  0.00    +0.041 C 
ATOM      6  C   LIG A   1      -5.997  -1.767 128.399  0.00  0.00    +0.186 C 
ATOM      7  C   LIG A   1      -7.004  -2.471 127.476  0.00  0.00    +0.050 C 
ATOM      8  C   LIG A   1      -7.504  -1.650 126.276  0.00  0.00    +0.016 C 
ATOM      9  C   LIG A   1      -8.381  -2.499 125.282  0.00  0.00    +0.031 C 
ATOM     10  C   LIG A   1      -7.732  -3.804 124.781  0.00  0.00    +0.019 C 
ATOM     11  C   LIG A   1      -8.759  -1.675 124.045  0.00  0.00    +0.162 C 
ATOM     12  C   LIG A   1      -7.931  -0.512 123.664  0.00  0.00    +0.043 C 
ATOM     13  C   LIG A   1      -6.847  -0.153 124.358  0.00  0.00    -0.016 C 
ATOM     14  C   LIG A   1      -6.353  -0.821 125.634  0.00  0.00    -0.006 C 
ATOM     15  C   LIG A   1      -5.840   0.250 126.707  0.00  0.00    +0.011 C 
ATOM     16  C   LIG A   1      -6.419   1.675 126.471  0.00  0.00    +0.006 C 
ATOM     17  C   LIG A   1      -6.422   2.589 127.688  0.00  0.00    +0.014 C 
ATOM     18  C   LIG A   1      -5.161  -1.687 125.144  0.00  0.00    +0.016 C 
ATOM     19  O   LIG A   1      -9.693  -1.978 123.302  0.00  0.00    -0.292 OA
ATOM     20  C   LIG A   1      -9.710  -2.888 125.975  0.00  0.00    +0.019 C 
ATOM     21  C   LIG A   1      -4.453   0.172 128.804  0.00  0.00    +0.018 C 
ATOM     22  C   LIG A   1      -7.246   0.133 130.530  0.00  0.00    +0.260 C 
ATOM     23  C   LIG A   1      -7.969   1.006 131.480  0.00  0.00    +0.340 C 
ATOM     24  O   LIG A   1      -7.979   2.337 131.202  0.00  0.00    -0.454 OA
ATOM     25  C   LIG A   1      -7.208   2.892 130.109  0.00  0.00    +0.222 C 
ATOM     26  O   LIG A   1      -8.518   0.539 132.466  0.00  0.00    -0.248 OA
ENDROOT
BRANCH  25  27
ATOM     27  C   LIG A   1      -5.889   3.323 130.672  0.00  0.00    +0.079 C 
ATOM     28  C   LIG A   1      -4.948   2.724 131.401  0.00  0.00    +0.061 C 
ATOM     29  C   LIG A   1      -3.808   3.620 131.651  0.00  0.00    +0.334 C 
ATOM     30  O   LIG A   1      -4.250   4.883 131.192  0.00  0.00    -0.428 OA
ATOM     31  C   LIG A   1      -5.411   4.710 130.500  0.00  0.00    +0.341 C 
ATOM     32  O   LIG A   1      -5.969   5.564 129.852  0.00  0.00    -0.245 OA
BRANCH  29  33
ATOM     33  O   LIG A   1      -3.465   3.633 133.017  0.00  0.00    -0.354 OA
ATOM     34  H   LIG A   1      -2.794   2.951 133.173  0.00  0.00    +0.214 HD
ENDBRANCH  29  33
ENDBRANCH  25  27
BRANCH   6  35
ATOM     35  O   LIG A   1      -4.738  -2.461 128.214  0.00  0.00    -0.461 OA
BRANCH  35  36
ATOM     36  C   LIG A   1      -4.386  -3.368 129.172  0.00  0.00    +0.304 C 
ATOM     37  C   LIG A   1      -2.923  -3.663 129.076  0.00  0.00    +0.136 C 
ATOM     38  O   LIG A   1      -5.140  -3.860 130.001  0.00  0.00    -0.251 OA
ENDBRANCH  35  36
ENDBRANCH   6  35
TORSDOF 4
ENDMDL
MODEL 5
REMARK VINA RESULT:      -8.6      2.542      6.304
REMARK  Name = NuBBE_1120
REMARK  10 active torsions:
REMARK  status: ('A' for Active; 'I' for Inactive)
REMARK    1  A    between atoms: C_1  and  C_2
REMARK    2  A    between atoms: C_5  and  C_26
REMARK    3  A    between atoms: C_6  and  O_22
REMARK    4  A    between atoms: C_10  and  C_11
REMARK    5  A    between atoms: C_10  and  C_21
REMARK    6  A    between atoms: C_15  and  C_19
REMARK    7  A    between atoms: O_22  and  C_23
REMARK    8  A    between atoms: C_23  and  C_24
REMARK    9  A    between atoms: C_31  and  C_33
REMARK   10  A    between atoms: C_35  and  O_39
REMARK                            x       y       z     vdW  Elec       q    Type
REMARK                         _______ _______ _______ _____ _____    ______ ____
ROOT
ATOM      1  C   LIG A   1      -6.686  -1.141 125.128  0.00  0.00    +0.018 C 
ATOM      2  C   LIG A   1      -6.510   0.349 125.568  0.00  0.00    +0.042 C 
ATOM      3  C   LIG A   1      -7.468   0.661 126.720  0.00  0.00    +0.125 C 
ATOM      4  O   LIG A   1      -8.629  -0.192 126.764  0.00  0.00    -0.351 OA
ATOM      5  C   LIG A   1      -6.931   1.015 128.164  0.00  0.00    +0.041 C 
ATOM      6  C   LIG A   1      -8.060   0.813 129.248  0.00  0.00    +0.186 C 
ATOM      7  C   LIG A   1      -8.222  -0.601 129.824  0.00  0.00    +0.050 C 
ATOM      8  C   LIG A   1      -7.068  -1.578 129.544  0.00  0.00    +0.016 C 
ATOM      9  C   LIG A   1      -7.221  -2.939 130.321  0.00  0.00    +0.031 C 
ATOM     10  C   LIG A   1      -7.431  -2.809 131.842  0.00  0.00    +0.019 C 
ATOM     11  C   LIG A   1      -5.994  -3.832 130.105  0.00  0.00    +0.162 C 
ATOM     12  C   LIG A   1      -4.707  -3.222 129.712  0.00  0.00    +0.043 C 
ATOM     13  C   LIG A   1      -4.568  -1.903 129.545  0.00  0.00    -0.016 C 
ATOM     14  C   LIG A   1      -5.684  -0.874 129.667  0.00  0.00    -0.006 C 
ATOM     15  C   LIG A   1      -5.585   0.249 128.531  0.00  0.00    +0.011 C 
ATOM     16  C   LIG A   1      -4.762  -0.206 127.292  0.00  0.00    +0.006 C 
ATOM     17  C   LIG A   1      -5.051   0.547 126.003  0.00  0.00    +0.014 C 
ATOM     18  C   LIG A   1      -5.431  -0.237 131.060  0.00  0.00    +0.016 C 
ATOM     19  O   LIG A   1      -6.008  -5.046 130.313  0.00  0.00    -0.292 OA
ATOM     20  C   LIG A   1      -8.436  -3.716 129.758  0.00  0.00    +0.019 C 
ATOM     21  C   LIG A   1      -6.580   2.532 128.169  0.00  0.00    +0.018 C 
ATOM     22  C   LIG A   1      -8.844   1.128 126.249  0.00  0.00    +0.260 C 
ATOM     23  C   LIG A   1      -9.240   1.133 124.824  0.00  0.00    +0.340 C 
ATOM     24  O   LIG A   1      -8.233   1.119 123.909  0.00  0.00    -0.454 OA
ATOM     25  C   LIG A   1      -6.845   1.232 124.303  0.00  0.00    +0.222 C 
ATOM     26  O   LIG A   1     -10.417   1.156 124.500  0.00  0.00    -0.248 OA
ENDROOT
BRANCH  25  27
ATOM     27  C   LIG A   1      -6.483   2.684 124.238  0.00  0.00    +0.079 C 
ATOM     28  C   LIG A   1      -6.358   3.653 125.143  0.00  0.00    +0.061 C 
ATOM     29  C   LIG A   1      -5.934   4.918 124.524  0.00  0.00    +0.334 C 
ATOM     30  O   LIG A   1      -6.028   4.675 123.134  0.00  0.00    -0.428 OA
ATOM     31  C   LIG A   1      -6.223   3.340 122.940  0.00  0.00    +0.341 C 
ATOM     32  O   LIG A   1      -6.196   2.780 121.870  0.00  0.00    -0.245 OA
BRANCH  29  33
ATOM     33  O   LIG A   1      -6.752   5.986 124.940  0.00  0.00    -0.354 OA
ATOM     34  H   LIG A   1      -7.570   5.621 125.311  0.00  0.00    +0.214 HD
ENDBRANCH  29  33
ENDBRANCH  25  27
BRANCH   6  35
ATOM     35  O   LIG A   1      -7.889   1.689 130.390  0.00  0.00    -0.461 OA
BRANCH  35  36
ATOM     36  C   LIG A   1      -9.008   2.311 130.865  0.00  0.00    +0.304 C 
ATOM     37  C   LIG A   1      -9.257   1.893 132.280  0.00  0.00    +0.136 C 
ATOM     38  O   LIG A   1      -9.702   3.104 130.243  0.00  0.00    -0.251 OA
ENDBRANCH  35  36
ENDBRANCH   6  35
TORSDOF 4
ENDMDL
MODEL 6
REMARK VINA RESULT:      -8.6      2.645      5.861
REMARK  Name = NuBBE_1120
REMARK  10 active torsions:
REMARK  status: ('A' for Active; 'I' for Inactive)
REMARK    1  A    between atoms: C_1  and  C_2
REMARK    2  A    between atoms: C_5  and  C_26
REMARK    3  A    between atoms: C_6  and  O_22
REMARK    4  A    between atoms: C_10  and  C_11
REMARK    5  A    between atoms: C_10  and  C_21
REMARK    6  A    between atoms: C_15  and  C_19
REMARK    7  A    between atoms: O_22  and  C_23
REMARK    8  A    between atoms: C_23  and  C_24
REMARK    9  A    between atoms: C_31  and  C_33
REMARK   10  A    between atoms: C_35  and  O_39
REMARK                            x       y       z     vdW  Elec       q    Type
REMARK                         _______ _______ _______ _____ _____    ______ ____
ROOT
ATOM      1  C   LIG A   1      -7.272   3.033 125.864  0.00  0.00    +0.018 C 
ATOM      2  C   LIG A   1      -6.259   2.856 127.042  0.00  0.00    +0.042 C 
ATOM      3  C   LIG A   1      -6.779   1.793 128.012  0.00  0.00    +0.125 C 
ATOM      4  O   LIG A   1      -8.209   1.621 127.980  0.00  0.00    -0.351 OA
ATOM      5  C   LIG A   1      -6.016   0.424 128.218  0.00  0.00    +0.041 C 
ATOM      6  C   LIG A   1      -6.970  -0.658 128.858  0.00  0.00    +0.186 C 
ATOM      7  C   LIG A   1      -7.844  -1.470 127.890  0.00  0.00    +0.050 C 
ATOM      8  C   LIG A   1      -7.459  -1.385 126.403  0.00  0.00    +0.016 C 
ATOM      9  C   LIG A   1      -8.279  -2.384 125.505  0.00  0.00    +0.031 C 
ATOM     10  C   LIG A   1      -8.252  -3.855 125.962  0.00  0.00    +0.019 C 
ATOM     11  C   LIG A   1      -7.781  -2.349 124.055  0.00  0.00    +0.162 C 
ATOM     12  C   LIG A   1      -6.412  -1.877 123.765  0.00  0.00    +0.043 C 
ATOM     13  C   LIG A   1      -5.575  -1.486 124.731  0.00  0.00    -0.016 C 
ATOM     14  C   LIG A   1      -5.913  -1.406 126.214  0.00  0.00    -0.006 C 
ATOM     15  C   LIG A   1      -5.300  -0.094 126.895  0.00  0.00    +0.011 C 
ATOM     16  C   LIG A   1      -4.979   1.032 125.870  0.00  0.00    +0.006 C 
ATOM     17  C   LIG A   1      -4.906   2.438 126.447  0.00  0.00    +0.014 C 
ATOM     18  C   LIG A   1      -5.232  -2.672 126.802  0.00  0.00    +0.016 C 
ATOM     19  O   LIG A   1      -8.453  -2.765 123.110  0.00  0.00    -0.292 OA
ATOM     20  C   LIG A   1      -9.763  -1.945 125.473  0.00  0.00    +0.019 C 
ATOM     21  C   LIG A   1      -4.880   0.678 129.252  0.00  0.00    +0.018 C 
ATOM     22  C   LIG A   1      -7.694   2.363 129.095  0.00  0.00    +0.260 C 
ATOM     23  C   LIG A   1      -8.139   3.774 129.102  0.00  0.00    +0.340 C 
ATOM     24  O   LIG A   1      -7.392   4.655 128.383  0.00  0.00    -0.454 OA
ATOM     25  C   LIG A   1      -6.150   4.261 127.753  0.00  0.00    +0.222 C 
ATOM     26  O   LIG A   1      -9.125   4.116 129.735  0.00  0.00    -0.248 OA
ENDROOT
BRANCH  25  27
ATOM     27  C   LIG A   1      -5.046   4.573 128.717  0.00  0.00    +0.079 C 
ATOM     28  C   LIG A   1      -4.654   4.055 129.880  0.00  0.00    +0.061 C 
ATOM     29  C   LIG A   1      -3.458   4.738 130.397  0.00  0.00    +0.334 C 
ATOM     30  O   LIG A   1      -3.298   5.855 129.546  0.00  0.00    -0.428 OA
ATOM     31  C   LIG A   1      -4.136   5.712 128.481  0.00  0.00    +0.341 C 
ATOM     32  O   LIG A   1      -4.139   6.414 127.497  0.00  0.00    -0.245 OA
BRANCH  29  33
ATOM     33  O   LIG A   1      -3.628   5.107 131.746  0.00  0.00    -0.354 OA
ATOM     34  H   LIG A   1      -3.336   6.026 131.853  0.00  0.00    +0.214 HD
ENDBRANCH  29  33
ENDBRANCH  25  27
BRANCH   6  35
ATOM     35  O   LIG A   1      -6.244  -1.633 129.648  0.00  0.00    -0.461 OA
BRANCH  35  36
ATOM     36  C   LIG A   1      -6.980  -2.421 130.485  0.00  0.00    +0.304 C 
ATOM     37  C   LIG A   1      -6.549  -3.847 130.348  0.00  0.00    +0.136 C 
ATOM     38  O   LIG A   1      -7.853  -2.031 131.249  0.00  0.00    -0.251 OA
ENDBRANCH  35  36
ENDBRANCH   6  35
TORSDOF 4
ENDMDL
MODEL 7
REMARK VINA RESULT:      -8.5      3.161      6.774
REMARK  Name = NuBBE_1120
REMARK  10 active torsions:
REMARK  status: ('A' for Active; 'I' for Inactive)
REMARK    1  A    between atoms: C_1  and  C_2
REMARK    2  A    between atoms: C_5  and  C_26
REMARK    3  A    between atoms: C_6  and  O_22
REMARK    4  A    between atoms: C_10  and  C_11
REMARK    5  A    between atoms: C_10  and  C_21
REMARK    6  A    between atoms: C_15  and  C_19
REMARK    7  A    between atoms: O_22  and  C_23
REMARK    8  A    between atoms: C_23  and  C_24
REMARK    9  A    between atoms: C_31  and  C_33
REMARK   10  A    between atoms: C_35  and  O_39
REMARK                            x       y       z     vdW  Elec       q    Type
REMARK                         _______ _______ _______ _____ _____    ______ ____
ROOT
ATOM      1  C   LIG A   1      -9.289   2.442 128.917  0.00  0.00    +0.018 C 
ATOM      2  C   LIG A   1      -8.107   1.629 128.294  0.00  0.00    +0.042 C 
ATOM      3  C   LIG A   1      -6.944   2.572 127.980  0.00  0.00    +0.125 C 
ATOM      4  O   LIG A   1      -7.339   3.943 127.777  0.00  0.00    -0.351 OA
ATOM      5  C   LIG A   1      -5.562   2.455 128.738  0.00  0.00    +0.041 C 
ATOM      6  C   LIG A   1      -4.732   3.790 128.602  0.00  0.00    +0.186 C 
ATOM      7  C   LIG A   1      -5.024   4.894 129.630  0.00  0.00    +0.050 C 
ATOM      8  C   LIG A   1      -5.832   4.466 130.866  0.00  0.00    +0.016 C 
ATOM      9  C   LIG A   1      -5.928   5.601 131.952  0.00  0.00    +0.031 C 
ATOM     10  C   LIG A   1      -4.581   6.202 132.398  0.00  0.00    +0.019 C 
ATOM     11  C   LIG A   1      -6.639   5.092 133.213  0.00  0.00    +0.162 C 
ATOM     12  C   LIG A   1      -6.672   3.643 133.496  0.00  0.00    +0.043 C 
ATOM     13  C   LIG A   1      -6.090   2.748 132.692  0.00  0.00    -0.016 C 
ATOM     14  C   LIG A   1      -5.387   3.064 131.379  0.00  0.00    -0.006 C 
ATOM     15  C   LIG A   1      -5.719   1.981 130.249  0.00  0.00    +0.011 C 
ATOM     16  C   LIG A   1      -7.030   1.191 130.528  0.00  0.00    +0.006 C 
ATOM     17  C   LIG A   1      -7.682   0.557 129.308  0.00  0.00    +0.014 C 
ATOM     18  C   LIG A   1      -3.882   2.989 131.754  0.00  0.00    +0.016 C 
ATOM     19  O   LIG A   1      -7.133   5.848 134.050  0.00  0.00    -0.292 OA
ATOM     20  C   LIG A   1      -6.786   6.766 131.402  0.00  0.00    +0.019 C 
ATOM     21  C   LIG A   1      -4.734   1.347 128.023  0.00  0.00    +0.018 C 
ATOM     22  C   LIG A   1      -7.035   3.199 126.589  0.00  0.00    +0.260 C 
ATOM     23  C   LIG A   1      -8.210   3.016 125.709  0.00  0.00    +0.340 C 
ATOM     24  O   LIG A   1      -9.013   1.950 125.972  0.00  0.00    -0.454 OA
ATOM     25  C   LIG A   1      -8.666   0.966 126.976  0.00  0.00    +0.222 C 
ATOM     26  O   LIG A   1      -8.429   3.788 124.788  0.00  0.00    -0.248 OA
ENDROOT
BRANCH  25  27
ATOM     27  C   LIG A   1      -7.933  -0.139 126.278  0.00  0.00    +0.079 C 
ATOM     28  C   LIG A   1      -6.648  -0.393 126.032  0.00  0.00    +0.061 C 
ATOM     29  C   LIG A   1      -6.478  -1.669 125.321  0.00  0.00    +0.334 C 
ATOM     30  O   LIG A   1      -7.792  -2.051 124.968  0.00  0.00    -0.428 OA
ATOM     31  C   LIG A   1      -8.669  -1.240 125.625  0.00  0.00    +0.341 C 
ATOM     32  O   LIG A   1      -9.867  -1.394 125.662  0.00  0.00    -0.245 OA
BRANCH  29  33
ATOM     33  O   LIG A   1      -5.641  -1.515 124.198  0.00  0.00    -0.354 OA
ATOM     34  H   LIG A   1      -5.410  -2.395 123.863  0.00  0.00    +0.214 HD
ENDBRANCH  29  33
ENDBRANCH  25  27
BRANCH   6  35
ATOM     35  O   LIG A   1      -3.302   3.559 128.665  0.00  0.00    -0.461 OA
BRANCH  35  36
ATOM     36  C   LIG A   1      -2.526   4.241 127.772  0.00  0.00    +0.304 C 
ATOM     37  C   LIG A   1      -1.902   3.282 126.809  0.00  0.00    +0.136 C 
ATOM     38  O   LIG A   1      -2.370   5.454 127.744  0.00  0.00    -0.251 OA
ENDBRANCH  35  36
ENDBRANCH   6  35
TORSDOF 4
ENDMDL
MODEL 8
REMARK VINA RESULT:      -8.4      3.479      5.888
REMARK  Name = NuBBE_1120
REMARK  10 active torsions:
REMARK  status: ('A' for Active; 'I' for Inactive)
REMARK    1  A    between atoms: C_1  and  C_2
REMARK    2  A    between atoms: C_5  and  C_26
REMARK    3  A    between atoms: C_6  and  O_22
REMARK    4  A    between atoms: C_10  and  C_11
REMARK    5  A    between atoms: C_10  and  C_21
REMARK    6  A    between atoms: C_15  and  C_19
REMARK    7  A    between atoms: O_22  and  C_23
REMARK    8  A    between atoms: C_23  and  C_24
REMARK    9  A    between atoms: C_31  and  C_33
REMARK   10  A    between atoms: C_35  and  O_39
REMARK                            x       y       z     vdW  Elec       q    Type
REMARK                         _______ _______ _______ _____ _____    ______ ____
ROOT
ATOM      1  C   LIG A   1      -6.243  -3.623 129.846  0.00  0.00    +0.018 C 
ATOM      2  C   LIG A   1      -6.356  -2.170 130.415  0.00  0.00    +0.042 C 
ATOM      3  C   LIG A   1      -5.564  -1.208 129.527  0.00  0.00    +0.125 C 
ATOM      4  O   LIG A   1      -4.502  -1.836 128.783  0.00  0.00    -0.351 OA
ATOM      5  C   LIG A   1      -6.285  -0.072 128.697  0.00  0.00    +0.041 C 
ATOM      6  C   LIG A   1      -5.357   0.443 127.528  0.00  0.00    +0.186 C 
ATOM      7  C   LIG A   1      -5.409  -0.339 126.207  0.00  0.00    +0.050 C 
ATOM      8  C   LIG A   1      -6.586  -1.317 126.050  0.00  0.00    +0.016 C 
ATOM      9  C   LIG A   1      -6.671  -1.936 124.605  0.00  0.00    +0.031 C 
ATOM     10  C   LIG A   1      -6.688  -0.917 123.450  0.00  0.00    +0.019 C 
ATOM     11  C   LIG A   1      -7.923  -2.810 124.459  0.00  0.00    +0.162 C 
ATOM     12  C   LIG A   1      -9.076  -2.588 125.355  0.00  0.00    +0.043 C 
ATOM     13  C   LIG A   1      -9.074  -1.635 126.293  0.00  0.00    -0.016 C 
ATOM     14  C   LIG A   1      -7.906  -0.712 126.613  0.00  0.00    -0.006 C 
ATOM     15  C   LIG A   1      -7.732  -0.496 128.189  0.00  0.00    +0.011 C 
ATOM     16  C   LIG A   1      -8.391  -1.623 129.036  0.00  0.00    +0.006 C 
ATOM     17  C   LIG A   1      -7.842  -1.786 130.446  0.00  0.00    +0.014 C 
ATOM     18  C   LIG A   1      -8.315   0.626 125.940  0.00  0.00    +0.016 C 
ATOM     19  O   LIG A   1      -8.045  -3.656 123.573  0.00  0.00    -0.292 OA
ATOM     20  C   LIG A   1      -5.456  -2.866 124.373  0.00  0.00    +0.019 C 
ATOM     21  C   LIG A   1      -6.500   1.136 129.655  0.00  0.00    +0.018 C 
ATOM     22  C   LIG A   1      -4.096  -1.083 129.934  0.00  0.00    +0.260 C 
ATOM     23  C   LIG A   1      -3.487  -1.924 130.987  0.00  0.00    +0.340 C 
ATOM     24  O   LIG A   1      -4.338  -2.508 131.874  0.00  0.00    -0.454 OA
ATOM     25  C   LIG A   1      -5.755  -2.214 131.873  0.00  0.00    +0.222 C 
ATOM     26  O   LIG A   1      -2.276  -2.071 131.049  0.00  0.00    -0.248 OA
ENDROOT
BRANCH  25  27
ATOM     27  C   LIG A   1      -5.977  -1.100 132.850  0.00  0.00    +0.079 C 
ATOM     28  C   LIG A   1      -5.817   0.223 132.805  0.00  0.00    +0.061 C 
ATOM     29  C   LIG A   1      -6.231   0.858 134.065  0.00  0.00    +0.334 C 
ATOM     30  O   LIG A   1      -6.446  -0.224 134.948  0.00  0.00    -0.428 OA
ATOM     31  C   LIG A   1      -6.428  -1.381 134.228  0.00  0.00    +0.341 C 
ATOM     32  O   LIG A   1      -6.728  -2.472 134.653  0.00  0.00    -0.245 OA
BRANCH  29  33
ATOM     33  O   LIG A   1      -5.242   1.747 134.533  0.00  0.00    -0.354 OA
ATOM     34  H   LIG A   1      -5.642   2.623 134.642  0.00  0.00    +0.214 HD
ENDBRANCH  29  33
ENDBRANCH  25  27
BRANCH   6  35
ATOM     35  O   LIG A   1      -5.626   1.825 127.180  0.00  0.00    -0.461 OA
BRANCH  35  36
ATOM     36  C   LIG A   1      -4.690   2.463 126.419  0.00  0.00    +0.304 C 
ATOM     37  C   LIG A   1      -5.365   3.233 125.328  0.00  0.00    +0.136 C 
ATOM     38  O   LIG A   1      -3.481   2.432 126.600  0.00  0.00    -0.251 OA
ENDBRANCH  35  36
ENDBRANCH   6  35
TORSDOF 4
ENDMDL
MODEL 9
REMARK VINA RESULT:      -8.3      2.436      7.101
REMARK  Name = NuBBE_1120
REMARK  10 active torsions:
REMARK  status: ('A' for Active; 'I' for Inactive)
REMARK    1  A    between atoms: C_1  and  C_2
REMARK    2  A    between atoms: C_5  and  C_26
REMARK    3  A    between atoms: C_6  and  O_22
REMARK    4  A    between atoms: C_10  and  C_11
REMARK    5  A    between atoms: C_10  and  C_21
REMARK    6  A    between atoms: C_15  and  C_19
REMARK    7  A    between atoms: O_22  and  C_23
REMARK    8  A    between atoms: C_23  and  C_24
REMARK    9  A    between atoms: C_31  and  C_33
REMARK   10  A    between atoms: C_35  and  O_39
REMARK                            x       y       z     vdW  Elec       q    Type
REMARK                         _______ _______ _______ _____ _____    ______ ____
ROOT
ATOM      1  C   LIG A   1      -4.363  -0.882 129.484  0.00  0.00    +0.018 C 
ATOM      2  C   LIG A   1      -5.653  -0.588 128.650  0.00  0.00    +0.042 C 
ATOM      3  C   LIG A   1      -6.702   0.077 129.543  0.00  0.00    +0.125 C 
ATOM      4  O   LIG A   1      -6.547  -0.214 130.946  0.00  0.00    -0.351 OA
ATOM      5  C   LIG A   1      -7.175   1.563 129.289  0.00  0.00    +0.041 C 
ATOM      6  C   LIG A   1      -7.857   2.163 130.580  0.00  0.00    +0.186 C 
ATOM      7  C   LIG A   1      -6.926   2.802 131.622  0.00  0.00    +0.050 C 
ATOM      8  C   LIG A   1      -5.490   3.091 131.154  0.00  0.00    +0.016 C 
ATOM      9  C   LIG A   1      -4.660   3.910 132.211  0.00  0.00    +0.031 C 
ATOM     10  C   LIG A   1      -5.318   5.216 132.698  0.00  0.00    +0.019 C 
ATOM     11  C   LIG A   1      -3.278   4.276 131.655  0.00  0.00    +0.162 C 
ATOM     12  C   LIG A   1      -3.069   4.322 130.194  0.00  0.00    +0.043 C 
ATOM     13  C   LIG A   1      -4.053   4.064 129.326  0.00  0.00    -0.016 C 
ATOM     14  C   LIG A   1      -5.467   3.637 129.695  0.00  0.00    -0.006 C 
ATOM     15  C   LIG A   1      -6.018   2.495 128.718  0.00  0.00    +0.011 C 
ATOM     16  C   LIG A   1      -4.886   1.717 127.989  0.00  0.00    +0.006 C 
ATOM     17  C   LIG A   1      -5.265   0.333 127.484  0.00  0.00    +0.014 C 
ATOM     18  C   LIG A   1      -6.293   4.937 129.504  0.00  0.00    +0.016 C 
ATOM     19  O   LIG A   1      -2.336   4.607 132.376  0.00  0.00    -0.292 OA
ATOM     20  C   LIG A   1      -4.413   3.032 133.461  0.00  0.00    +0.019 C 
ATOM     21  C   LIG A   1      -8.276   1.519 128.189  0.00  0.00    +0.018 C 
ATOM     22  C   LIG A   1      -7.595  -0.926 130.273  0.00  0.00    +0.260 C 
ATOM     23  C   LIG A   1      -7.359  -2.386 130.224  0.00  0.00    +0.340 C 
ATOM     24  O   LIG A   1      -6.605  -2.850 129.191  0.00  0.00    -0.454 OA
ATOM     25  C   LIG A   1      -6.168  -1.982 128.118  0.00  0.00    +0.222 C 
ATOM     26  O   LIG A   1      -7.833  -3.126 131.072  0.00  0.00    -0.248 OA
ENDROOT
BRANCH  25  27
ATOM     27  C   LIG A   1      -7.189  -2.080 127.026  0.00  0.00    +0.079 C 
ATOM     28  C   LIG A   1      -8.510  -1.919 126.970  0.00  0.00    +0.061 C 
ATOM     29  C   LIG A   1      -9.018  -2.103 125.602  0.00  0.00    +0.334 C 
ATOM     30  O   LIG A   1      -7.910  -2.605 124.882  0.00  0.00    -0.428 OA
ATOM     31  C   LIG A   1      -6.797  -2.480 125.659  0.00  0.00    +0.341 C 
ATOM     32  O   LIG A   1      -5.663  -2.675 125.289  0.00  0.00    -0.245 OA
BRANCH  29  33
ATOM     33  O   LIG A   1     -10.117  -2.985 125.583  0.00  0.00    -0.354 OA
ATOM     34  H   LIG A   1     -10.884  -2.530 125.962  0.00  0.00    +0.214 HD
ENDBRANCH  29  33
ENDBRANCH  25  27
BRANCH   6  35
ATOM     35  O   LIG A   1      -8.846   3.174 130.261  0.00  0.00    -0.461 OA
BRANCH  35  36
ATOM     36  C   LIG A   1     -10.118   2.957 130.710  0.00  0.00    +0.304 C 
ATOM     37  C   LIG A   1     -10.102   1.927 131.794  0.00  0.00    +0.136 C 
ATOM     38  O   LIG A   1     -11.124   3.525 130.305  0.00  0.00    -0.251 OA
ENDBRANCH  35  36
ENDBRANCH   6  35
TORSDOF 4
ENDMDL
