MODEL 1
REMARK VINA RESULT:      -8.3      0.000      0.000
REMARK  Name = NuBBE_1449
REMARK  8 active torsions:
REMARK  status: ('A' for Active; 'I' for Inactive)
REMARK    1  A    between atoms: O_1  and  C_2
REMARK    2  A    between atoms: C_5  and  O_30
REMARK    3  A    between atoms: C_10  and  C_12
REMARK    4  A    between atoms: C_12  and  C_13
REMARK    5  A    between atoms: C_23  and  O_28
REMARK    6  A    between atoms: C_24  and  O_25
REMARK    7  A    between atoms: O_25  and  C_26
REMARK    8  A    between atoms: O_28  and  C_29
REMARK                            x       y       z     vdW  Elec       q    Type
REMARK                         _______ _______ _______ _____ _____    ______ ____
ROOT
ATOM      1  C   LIG A   1      -6.659   3.204 128.400  0.00  0.00    +0.197 C 
ATOM      2  C   LIG A   1      -7.058   3.546 126.954  0.00  0.00    +0.210 C 
ATOM      3  C   LIG A   1      -7.696   2.496 126.146  0.00  0.00    +0.104 A 
ATOM      4  C   LIG A   1      -8.385   2.793 124.956  0.00  0.00    +0.134 A 
ATOM      5  C   LIG A   1      -9.002   1.782 124.215  0.00  0.00    +0.092 A 
ATOM      6  C   LIG A   1      -8.905   0.491 124.689  0.00  0.00    +0.132 A 
ATOM      7  C   LIG A   1      -8.196   0.183 125.838  0.00  0.00    +0.041 A 
ATOM      8  C   LIG A   1      -8.220  -1.280 126.060  0.00  0.00    +0.091 C 
ATOM      9  C   LIG A   1      -9.314  -1.674 125.051  0.00  0.00    +0.203 C 
ATOM     10  O   LIG A   1      -9.469  -0.600 124.082  0.00  0.00    -0.484 OA
ATOM     11  C   LIG A   1      -7.582   1.179 126.574  0.00  0.00    +0.142 A 
ATOM     12  O   LIG A   1      -6.854   0.812 127.665  0.00  0.00    -0.480 OA
ATOM     13  C   LIG A   1      -6.978   1.739 128.762  0.00  0.00    +0.254 C 
ATOM     14  C   LIG A   1      -8.356   1.559 129.428  0.00  0.00    +0.277 C 
ATOM     15  O   LIG A   1      -9.250   2.648 129.154  0.00  0.00    -0.488 OA
ATOM     16  C   LIG A   1      -8.702   3.794 129.669  0.00  0.00    +0.131 A 
ATOM     17  C   LIG A   1      -7.376   4.116 129.377  0.00  0.00    +0.041 A 
ATOM     18  C   LIG A   1      -6.834   5.255 129.979  0.00  0.00    +0.060 A 
ATOM     19  C   LIG A   1      -7.600   6.052 130.858  0.00  0.00    +0.162 A 
ATOM     20  C   LIG A   1      -8.942   5.712 131.114  0.00  0.00    +0.165 A 
ATOM     21  C   LIG A   1      -9.493   4.591 130.486  0.00  0.00    +0.095 A 
ATOM     22  O   LIG A   1      -6.838   4.653 126.440  0.00  0.00    -0.288 OA
ENDROOT
BRANCH   9  23
ATOM     23  C   LIG A   1      -9.025  -2.984 124.344  0.00  0.00    -0.040 C 
ATOM     24  C   LIG A   1      -7.878  -3.809 124.859  0.00  0.00    +0.042 C 
ATOM     25  C   LIG A   1      -9.764  -3.397 123.299  0.00  0.00    +0.011 C 
ENDBRANCH   9  23
BRANCH   1  26
ATOM     26  O   LIG A   1      -5.234   3.405 128.468  0.00  0.00    -0.373 OA
ATOM     27  H   LIG A   1      -5.017   4.064 127.780  0.00  0.00    +0.211 HD
ENDBRANCH   1  26
BRANCH  20  28
ATOM     28  O   LIG A   1      -9.703   6.508 131.930  0.00  0.00    -0.491 OA
ATOM     29  C   LIG A   1     -11.114   6.328 131.831  0.00  0.00    +0.277 C 
ENDBRANCH  20  28
BRANCH  19  30
ATOM     30  O   LIG A   1      -6.876   7.095 131.377  0.00  0.00    -0.491 OA
ATOM     31  C   LIG A   1      -5.520   7.249 130.982  0.00  0.00    +0.277 C 
ENDBRANCH  19  30
BRANCH   4  32
ATOM     32  O   LIG A   1      -8.486   4.066 124.456  0.00  0.00    -0.506 OA
ATOM     33  H   LIG A   1      -7.584   4.371 124.206  0.00  0.00    +0.292 HD
ENDBRANCH   4  32
TORSDOF 5
ENDMDL
MODEL 2
REMARK VINA RESULT:      -8.0      1.937      2.581
REMARK  Name = NuBBE_1449
REMARK  8 active torsions:
REMARK  status: ('A' for Active; 'I' for Inactive)
REMARK    1  A    between atoms: O_1  and  C_2
REMARK    2  A    between atoms: C_5  and  O_30
REMARK    3  A    between atoms: C_10  and  C_12
REMARK    4  A    between atoms: C_12  and  C_13
REMARK    5  A    between atoms: C_23  and  O_28
REMARK    6  A    between atoms: C_24  and  O_25
REMARK    7  A    between atoms: O_25  and  C_26
REMARK    8  A    between atoms: O_28  and  C_29
REMARK                            x       y       z     vdW  Elec       q    Type
REMARK                         _______ _______ _______ _____ _____    ______ ____
ROOT
ATOM      1  C   LIG A   1      -4.681   3.118 126.531  0.00  0.00    +0.197 C 
ATOM      2  C   LIG A   1      -5.711   3.457 125.440  0.00  0.00    +0.210 C 
ATOM      3  C   LIG A   1      -6.689   2.424 125.066  0.00  0.00    +0.104 A 
ATOM      4  C   LIG A   1      -7.853   2.734 124.339  0.00  0.00    +0.134 A 
ATOM      5  C   LIG A   1      -8.779   1.739 124.013  0.00  0.00    +0.092 A 
ATOM      6  C   LIG A   1      -8.506   0.452 124.423  0.00  0.00    +0.132 A 
ATOM      7  C   LIG A   1      -7.343   0.129 125.104  0.00  0.00    +0.041 A 
ATOM      8  C   LIG A   1      -7.302  -1.328 125.356  0.00  0.00    +0.091 C 
ATOM      9  C   LIG A   1      -8.756  -1.690 125.003  0.00  0.00    +0.203 C 
ATOM     10  O   LIG A   1      -9.324  -0.624 124.192  0.00  0.00    -0.484 OA
ATOM     11  C   LIG A   1      -6.423   1.109 125.428  0.00  0.00    +0.142 A 
ATOM     12  O   LIG A   1      -5.275   0.727 126.052  0.00  0.00    -0.480 OA
ATOM     13  C   LIG A   1      -4.832   1.672 127.046  0.00  0.00    +0.254 C 
ATOM     14  C   LIG A   1      -5.730   1.557 128.293  0.00  0.00    +0.277 C 
ATOM     15  O   LIG A   1      -6.613   2.678 128.444  0.00  0.00    -0.488 OA
ATOM     16  C   LIG A   1      -5.852   3.808 128.601  0.00  0.00    +0.131 A 
ATOM     17  C   LIG A   1      -4.818   4.071 127.702  0.00  0.00    +0.041 A 
ATOM     18  C   LIG A   1      -4.020   5.195 127.939  0.00  0.00    +0.060 A 
ATOM     19  C   LIG A   1      -4.250   6.034 129.051  0.00  0.00    +0.162 A 
ATOM     20  C   LIG A   1      -5.317   5.752 129.926  0.00  0.00    +0.165 A 
ATOM     21  C   LIG A   1      -6.134   4.646 129.671  0.00  0.00    +0.095 A 
ATOM     22  O   LIG A   1      -5.731   4.548 124.849  0.00  0.00    -0.288 OA
ENDROOT
BRANCH   9  23
ATOM     23  C   LIG A   1      -8.879  -3.020 124.284  0.00  0.00    -0.040 C 
ATOM     24  C   LIG A   1      -8.044  -4.161 124.796  0.00  0.00    +0.042 C 
ATOM     25  C   LIG A   1      -9.702  -3.177 123.232  0.00  0.00    +0.011 C 
ENDBRANCH   9  23
BRANCH   1  26
ATOM     26  O   LIG A   1      -3.391   3.262 125.906  0.00  0.00    -0.373 OA
ATOM     27  H   LIG A   1      -3.535   3.136 124.948  0.00  0.00    +0.211 HD
ENDBRANCH   1  26
BRANCH  20  28
ATOM     28  O   LIG A   1      -5.572   6.588 130.981  0.00  0.00    -0.491 OA
ATOM     29  C   LIG A   1      -6.936   6.678 131.384  0.00  0.00    +0.277 C 
ENDBRANCH  20  28
BRANCH  19  30
ATOM     30  O   LIG A   1      -3.335   7.052 129.130  0.00  0.00    -0.491 OA
ATOM     31  C   LIG A   1      -2.249   7.068 128.215  0.00  0.00    +0.277 C 
ENDBRANCH  19  30
BRANCH   4  32
ATOM     32  O   LIG A   1      -8.142   4.003 123.908  0.00  0.00    -0.506 OA
ATOM     33  H   LIG A   1      -7.416   4.299 123.314  0.00  0.00    +0.292 HD
ENDBRANCH   4  32
TORSDOF 5
ENDMDL
MODEL 3
REMARK VINA RESULT:      -7.8      3.686      6.279
REMARK  Name = NuBBE_1449
REMARK  8 active torsions:
REMARK  status: ('A' for Active; 'I' for Inactive)
REMARK    1  A    between atoms: O_1  and  C_2
REMARK    2  A    between atoms: C_5  and  O_30
REMARK    3  A    between atoms: C_10  and  C_12
REMARK    4  A    between atoms: C_12  and  C_13
REMARK    5  A    between atoms: C_23  and  O_28
REMARK    6  A    between atoms: C_24  and  O_25
REMARK    7  A    between atoms: O_25  and  C_26
REMARK    8  A    between atoms: O_28  and  C_29
REMARK                            x       y       z     vdW  Elec       q    Type
REMARK                         _______ _______ _______ _____ _____    ______ ____
ROOT
ATOM      1  C   LIG A   1      -6.601   2.072 127.399  0.00  0.00    +0.197 C 
ATOM      2  C   LIG A   1      -7.959   2.143 126.681  0.00  0.00    +0.210 C 
ATOM      3  C   LIG A   1      -7.965   2.423 125.238  0.00  0.00    +0.104 A 
ATOM      4  C   LIG A   1      -9.100   2.186 124.441  0.00  0.00    +0.134 A 
ATOM      5  C   LIG A   1      -9.076   2.439 123.068  0.00  0.00    +0.092 A 
ATOM      6  C   LIG A   1      -7.907   2.932 122.528  0.00  0.00    +0.132 A 
ATOM      7  C   LIG A   1      -6.797   3.207 123.309  0.00  0.00    +0.041 A 
ATOM      8  C   LIG A   1      -5.723   3.777 122.466  0.00  0.00    +0.091 C 
ATOM      9  C   LIG A   1      -6.299   3.465 121.073  0.00  0.00    +0.203 C 
ATOM     10  O   LIG A   1      -7.727   3.214 121.199  0.00  0.00    -0.484 OA
ATOM     11  C   LIG A   1      -6.815   2.960 124.670  0.00  0.00    +0.142 A 
ATOM     12  O   LIG A   1      -5.715   3.297 125.396  0.00  0.00    -0.480 OA
ATOM     13  C   LIG A   1      -5.422   2.354 126.446  0.00  0.00    +0.254 C 
ATOM     14  C   LIG A   1      -4.814   1.079 125.830  0.00  0.00    +0.277 C 
ATOM     15  O   LIG A   1      -5.718  -0.036 125.861  0.00  0.00    -0.488 OA
ATOM     16  C   LIG A   1      -6.004  -0.321 127.171  0.00  0.00    +0.131 A 
ATOM     17  C   LIG A   1      -6.405   0.705 128.027  0.00  0.00    +0.041 A 
ATOM     18  C   LIG A   1      -6.619   0.385 129.371  0.00  0.00    +0.060 A 
ATOM     19  C   LIG A   1      -6.431  -0.930 129.849  0.00  0.00    +0.162 A 
ATOM     20  C   LIG A   1      -6.047  -1.947 128.953  0.00  0.00    +0.165 A 
ATOM     21  C   LIG A   1      -5.866  -1.633 127.603  0.00  0.00    +0.095 A 
ATOM     22  O   LIG A   1      -9.041   2.005 127.273  0.00  0.00    -0.288 OA
ENDROOT
BRANCH   9  23
ATOM     23  C   LIG A   1      -6.046   4.570 120.065  0.00  0.00    -0.040 C 
ATOM     24  C   LIG A   1      -7.021   4.705 118.929  0.00  0.00    +0.042 C 
ATOM     25  C   LIG A   1      -4.993   5.400 120.181  0.00  0.00    +0.011 C 
ENDBRANCH   9  23
BRANCH   1  26
ATOM     26  O   LIG A   1      -6.641   3.095 128.412  0.00  0.00    -0.373 OA
ATOM     27  H   LIG A   1      -7.179   3.823 128.045  0.00  0.00    +0.211 HD
ENDBRANCH   1  26
BRANCH  20  28
ATOM     28  O   LIG A   1      -5.908  -3.234 129.402  0.00  0.00    -0.491 OA
ATOM     29  C   LIG A   1      -4.576  -3.645 129.702  0.00  0.00    +0.277 C 
ENDBRANCH  20  28
BRANCH  19  30
ATOM     30  O   LIG A   1      -6.648  -1.028 131.199  0.00  0.00    -0.491 OA
ATOM     31  C   LIG A   1      -7.954  -0.783 131.701  0.00  0.00    +0.277 C 
ENDBRANCH  19  30
BRANCH   4  32
ATOM     32  O   LIG A   1     -10.279   1.708 124.955  0.00  0.00    -0.506 OA
ATOM     33  H   LIG A   1     -10.357   2.018 125.886  0.00  0.00    +0.292 HD
ENDBRANCH   4  32
TORSDOF 5
ENDMDL
MODEL 4
REMARK VINA RESULT:      -7.7      2.056      8.201
REMARK  Name = NuBBE_1449
REMARK  8 active torsions:
REMARK  status: ('A' for Active; 'I' for Inactive)
REMARK    1  A    between atoms: O_1  and  C_2
REMARK    2  A    between atoms: C_5  and  O_30
REMARK    3  A    between atoms: C_10  and  C_12
REMARK    4  A    between atoms: C_12  and  C_13
REMARK    5  A    between atoms: C_23  and  O_28
REMARK    6  A    between atoms: C_24  and  O_25
REMARK    7  A    between atoms: O_25  and  C_26
REMARK    8  A    between atoms: O_28  and  C_29
REMARK                            x       y       z     vdW  Elec       q    Type
REMARK                         _______ _______ _______ _____ _____    ______ ____
ROOT
ATOM      1  C   LIG A   1      -6.276   0.382 127.457  0.00  0.00    +0.197 C 
ATOM      2  C   LIG A   1      -6.678  -0.011 128.889  0.00  0.00    +0.210 C 
ATOM      3  C   LIG A   1      -7.568   0.894 129.630  0.00  0.00    +0.104 A 
ATOM      4  C   LIG A   1      -8.248   0.479 130.791  0.00  0.00    +0.134 A 
ATOM      5  C   LIG A   1      -9.106   1.349 131.468  0.00  0.00    +0.092 A 
ATOM      6  C   LIG A   1      -9.255   2.623 130.961  0.00  0.00    +0.132 A 
ATOM      7  C   LIG A   1      -8.561   3.054 129.843  0.00  0.00    +0.041 A 
ATOM      8  C   LIG A   1      -8.879   4.475 129.577  0.00  0.00    +0.091 C 
ATOM      9  C   LIG A   1     -10.088   4.646 130.514  0.00  0.00    +0.203 C 
ATOM     10  O   LIG A   1     -10.071   3.581 131.505  0.00  0.00    -0.484 OA
ATOM     11  C   LIG A   1      -7.709   2.198 129.170  0.00  0.00    +0.142 A 
ATOM     12  O   LIG A   1      -7.013   2.691 128.109  0.00  0.00    -0.480 OA
ATOM     13  C   LIG A   1      -6.875   1.740 127.035  0.00  0.00    +0.254 C 
ATOM     14  C   LIG A   1      -8.219   1.611 126.292  0.00  0.00    +0.277 C 
ATOM     15  O   LIG A   1      -8.877   0.363 126.550  0.00  0.00    -0.488 OA
ATOM     16  C   LIG A   1      -8.071  -0.650 126.099  0.00  0.00    +0.131 A 
ATOM     17  C   LIG A   1      -6.727  -0.678 126.471  0.00  0.00    +0.041 A 
ATOM     18  C   LIG A   1      -5.924  -1.688 125.932  0.00  0.00    +0.060 A 
ATOM     19  C   LIG A   1      -6.452  -2.644 125.038  0.00  0.00    +0.162 A 
ATOM     20  C   LIG A   1      -7.819  -2.600 124.700  0.00  0.00    +0.165 A 
ATOM     21  C   LIG A   1      -8.629  -1.610 125.265  0.00  0.00    +0.095 A 
ATOM     22  O   LIG A   1      -6.260  -1.037 129.446  0.00  0.00    -0.288 OA
ENDROOT
BRANCH   9  23
ATOM     23  C   LIG A   1     -10.123   5.999 131.196  0.00  0.00    -0.040 C 
ATOM     24  C   LIG A   1      -8.881   6.843 131.122  0.00  0.00    +0.042 C 
ATOM     25  C   LIG A   1     -11.221   6.434 131.841  0.00  0.00    +0.011 C 
ENDBRANCH   9  23
BRANCH   1  26
ATOM     26  O   LIG A   1      -4.840   0.486 127.470  0.00  0.00    -0.373 OA
ATOM     27  H   LIG A   1      -4.498  -0.429 127.429  0.00  0.00    +0.211 HD
ENDBRANCH   1  26
BRANCH  20  28
ATOM     28  O   LIG A   1      -8.346  -3.553 123.869  0.00  0.00    -0.491 OA
ATOM     29  C   LIG A   1      -9.615  -3.244 123.298  0.00  0.00    +0.277 C 
ENDBRANCH  20  28
BRANCH  19  30
ATOM     30  O   LIG A   1      -5.496  -3.519 124.589  0.00  0.00    -0.491 OA
ATOM     31  C   LIG A   1      -4.802  -3.215 123.387  0.00  0.00    +0.277 C 
ENDBRANCH  19  30
BRANCH   4  32
ATOM     32  O   LIG A   1      -8.107  -0.778 131.322  0.00  0.00    -0.506 OA
ATOM     33  H   LIG A   1      -8.578  -0.802 132.186  0.00  0.00    +0.292 HD
ENDBRANCH   4  32
TORSDOF 5
ENDMDL
MODEL 5
REMARK VINA RESULT:      -7.6      2.747      3.696
REMARK  Name = NuBBE_1449
REMARK  8 active torsions:
REMARK  status: ('A' for Active; 'I' for Inactive)
REMARK    1  A    between atoms: O_1  and  C_2
REMARK    2  A    between atoms: C_5  and  O_30
REMARK    3  A    between atoms: C_10  and  C_12
REMARK    4  A    between atoms: C_12  and  C_13
REMARK    5  A    between atoms: C_23  and  O_28
REMARK    6  A    between atoms: C_24  and  O_25
REMARK    7  A    between atoms: O_25  and  C_26
REMARK    8  A    between atoms: O_28  and  C_29
REMARK                            x       y       z     vdW  Elec       q    Type
REMARK                         _______ _______ _______ _____ _____    ______ ____
ROOT
ATOM      1  C   LIG A   1      -7.626   3.938 129.097  0.00  0.00    +0.197 C 
ATOM      2  C   LIG A   1      -7.857   3.105 127.825  0.00  0.00    +0.210 C 
ATOM      3  C   LIG A   1      -7.686   1.647 127.912  0.00  0.00    +0.104 A 
ATOM      4  C   LIG A   1      -8.184   0.782 126.921  0.00  0.00    +0.134 A 
ATOM      5  C   LIG A   1      -8.029  -0.602 127.035  0.00  0.00    +0.092 A 
ATOM      6  C   LIG A   1      -7.370  -1.083 128.146  0.00  0.00    +0.132 A 
ATOM      7  C   LIG A   1      -6.840  -0.238 129.108  0.00  0.00    +0.041 A 
ATOM      8  C   LIG A   1      -6.143  -1.035 130.142  0.00  0.00    +0.091 C 
ATOM      9  C   LIG A   1      -6.654  -2.439 129.770  0.00  0.00    +0.203 C 
ATOM     10  O   LIG A   1      -7.155  -2.412 128.403  0.00  0.00    -0.484 OA
ATOM     11  C   LIG A   1      -6.989   1.133 128.999  0.00  0.00    +0.142 A 
ATOM     12  O   LIG A   1      -6.404   1.917 129.946  0.00  0.00    -0.480 OA
ATOM     13  C   LIG A   1      -7.200   3.066 130.296  0.00  0.00    +0.254 C 
ATOM     14  C   LIG A   1      -8.382   2.617 131.177  0.00  0.00    +0.277 C 
ATOM     15  O   LIG A   1      -9.639   2.670 130.486  0.00  0.00    -0.488 OA
ATOM     16  C   LIG A   1      -9.878   3.971 130.127  0.00  0.00    +0.131 A 
ATOM     17  C   LIG A   1      -8.885   4.697 129.468  0.00  0.00    +0.041 A 
ATOM     18  C   LIG A   1      -9.142   6.042 129.184  0.00  0.00    +0.060 A 
ATOM     19  C   LIG A   1     -10.363   6.647 129.552  0.00  0.00    +0.162 A 
ATOM     20  C   LIG A   1     -11.353   5.880 130.196  0.00  0.00    +0.165 A 
ATOM     21  C   LIG A   1     -11.108   4.527 130.452  0.00  0.00    +0.095 A 
ATOM     22  O   LIG A   1      -8.149   3.613 126.732  0.00  0.00    -0.288 OA
ENDROOT
BRANCH   9  23
ATOM     23  C   LIG A   1      -5.597  -3.515 129.922  0.00  0.00    -0.040 C 
ATOM     24  C   LIG A   1      -4.273  -3.283 129.246  0.00  0.00    +0.042 C 
ATOM     25  C   LIG A   1      -5.828  -4.632 130.634  0.00  0.00    +0.011 C 
ENDBRANCH   9  23
BRANCH   1  26
ATOM     26  O   LIG A   1      -6.558   4.850 128.777  0.00  0.00    -0.373 OA
ATOM     27  H   LIG A   1      -5.849   4.312 128.374  0.00  0.00    +0.211 HD
ENDBRANCH   1  26
BRANCH  20  28
ATOM     28  O   LIG A   1     -12.557   6.450 130.516  0.00  0.00    -0.491 OA
ATOM     29  C   LIG A   1     -12.557   7.297 131.662  0.00  0.00    +0.277 C 
ENDBRANCH  20  28
BRANCH  19  30
ATOM     30  O   LIG A   1     -10.403   7.978 129.225  0.00  0.00    -0.491 OA
ATOM     31  C   LIG A   1     -10.794   8.346 127.909  0.00  0.00    +0.277 C 
ENDBRANCH  19  30
BRANCH   4  32
ATOM     32  O   LIG A   1      -8.833   1.234 125.801  0.00  0.00    -0.506 OA
ATOM     33  H   LIG A   1      -8.162   1.381 125.095  0.00  0.00    +0.292 HD
ENDBRANCH   4  32
TORSDOF 5
ENDMDL
MODEL 6
REMARK VINA RESULT:      -7.6      1.909      2.313
REMARK  Name = NuBBE_1449
REMARK  8 active torsions:
REMARK  status: ('A' for Active; 'I' for Inactive)
REMARK    1  A    between atoms: O_1  and  C_2
REMARK    2  A    between atoms: C_5  and  O_30
REMARK    3  A    between atoms: C_10  and  C_12
REMARK    4  A    between atoms: C_12  and  C_13
REMARK    5  A    between atoms: C_23  and  O_28
REMARK    6  A    between atoms: C_24  and  O_25
REMARK    7  A    between atoms: O_25  and  C_26
REMARK    8  A    between atoms: O_28  and  C_29
REMARK                            x       y       z     vdW  Elec       q    Type
REMARK                         _______ _______ _______ _____ _____    ______ ____
ROOT
ATOM      1  C   LIG A   1      -6.817   3.436 127.614  0.00  0.00    +0.197 C 
ATOM      2  C   LIG A   1      -7.818   3.232 126.464  0.00  0.00    +0.210 C 
ATOM      3  C   LIG A   1      -7.768   1.963 125.721  0.00  0.00    +0.104 A 
ATOM      4  C   LIG A   1      -8.827   1.548 124.892  0.00  0.00    +0.134 A 
ATOM      5  C   LIG A   1      -8.767   0.329 124.212  0.00  0.00    +0.092 A 
ATOM      6  C   LIG A   1      -7.636  -0.443 124.380  0.00  0.00    +0.132 A 
ATOM      7  C   LIG A   1      -6.572  -0.025 125.161  0.00  0.00    +0.041 A 
ATOM      8  C   LIG A   1      -5.486  -1.029 125.101  0.00  0.00    +0.091 C 
ATOM      9  C   LIG A   1      -6.249  -2.191 124.441  0.00  0.00    +0.203 C 
ATOM     10  O   LIG A   1      -7.440  -1.665 123.792  0.00  0.00    -0.484 OA
ATOM     11  C   LIG A   1      -6.624   1.182 125.835  0.00  0.00    +0.142 A 
ATOM     12  O   LIG A   1      -5.529   1.566 126.546  0.00  0.00    -0.480 OA
ATOM     13  C   LIG A   1      -5.863   2.235 127.777  0.00  0.00    +0.254 C 
ATOM     14  C   LIG A   1      -6.357   1.197 128.804  0.00  0.00    +0.277 C 
ATOM     15  O   LIG A   1      -7.770   1.281 129.040  0.00  0.00    -0.488 OA
ATOM     16  C   LIG A   1      -8.047   2.520 129.558  0.00  0.00    +0.131 A 
ATOM     17  C   LIG A   1      -7.552   3.659 128.921  0.00  0.00    +0.041 A 
ATOM     18  C   LIG A   1      -7.797   4.898 129.521  0.00  0.00    +0.060 A 
ATOM     19  C   LIG A   1      -8.517   4.995 130.731  0.00  0.00    +0.162 A 
ATOM     20  C   LIG A   1      -9.023   3.828 131.336  0.00  0.00    +0.165 A 
ATOM     21  C   LIG A   1      -8.805   2.592 130.719  0.00  0.00    +0.095 A 
ATOM     22  O   LIG A   1      -8.637   4.098 126.123  0.00  0.00    -0.288 OA
ENDROOT
BRANCH   9  23
ATOM     23  C   LIG A   1      -5.405  -2.965 123.447  0.00  0.00    -0.040 C 
ATOM     24  C   LIG A   1      -4.622  -4.138 123.970  0.00  0.00    +0.042 C 
ATOM     25  C   LIG A   1      -5.359  -2.621 122.147  0.00  0.00    +0.011 C 
ENDBRANCH   9  23
BRANCH   1  26
ATOM     26  O   LIG A   1      -6.049   4.602 127.258  0.00  0.00    -0.373 OA
ATOM     27  H   LIG A   1      -5.553   4.859 128.060  0.00  0.00    +0.211 HD
ENDBRANCH   1  26
BRANCH  20  28
ATOM     28  O   LIG A   1      -9.761   3.921 132.487  0.00  0.00    -0.491 OA
ATOM     29  C   LIG A   1      -9.072   3.600 133.692  0.00  0.00    +0.277 C 
ENDBRANCH  20  28
BRANCH  19  30
ATOM     30  O   LIG A   1      -8.612   6.289 131.176  0.00  0.00    -0.491 OA
ATOM     31  C   LIG A   1      -9.388   7.213 130.428  0.00  0.00    +0.277 C 
ENDBRANCH  19  30
BRANCH   4  32
ATOM     32  O   LIG A   1      -9.956   2.301 124.699  0.00  0.00    -0.506 OA
ATOM     33  H   LIG A   1      -9.804   3.190 125.095  0.00  0.00    +0.292 HD
ENDBRANCH   4  32
TORSDOF 5
ENDMDL
MODEL 7
REMARK VINA RESULT:      -7.6      3.255      5.024
REMARK  Name = NuBBE_1449
REMARK  8 active torsions:
REMARK  status: ('A' for Active; 'I' for Inactive)
REMARK    1  A    between atoms: O_1  and  C_2
REMARK    2  A    between atoms: C_5  and  O_30
REMARK    3  A    between atoms: C_10  and  C_12
REMARK    4  A    between atoms: C_12  and  C_13
REMARK    5  A    between atoms: C_23  and  O_28
REMARK    6  A    between atoms: C_24  and  O_25
REMARK    7  A    between atoms: O_25  and  C_26
REMARK    8  A    between atoms: O_28  and  C_29
REMARK                            x       y       z     vdW  Elec       q    Type
REMARK                         _______ _______ _______ _____ _____    ______ ____
ROOT
ATOM      1  C   LIG A   1      -6.608   0.421 128.266  0.00  0.00    +0.197 C 
ATOM      2  C   LIG A   1      -5.450   1.417 128.079  0.00  0.00    +0.210 C 
ATOM      3  C   LIG A   1      -5.439   2.243 126.862  0.00  0.00    +0.104 A 
ATOM      4  C   LIG A   1      -4.631   3.390 126.754  0.00  0.00    +0.134 A 
ATOM      5  C   LIG A   1      -4.652   4.173 125.597  0.00  0.00    +0.092 A 
ATOM      6  C   LIG A   1      -5.485   3.778 124.572  0.00  0.00    +0.132 A 
ATOM      7  C   LIG A   1      -6.254   2.628 124.653  0.00  0.00    +0.041 A 
ATOM      8  C   LIG A   1      -6.993   2.434 123.386  0.00  0.00    +0.091 C 
ATOM      9  C   LIG A   1      -6.763   3.812 122.740  0.00  0.00    +0.203 C 
ATOM     10  O   LIG A   1      -5.625   4.450 123.386  0.00  0.00    -0.484 OA
ATOM     11  C   LIG A   1      -6.236   1.849 125.795  0.00  0.00    +0.142 A 
ATOM     12  O   LIG A   1      -6.972   0.703 125.799  0.00  0.00    -0.480 OA
ATOM     13  C   LIG A   1      -7.587   0.434 127.074  0.00  0.00    +0.254 C 
ATOM     14  C   LIG A   1      -8.782   1.385 127.275  0.00  0.00    +0.277 C 
ATOM     15  O   LIG A   1      -8.524   2.400 128.256  0.00  0.00    -0.488 OA
ATOM     16  C   LIG A   1      -8.295   1.785 129.460  0.00  0.00    +0.131 A 
ATOM     17  C   LIG A   1      -7.378   0.737 129.534  0.00  0.00    +0.041 A 
ATOM     18  C   LIG A   1      -7.226   0.091 130.765  0.00  0.00    +0.060 A 
ATOM     19  C   LIG A   1      -7.977   0.482 131.894  0.00  0.00    +0.162 A 
ATOM     20  C   LIG A   1      -8.879   1.559 131.790  0.00  0.00    +0.165 A 
ATOM     21  C   LIG A   1      -9.006   2.226 130.568  0.00  0.00    +0.095 A 
ATOM     22  O   LIG A   1      -4.520   1.527 128.892  0.00  0.00    -0.288 OA
ENDROOT
BRANCH   9  23
ATOM     23  C   LIG A   1      -6.544   3.736 121.242  0.00  0.00    -0.040 C 
ATOM     24  C   LIG A   1      -5.137   3.519 120.759  0.00  0.00    +0.042 C 
ATOM     25  C   LIG A   1      -7.566   3.856 120.375  0.00  0.00    +0.011 C 
ENDBRANCH   9  23
BRANCH   1  26
ATOM     26  O   LIG A   1      -5.993  -0.879 128.355  0.00  0.00    -0.373 OA
ATOM     27  H   LIG A   1      -5.028  -0.727 128.340  0.00  0.00    +0.211 HD
ENDBRANCH   1  26
BRANCH  20  28
ATOM     28  O   LIG A   1      -9.577   1.972 132.895  0.00  0.00    -0.491 OA
ATOM     29  C   LIG A   1      -9.194   3.235 133.433  0.00  0.00    +0.277 C 
ENDBRANCH  20  28
BRANCH  19  30
ATOM     30  O   LIG A   1      -7.715  -0.302 132.988  0.00  0.00    -0.491 OA
ATOM     31  C   LIG A   1      -7.561  -1.702 132.805  0.00  0.00    +0.277 C 
ENDBRANCH  19  30
BRANCH   4  32
ATOM     32  O   LIG A   1      -3.785   3.798 127.753  0.00  0.00    -0.506 OA
ATOM     33  H   LIG A   1      -3.502   3.004 128.260  0.00  0.00    +0.292 HD
ENDBRANCH   4  32
TORSDOF 5
ENDMDL
MODEL 8
REMARK VINA RESULT:      -7.4      2.649      8.644
REMARK  Name = NuBBE_1449
REMARK  8 active torsions:
REMARK  status: ('A' for Active; 'I' for Inactive)
REMARK    1  A    between atoms: O_1  and  C_2
REMARK    2  A    between atoms: C_5  and  O_30
REMARK    3  A    between atoms: C_10  and  C_12
REMARK    4  A    between atoms: C_12  and  C_13
REMARK    5  A    between atoms: C_23  and  O_28
REMARK    6  A    between atoms: C_24  and  O_25
REMARK    7  A    between atoms: O_25  and  C_26
REMARK    8  A    between atoms: O_28  and  C_29
REMARK                            x       y       z     vdW  Elec       q    Type
REMARK                         _______ _______ _______ _____ _____    ______ ____
ROOT
ATOM      1  C   LIG A   1      -5.164   2.154 127.242  0.00  0.00    +0.197 C 
ATOM      2  C   LIG A   1      -6.159   2.716 128.272  0.00  0.00    +0.210 C 
ATOM      3  C   LIG A   1      -5.719   3.836 129.118  0.00  0.00    +0.104 A 
ATOM      4  C   LIG A   1      -6.636   4.624 129.840  0.00  0.00    +0.134 A 
ATOM      5  C   LIG A   1      -6.198   5.696 130.621  0.00  0.00    +0.092 A 
ATOM      6  C   LIG A   1      -4.843   5.948 130.659  0.00  0.00    +0.132 A 
ATOM      7  C   LIG A   1      -3.929   5.155 129.984  0.00  0.00    +0.041 A 
ATOM      8  C   LIG A   1      -2.556   5.632 130.262  0.00  0.00    +0.091 C 
ATOM      9  C   LIG A   1      -2.882   6.986 130.916  0.00  0.00    +0.203 C 
ATOM     10  O   LIG A   1      -4.266   6.971 131.366  0.00  0.00    -0.484 OA
ATOM     11  C   LIG A   1      -4.357   4.091 129.212  0.00  0.00    +0.142 A 
ATOM     12  O   LIG A   1      -3.412   3.315 128.613  0.00  0.00    -0.480 OA
ATOM     13  C   LIG A   1      -3.799   2.870 127.298  0.00  0.00    +0.254 C 
ATOM     14  C   LIG A   1      -3.684   4.045 126.308  0.00  0.00    +0.277 C 
ATOM     15  O   LIG A   1      -4.962   4.547 125.892  0.00  0.00    -0.488 OA
ATOM     16  C   LIG A   1      -5.629   3.540 125.243  0.00  0.00    +0.131 A 
ATOM     17  C   LIG A   1      -5.726   2.282 125.839  0.00  0.00    +0.041 A 
ATOM     18  C   LIG A   1      -6.352   1.264 125.113  0.00  0.00    +0.060 A 
ATOM     19  C   LIG A   1      -6.865   1.498 123.819  0.00  0.00    +0.162 A 
ATOM     20  C   LIG A   1      -6.770   2.785 123.255  0.00  0.00    +0.165 A 
ATOM     21  C   LIG A   1      -6.173   3.811 123.995  0.00  0.00    +0.095 A 
ATOM     22  O   LIG A   1      -7.296   2.247 128.435  0.00  0.00    -0.288 OA
ENDROOT
BRANCH   9  23
ATOM     23  C   LIG A   1      -1.958   7.327 132.068  0.00  0.00    -0.040 C 
ATOM     24  C   LIG A   1      -0.755   6.448 132.272  0.00  0.00    +0.042 C 
ATOM     25  C   LIG A   1      -2.199   8.375 132.877  0.00  0.00    +0.011 C 
ENDBRANCH   9  23
BRANCH   1  26
ATOM     26  O   LIG A   1      -4.983   0.769 127.592  0.00  0.00    -0.373 OA
ATOM     27  H   LIG A   1      -4.099   0.515 127.262  0.00  0.00    +0.211 HD
ENDBRANCH   1  26
BRANCH  20  28
ATOM     28  O   LIG A   1      -7.306   3.029 122.018  0.00  0.00    -0.491 OA
ATOM     29  C   LIG A   1      -6.468   3.736 121.108  0.00  0.00    +0.277 C 
ENDBRANCH  20  28
BRANCH  19  30
ATOM     30  O   LIG A   1      -7.398   0.365 123.260  0.00  0.00    -0.491 OA
ATOM     31  C   LIG A   1      -6.761  -0.881 123.501  0.00  0.00    +0.277 C 
ENDBRANCH  19  30
BRANCH   4  32
ATOM     32  O   LIG A   1      -7.986   4.386 129.828  0.00  0.00    -0.506 OA
ATOM     33  H   LIG A   1      -8.292   4.299 130.760  0.00  0.00    +0.292 HD
ENDBRANCH   4  32
TORSDOF 5
ENDMDL
MODEL 9
REMARK VINA RESULT:      -7.4      2.698      8.369
REMARK  Name = NuBBE_1449
REMARK  8 active torsions:
REMARK  status: ('A' for Active; 'I' for Inactive)
REMARK    1  A    between atoms: O_1  and  C_2
REMARK    2  A    between atoms: C_5  and  O_30
REMARK    3  A    between atoms: C_10  and  C_12
REMARK    4  A    between atoms: C_12  and  C_13
REMARK    5  A    between atoms: C_23  and  O_28
REMARK    6  A    between atoms: C_24  and  O_25
REMARK    7  A    between atoms: O_25  and  C_26
REMARK    8  A    between atoms: O_28  and  C_29
REMARK                            x       y       z     vdW  Elec       q    Type
REMARK                         _______ _______ _______ _____ _____    ______ ____
ROOT
ATOM      1  C   LIG A   1      -7.908   0.621 126.334  0.00  0.00    +0.197 C 
ATOM      2  C   LIG A   1      -7.763   1.793 125.348  0.00  0.00    +0.210 C 
ATOM      3  C   LIG A   1      -6.924   2.933 125.748  0.00  0.00    +0.104 A 
ATOM      4  C   LIG A   1      -6.465   3.879 124.812  0.00  0.00    +0.134 A 
ATOM      5  C   LIG A   1      -5.652   4.943 125.211  0.00  0.00    +0.092 A 
ATOM      6  C   LIG A   1      -5.322   5.030 126.546  0.00  0.00    +0.132 A 
ATOM      7  C   LIG A   1      -5.800   4.127 127.482  0.00  0.00    +0.041 A 
ATOM      8  C   LIG A   1      -5.328   4.510 128.831  0.00  0.00    +0.091 C 
ATOM      9  C   LIG A   1      -4.266   5.555 128.443  0.00  0.00    +0.203 C 
ATOM     10  O   LIG A   1      -4.522   6.005 127.083  0.00  0.00    -0.484 OA
ATOM     11  C   LIG A   1      -6.607   3.074 127.093  0.00  0.00    +0.142 A 
ATOM     12  O   LIG A   1      -7.091   2.247 128.062  0.00  0.00    -0.480 OA
ATOM     13  C   LIG A   1      -7.142   0.868 127.650  0.00  0.00    +0.254 C 
ATOM     14  C   LIG A   1      -5.716   0.283 127.646  0.00  0.00    +0.277 C 
ATOM     15  O   LIG A   1      -5.210   0.066 126.321  0.00  0.00    -0.488 OA
ATOM     16  C   LIG A   1      -6.019  -0.847 125.696  0.00  0.00    +0.131 A 
ATOM     17  C   LIG A   1      -7.402  -0.663 125.707  0.00  0.00    +0.041 A 
ATOM     18  C   LIG A   1      -8.195  -1.654 125.120  0.00  0.00    +0.060 A 
ATOM     19  C   LIG A   1      -7.618  -2.804 124.539  0.00  0.00    +0.162 A 
ATOM     20  C   LIG A   1      -6.217  -2.948 124.525  0.00  0.00    +0.165 A 
ATOM     21  C   LIG A   1      -5.423  -1.941 125.083  0.00  0.00    +0.095 A 
ATOM     22  O   LIG A   1      -8.344   1.827 124.253  0.00  0.00    -0.288 OA
ENDROOT
BRANCH   9  23
ATOM     23  C   LIG A   1      -4.223   6.738 129.391  0.00  0.00    -0.040 C 
ATOM     24  C   LIG A   1      -4.963   6.607 130.693  0.00  0.00    +0.042 C 
ATOM     25  C   LIG A   1      -3.549   7.861 129.083  0.00  0.00    +0.011 C 
ENDBRANCH   9  23
BRANCH   1  26
ATOM     26  O   LIG A   1      -9.317   0.526 126.621  0.00  0.00    -0.373 OA
ATOM     27  H   LIG A   1      -9.414  -0.180 127.289  0.00  0.00    +0.211 HD
ENDBRANCH   1  26
BRANCH  20  28
ATOM     28  O   LIG A   1      -5.650  -4.041 123.923  0.00  0.00    -0.491 OA
ATOM     29  C   LIG A   1      -4.289  -3.892 123.527  0.00  0.00    +0.277 C 
ENDBRANCH  20  28
BRANCH  19  30
ATOM     30  O   LIG A   1      -8.564  -3.673 124.059  0.00  0.00    -0.491 OA
ATOM     31  C   LIG A   1      -9.609  -3.163 123.244  0.00  0.00    +0.277 C 
ENDBRANCH  19  30
BRANCH   4  32
ATOM     32  O   LIG A   1      -6.789   3.822 123.481  0.00  0.00    -0.506 OA
ATOM     33  H   LIG A   1      -7.770   3.801 123.403  0.00  0.00    +0.292 HD
ENDBRANCH   4  32
TORSDOF 5
ENDMDL
