MODEL 1
REMARK VINA RESULT:      -8.2      0.000      0.000
REMARK  Name = NuBBE_996
REMARK  7 active torsions:
REMARK  status: ('A' for Active; 'I' for Inactive)
REMARK    1  A    between atoms: C_1  and  C_2
REMARK    2  A    between atoms: C_6  and  C_8
REMARK    3  A    between atoms: C_8  and  C_9
REMARK    4  A    between atoms: C_15  and  O_17
REMARK    5  A    between atoms: C_18  and  O_20
REMARK    6  A    between atoms: C_21  and  O_23
REMARK    7  A    between atoms: C_25  and  C_26
REMARK                            x       y       z     vdW  Elec       q    Type
REMARK                         _______ _______ _______ _____ _____    ______ ____
ROOT
ATOM      1  C   LIG A   1      -6.015  -4.409 130.331  0.00  0.00    +0.012 C 
ATOM      2  C   LIG A   1      -6.551  -3.034 129.870  0.00  0.00    -0.019 C 
ATOM      3  C   LIG A   1      -5.646  -2.511 128.707  0.00  0.00    +0.006 C 
ATOM      4  C   LIG A   1      -4.437  -1.885 129.417  0.00  0.00    +0.079 C 
ATOM      5  C   LIG A   1      -5.003  -1.427 130.732  0.00  0.00    +0.137 C 
ATOM      6  C   LIG A   1      -6.413  -1.936 130.968  0.00  0.00    +0.061 C 
ATOM      7  O   LIG A   1      -4.383  -0.715 131.513  0.00  0.00    -0.297 OA
ATOM      8  C   LIG A   1      -6.399  -1.558 127.729  0.00  0.00    -0.003 C 
ATOM      9  C   LIG A   1      -5.432  -0.941 126.700  0.00  0.00    +0.004 C 
ATOM     10  C   LIG A   1      -6.027  -0.429 125.393  0.00  0.00    +0.007 C 
ATOM     11  C   LIG A   1      -7.310  -1.117 124.907  0.00  0.00    +0.026 C 
ATOM     12  C   LIG A   1      -7.448  -1.082 123.365  0.00  0.00    +0.149 C 
ATOM     13  C   LIG A   1      -8.801  -1.645 122.911  0.00  0.00    +0.172 C 
ATOM     14  C   LIG A   1      -9.067  -3.034 123.510  0.00  0.00    +0.146 C 
ATOM     15  C   LIG A   1      -8.946  -3.031 125.038  0.00  0.00    +0.041 C 
ATOM     16  C   LIG A   1      -7.573  -2.510 125.558  0.00  0.00    -0.021 C 
ATOM     17  C   LIG A   1      -6.507  -3.577 125.217  0.00  0.00    +0.012 C 
ATOM     18  C   LIG A   1      -7.652  -2.254 127.107  0.00  0.00    -0.001 C 
ATOM     19  C   LIG A   1      -8.126  -3.471 127.928  0.00  0.00    +0.005 C 
ATOM     20  C   LIG A   1      -8.020  -3.190 129.423  0.00  0.00    +0.008 C 
ENDROOT
BRANCH   6  21
ATOM     21  C   LIG A   1      -6.620  -2.334 132.433  0.00  0.00    +0.008 C 
ATOM     22  C   LIG A   1      -7.993  -1.976 132.977  0.00  0.00    +0.004 C 
ENDBRANCH   6  21
BRANCH  12  23
ATOM     23  O   LIG A   1      -6.405  -1.812 122.722  0.00  0.00    -0.389 OA
ATOM     24  H   LIG A   1      -6.809  -2.586 122.291  0.00  0.00    +0.210 HD
ENDBRANCH  12  23
BRANCH  13  25
ATOM     25  O   LIG A   1      -9.856  -0.752 123.294  0.00  0.00    -0.387 OA
ATOM     26  H   LIG A   1     -10.590  -1.330 123.590  0.00  0.00    +0.210 HD
ENDBRANCH  13  25
BRANCH  14  27
ATOM     27  O   LIG A   1     -10.410  -3.421 123.176  0.00  0.00    -0.389 OA
ATOM     28  H   LIG A   1     -10.575  -4.274 123.619  0.00  0.00    +0.210 HD
ENDBRANCH  14  27
TORSDOF 4
ENDMDL
MODEL 2
REMARK VINA RESULT:      -7.9      1.530      7.188
REMARK  Name = NuBBE_996
REMARK  7 active torsions:
REMARK  status: ('A' for Active; 'I' for Inactive)
REMARK    1  A    between atoms: C_1  and  C_2
REMARK    2  A    between atoms: C_6  and  C_8
REMARK    3  A    between atoms: C_8  and  C_9
REMARK    4  A    between atoms: C_15  and  O_17
REMARK    5  A    between atoms: C_18  and  O_20
REMARK    6  A    between atoms: C_21  and  O_23
REMARK    7  A    between atoms: C_25  and  C_26
REMARK                            x       y       z     vdW  Elec       q    Type
REMARK                         _______ _______ _______ _____ _____    ______ ____
ROOT
ATOM      1  C   LIG A   1      -6.450  -1.641 123.663  0.00  0.00    +0.012 C 
ATOM      2  C   LIG A   1      -7.633  -1.486 124.648  0.00  0.00    -0.019 C 
ATOM      3  C   LIG A   1      -7.649  -2.723 125.605  0.00  0.00    +0.006 C 
ATOM      4  C   LIG A   1      -8.366  -3.817 124.800  0.00  0.00    +0.079 C 
ATOM      5  C   LIG A   1      -9.289  -3.042 123.901  0.00  0.00    +0.137 C 
ATOM      6  C   LIG A   1      -9.019  -1.550 123.937  0.00  0.00    +0.061 C 
ATOM      7  O   LIG A   1     -10.162  -3.574 123.227  0.00  0.00    -0.297 OA
ATOM      8  C   LIG A   1      -8.282  -2.410 126.995  0.00  0.00    -0.003 C 
ATOM      9  C   LIG A   1      -8.426  -3.690 127.841  0.00  0.00    +0.004 C 
ATOM     10  C   LIG A   1      -8.521  -3.529 129.353  0.00  0.00    +0.007 C 
ATOM     11  C   LIG A   1      -7.828  -2.299 129.957  0.00  0.00    +0.026 C 
ATOM     12  C   LIG A   1      -7.355  -2.545 131.411  0.00  0.00    +0.149 C 
ATOM     13  C   LIG A   1      -6.797  -1.262 132.042  0.00  0.00    +0.172 C 
ATOM     14  C   LIG A   1      -5.721  -0.616 131.157  0.00  0.00    +0.146 C 
ATOM     15  C   LIG A   1      -6.227  -0.364 129.732  0.00  0.00    +0.041 C 
ATOM     16  C   LIG A   1      -6.766  -1.642 129.022  0.00  0.00    -0.021 C 
ATOM     17  C   LIG A   1      -5.554  -2.551 128.709  0.00  0.00    +0.012 C 
ATOM     18  C   LIG A   1      -7.534  -1.240 127.711  0.00  0.00    -0.001 C 
ATOM     19  C   LIG A   1      -6.712  -0.373 126.735  0.00  0.00    +0.005 C 
ATOM     20  C   LIG A   1      -7.469  -0.164 125.428  0.00  0.00    +0.008 C 
ENDROOT
BRANCH   6  21
ATOM     21  C   LIG A   1      -9.157  -0.929 122.544  0.00  0.00    +0.008 C 
ATOM     22  C   LIG A   1     -10.092   0.269 122.497  0.00  0.00    +0.004 C 
ENDBRANCH   6  21
BRANCH  12  23
ATOM     23  O   LIG A   1      -6.359  -3.563 131.480  0.00  0.00    -0.389 OA
ATOM     24  H   LIG A   1      -6.710  -4.282 132.035  0.00  0.00    +0.210 HD
ENDBRANCH  12  23
BRANCH  13  25
ATOM     25  O   LIG A   1      -7.858  -0.323 132.261  0.00  0.00    -0.387 OA
ATOM     26  H   LIG A   1      -7.689   0.058 133.148  0.00  0.00    +0.210 HD
ENDBRANCH  13  25
BRANCH  14  27
ATOM     27  O   LIG A   1      -5.367   0.654 131.729  0.00  0.00    -0.389 OA
ATOM     28  H   LIG A   1      -6.202   1.098 131.965  0.00  0.00    +0.210 HD
ENDBRANCH  14  27
TORSDOF 4
ENDMDL
MODEL 3
REMARK VINA RESULT:      -7.6      1.905      3.708
REMARK  Name = NuBBE_996
REMARK  7 active torsions:
REMARK  status: ('A' for Active; 'I' for Inactive)
REMARK    1  A    between atoms: C_1  and  C_2
REMARK    2  A    between atoms: C_6  and  C_8
REMARK    3  A    between atoms: C_8  and  C_9
REMARK    4  A    between atoms: C_15  and  O_17
REMARK    5  A    between atoms: C_18  and  O_20
REMARK    6  A    between atoms: C_21  and  O_23
REMARK    7  A    between atoms: C_25  and  C_26
REMARK                            x       y       z     vdW  Elec       q    Type
REMARK                         _______ _______ _______ _____ _____    ______ ____
ROOT
ATOM      1  C   LIG A   1      -4.754  -1.094 132.057  0.00  0.00    +0.012 C 
ATOM      2  C   LIG A   1      -5.050  -2.408 131.297  0.00  0.00    -0.019 C 
ATOM      3  C   LIG A   1      -6.574  -2.449 130.947  0.00  0.00    +0.006 C 
ATOM      4  C   LIG A   1      -7.247  -2.952 132.232  0.00  0.00    +0.079 C 
ATOM      5  C   LIG A   1      -6.188  -3.807 132.869  0.00  0.00    +0.137 C 
ATOM      6  C   LIG A   1      -4.842  -3.675 132.184  0.00  0.00    +0.061 C 
ATOM      7  O   LIG A   1      -6.408  -4.532 133.832  0.00  0.00    -0.297 OA
ATOM      8  C   LIG A   1      -6.884  -3.289 129.670  0.00  0.00    -0.003 C 
ATOM      9  C   LIG A   1      -8.403  -3.436 129.458  0.00  0.00    +0.004 C 
ATOM     10  C   LIG A   1      -8.890  -3.749 128.048  0.00  0.00    +0.007 C 
ATOM     11  C   LIG A   1      -8.010  -3.254 126.892  0.00  0.00    +0.026 C 
ATOM     12  C   LIG A   1      -8.830  -2.963 125.611  0.00  0.00    +0.149 C 
ATOM     13  C   LIG A   1      -7.917  -2.608 124.431  0.00  0.00    +0.172 C 
ATOM     14  C   LIG A   1      -6.937  -1.482 124.789  0.00  0.00    +0.146 C 
ATOM     15  C   LIG A   1      -6.124  -1.809 126.047  0.00  0.00    +0.041 C 
ATOM     16  C   LIG A   1      -7.000  -2.134 127.294  0.00  0.00    -0.021 C 
ATOM     17  C   LIG A   1      -7.668  -0.817 127.754  0.00  0.00    +0.012 C 
ATOM     18  C   LIG A   1      -6.104  -2.749 128.429  0.00  0.00    -0.001 C 
ATOM     19  C   LIG A   1      -4.890  -1.880 128.820  0.00  0.00    +0.005 C 
ATOM     20  C   LIG A   1      -4.172  -2.467 130.030  0.00  0.00    +0.008 C 
ENDROOT
BRANCH   6  21
ATOM     21  C   LIG A   1      -3.698  -3.675 133.203  0.00  0.00    +0.008 C 
ATOM     22  C   LIG A   1      -3.029  -5.029 133.374  0.00  0.00    +0.004 C 
ENDBRANCH   6  21
BRANCH  12  23
ATOM     23  O   LIG A   1      -9.763  -1.902 125.807  0.00  0.00    -0.389 OA
ATOM     24  H   LIG A   1     -10.556  -2.280 126.226  0.00  0.00    +0.210 HD
ENDBRANCH  12  23
BRANCH  13  25
ATOM     25  O   LIG A   1      -7.178  -3.767 124.018  0.00  0.00    -0.387 OA
ATOM     26  H   LIG A   1      -7.783  -4.264 123.429  0.00  0.00    +0.210 HD
ENDBRANCH  13  25
BRANCH  14  27
ATOM     27  O   LIG A   1      -6.015  -1.320 123.699  0.00  0.00    -0.389 OA
ATOM     28  H   LIG A   1      -6.534  -1.398 122.878  0.00  0.00    +0.210 HD
ENDBRANCH  14  27
TORSDOF 4
ENDMDL
MODEL 4
REMARK VINA RESULT:      -7.3      1.925      7.090
REMARK  Name = NuBBE_996
REMARK  7 active torsions:
REMARK  status: ('A' for Active; 'I' for Inactive)
REMARK    1  A    between atoms: C_1  and  C_2
REMARK    2  A    between atoms: C_6  and  C_8
REMARK    3  A    between atoms: C_8  and  C_9
REMARK    4  A    between atoms: C_15  and  O_17
REMARK    5  A    between atoms: C_18  and  O_20
REMARK    6  A    between atoms: C_21  and  O_23
REMARK    7  A    between atoms: C_25  and  C_26
REMARK                            x       y       z     vdW  Elec       q    Type
REMARK                         _______ _______ _______ _____ _____    ______ ____
ROOT
ATOM      1  C   LIG A   1      -8.313  -0.687 126.128  0.00  0.00    +0.012 C 
ATOM      2  C   LIG A   1      -7.579  -2.001 126.482  0.00  0.00    -0.019 C 
ATOM      3  C   LIG A   1      -6.230  -1.644 127.188  0.00  0.00    +0.006 C 
ATOM      4  C   LIG A   1      -5.268  -1.330 126.033  0.00  0.00    +0.079 C 
ATOM      5  C   LIG A   1      -5.790  -2.175 124.904  0.00  0.00    +0.137 C 
ATOM      6  C   LIG A   1      -7.135  -2.801 125.219  0.00  0.00    +0.061 C 
ATOM      7  O   LIG A   1      -5.179  -2.335 123.854  0.00  0.00    -0.297 OA
ATOM      8  C   LIG A   1      -5.741  -2.754 128.167  0.00  0.00    -0.003 C 
ATOM      9  C   LIG A   1      -4.336  -2.434 128.712  0.00  0.00    +0.004 C 
ATOM     10  C   LIG A   1      -3.924  -3.087 130.026  0.00  0.00    +0.007 C 
ATOM     11  C   LIG A   1      -5.054  -3.429 131.006  0.00  0.00    +0.026 C 
ATOM     12  C   LIG A   1      -4.582  -3.401 132.482  0.00  0.00    +0.149 C 
ATOM     13  C   LIG A   1      -5.686  -3.883 133.431  0.00  0.00    +0.172 C 
ATOM     14  C   LIG A   1      -7.002  -3.125 133.204  0.00  0.00    +0.146 C 
ATOM     15  C   LIG A   1      -7.455  -3.190 131.741  0.00  0.00    +0.041 C 
ATOM     16  C   LIG A   1      -6.389  -2.669 130.730  0.00  0.00    -0.021 C 
ATOM     17  C   LIG A   1      -6.289  -1.135 130.902  0.00  0.00    +0.012 C 
ATOM     18  C   LIG A   1      -6.810  -3.056 129.266  0.00  0.00    -0.001 C 
ATOM     19  C   LIG A   1      -8.224  -2.585 128.867  0.00  0.00    +0.005 C 
ATOM     20  C   LIG A   1      -8.488  -2.857 127.390  0.00  0.00    +0.008 C 
ENDROOT
BRANCH   6  21
ATOM     21  C   LIG A   1      -8.050  -2.797 123.991  0.00  0.00    +0.008 C 
ATOM     22  C   LIG A   1      -9.292  -3.658 124.149  0.00  0.00    +0.004 C 
ENDBRANCH   6  21
BRANCH  12  23
ATOM     23  O   LIG A   1      -4.166  -2.097 132.882  0.00  0.00    -0.389 OA
ATOM     24  H   LIG A   1      -3.197  -2.059 132.804  0.00  0.00    +0.210 HD
ENDBRANCH  12  23
BRANCH  13  25
ATOM     25  O   LIG A   1      -5.910  -5.289 133.248  0.00  0.00    -0.387 OA
ATOM     26  H   LIG A   1      -6.881  -5.406 133.304  0.00  0.00    +0.210 HD
ENDBRANCH  13  25
BRANCH  14  27
ATOM     27  O   LIG A   1      -8.023  -3.738 134.008  0.00  0.00    -0.389 OA
ATOM     28  H   LIG A   1      -8.633  -3.027 134.277  0.00  0.00    +0.210 HD
ENDBRANCH  14  27
TORSDOF 4
ENDMDL
MODEL 5
REMARK VINA RESULT:      -7.3      3.282      6.826
REMARK  Name = NuBBE_996
REMARK  7 active torsions:
REMARK  status: ('A' for Active; 'I' for Inactive)
REMARK    1  A    between atoms: C_1  and  C_2
REMARK    2  A    between atoms: C_6  and  C_8
REMARK    3  A    between atoms: C_8  and  C_9
REMARK    4  A    between atoms: C_15  and  O_17
REMARK    5  A    between atoms: C_18  and  O_20
REMARK    6  A    between atoms: C_21  and  O_23
REMARK    7  A    between atoms: C_25  and  C_26
REMARK                            x       y       z     vdW  Elec       q    Type
REMARK                         _______ _______ _______ _____ _____    ______ ____
ROOT
ATOM      1  C   LIG A   1      -7.948  -3.213 125.339  0.00  0.00    +0.012 C 
ATOM      2  C   LIG A   1      -6.756  -2.229 125.297  0.00  0.00    -0.019 C 
ATOM      3  C   LIG A   1      -7.278  -0.832 124.826  0.00  0.00    +0.006 C 
ATOM      4  C   LIG A   1      -7.337  -0.944 123.296  0.00  0.00    +0.079 C 
ATOM      5  C   LIG A   1      -6.255  -1.937 122.977  0.00  0.00    +0.137 C 
ATOM      6  C   LIG A   1      -5.698  -2.611 124.216  0.00  0.00    +0.061 C 
ATOM      7  O   LIG A   1      -5.871  -2.160 121.835  0.00  0.00    -0.297 OA
ATOM      8  C   LIG A   1      -6.422   0.354 125.366  0.00  0.00    -0.003 C 
ATOM      9  C   LIG A   1      -6.873   1.691 124.747  0.00  0.00    +0.004 C 
ATOM     10  C   LIG A   1      -6.536   2.968 125.508  0.00  0.00    +0.007 C 
ATOM     11  C   LIG A   1      -6.409   2.846 127.032  0.00  0.00    +0.026 C 
ATOM     12  C   LIG A   1      -6.772   4.164 127.761  0.00  0.00    +0.149 C 
ATOM     13  C   LIG A   1      -6.502   4.063 129.267  0.00  0.00    +0.172 C 
ATOM     14  C   LIG A   1      -7.174   2.827 129.884  0.00  0.00    +0.146 C 
ATOM     15  C   LIG A   1      -6.777   1.538 129.157  0.00  0.00    +0.041 C 
ATOM     16  C   LIG A   1      -7.071   1.563 127.627  0.00  0.00    -0.021 C 
ATOM     17  C   LIG A   1      -8.606   1.502 127.442  0.00  0.00    +0.012 C 
ATOM     18  C   LIG A   1      -6.361   0.348 126.927  0.00  0.00    -0.001 C 
ATOM     19  C   LIG A   1      -6.714  -1.027 127.532  0.00  0.00    +0.005 C 
ATOM     20  C   LIG A   1      -6.114  -2.154 126.700  0.00  0.00    +0.008 C 
ENDROOT
BRANCH   6  21
ATOM     21  C   LIG A   1      -5.416  -4.095 123.961  0.00  0.00    +0.008 C 
ATOM     22  C   LIG A   1      -3.966  -4.392 123.614  0.00  0.00    +0.004 C 
ENDBRANCH   6  21
BRANCH  12  23
ATOM     23  O   LIG A   1      -8.138   4.522 127.560  0.00  0.00    -0.389 OA
ATOM     24  H   LIG A   1      -8.348   5.243 128.180  0.00  0.00    +0.210 HD
ENDBRANCH  12  23
BRANCH  13  25
ATOM     25  O   LIG A   1      -5.089   4.005 129.508  0.00  0.00    -0.387 OA
ATOM     26  H   LIG A   1      -4.990   3.535 130.362  0.00  0.00    +0.210 HD
ENDBRANCH  13  25
BRANCH  14  27
ATOM     27  O   LIG A   1      -6.745   2.712 131.250  0.00  0.00    -0.389 OA
ATOM     28  H   LIG A   1      -7.473   2.285 131.739  0.00  0.00    +0.210 HD
ENDBRANCH  14  27
TORSDOF 4
ENDMDL
MODEL 6
REMARK VINA RESULT:      -7.2      5.505      7.720
REMARK  Name = NuBBE_996
REMARK  7 active torsions:
REMARK  status: ('A' for Active; 'I' for Inactive)
REMARK    1  A    between atoms: C_1  and  C_2
REMARK    2  A    between atoms: C_6  and  C_8
REMARK    3  A    between atoms: C_8  and  C_9
REMARK    4  A    between atoms: C_15  and  O_17
REMARK    5  A    between atoms: C_18  and  O_20
REMARK    6  A    between atoms: C_21  and  O_23
REMARK    7  A    between atoms: C_25  and  C_26
REMARK                            x       y       z     vdW  Elec       q    Type
REMARK                         _______ _______ _______ _____ _____    ______ ____
ROOT
ATOM      1  C   LIG A   1      -5.645  -0.404 128.998  0.00  0.00    +0.012 C 
ATOM      2  C   LIG A   1      -7.100  -0.254 129.502  0.00  0.00    -0.019 C 
ATOM      3  C   LIG A   1      -7.071   0.402 130.921  0.00  0.00    +0.006 C 
ATOM      4  C   LIG A   1      -6.782  -0.767 131.875  0.00  0.00    +0.079 C 
ATOM      5  C   LIG A   1      -7.373  -1.952 131.164  0.00  0.00    +0.137 C 
ATOM      6  C   LIG A   1      -7.796  -1.629 129.744  0.00  0.00    +0.061 C 
ATOM      7  O   LIG A   1      -7.500  -3.050 131.693  0.00  0.00    -0.297 OA
ATOM      8  C   LIG A   1      -8.365   1.210 131.246  0.00  0.00    -0.003 C 
ATOM      9  C   LIG A   1      -8.362   1.698 132.707  0.00  0.00    +0.004 C 
ATOM     10  C   LIG A   1      -9.238   2.897 133.051  0.00  0.00    +0.007 C 
ATOM     11  C   LIG A   1      -9.504   3.900 131.920  0.00  0.00    +0.026 C 
ATOM     12  C   LIG A   1      -9.746   5.335 132.450  0.00  0.00    +0.149 C 
ATOM     13  C   LIG A   1     -10.150   6.288 131.318  0.00  0.00    +0.172 C 
ATOM     14  C   LIG A   1      -9.155   6.237 130.149  0.00  0.00    +0.146 C 
ATOM     15  C   LIG A   1      -8.954   4.808 129.632  0.00  0.00    +0.041 C 
ATOM     16  C   LIG A   1      -8.499   3.800 130.730  0.00  0.00    -0.021 C 
ATOM     17  C   LIG A   1      -7.039   4.146 131.107  0.00  0.00    +0.012 C 
ATOM     18  C   LIG A   1      -8.617   2.330 130.187  0.00  0.00    -0.001 C 
ATOM     19  C   LIG A   1      -7.864   2.080 128.864  0.00  0.00    +0.005 C 
ATOM     20  C   LIG A   1      -7.896   0.601 128.494  0.00  0.00    +0.008 C 
ENDROOT
BRANCH   6  21
ATOM     21  C   LIG A   1      -7.478  -2.788 128.794  0.00  0.00    +0.008 C 
ATOM     22  C   LIG A   1      -8.695  -3.614 128.406  0.00  0.00    +0.004 C 
ENDBRANCH   6  21
BRANCH  12  23
ATOM     23  O   LIG A   1      -8.594   5.859 133.107  0.00  0.00    -0.389 OA
ATOM     24  H   LIG A   1      -8.221   5.151 133.660  0.00  0.00    +0.210 HD
ENDBRANCH  12  23
BRANCH  13  25
ATOM     25  O   LIG A   1     -11.461   5.955 130.841  0.00  0.00    -0.387 OA
ATOM     26  H   LIG A   1     -11.815   5.308 131.486  0.00  0.00    +0.210 HD
ENDBRANCH  13  25
BRANCH  14  27
ATOM     27  O   LIG A   1      -9.682   7.025 129.071  0.00  0.00    -0.389 OA
ATOM     28  H   LIG A   1     -10.307   6.455 128.585  0.00  0.00    +0.210 HD
ENDBRANCH  14  27
TORSDOF 4
ENDMDL
MODEL 7
REMARK VINA RESULT:      -7.1      4.502      7.490
REMARK  Name = NuBBE_996
REMARK  7 active torsions:
REMARK  status: ('A' for Active; 'I' for Inactive)
REMARK    1  A    between atoms: C_1  and  C_2
REMARK    2  A    between atoms: C_6  and  C_8
REMARK    3  A    between atoms: C_8  and  C_9
REMARK    4  A    between atoms: C_15  and  O_17
REMARK    5  A    between atoms: C_18  and  O_20
REMARK    6  A    between atoms: C_21  and  O_23
REMARK    7  A    between atoms: C_25  and  C_26
REMARK                            x       y       z     vdW  Elec       q    Type
REMARK                         _______ _______ _______ _____ _____    ______ ____
ROOT
ATOM      1  C   LIG A   1      -7.308  -3.025 131.183  0.00  0.00    +0.012 C 
ATOM      2  C   LIG A   1      -6.650  -1.709 130.705  0.00  0.00    -0.019 C 
ATOM      3  C   LIG A   1      -7.717  -0.874 129.924  0.00  0.00    +0.006 C 
ATOM      4  C   LIG A   1      -7.712  -1.477 128.511  0.00  0.00    +0.079 C 
ATOM      5  C   LIG A   1      -6.308  -1.988 128.354  0.00  0.00    +0.137 C 
ATOM      6  C   LIG A   1      -5.525  -1.948 129.652  0.00  0.00    +0.061 C 
ATOM      7  O   LIG A   1      -5.859  -2.383 127.285  0.00  0.00    -0.297 OA
ATOM      8  C   LIG A   1      -7.452   0.662 129.983  0.00  0.00    -0.003 C 
ATOM      9  C   LIG A   1      -8.427   1.429 129.070  0.00  0.00    +0.004 C 
ATOM     10  C   LIG A   1      -8.673   2.901 129.380  0.00  0.00    +0.007 C 
ATOM     11  C   LIG A   1      -8.515   3.329 130.845  0.00  0.00    +0.026 C 
ATOM     12  C   LIG A   1      -9.411   4.541 131.204  0.00  0.00    +0.149 C 
ATOM     13  C   LIG A   1      -9.133   5.040 132.627  0.00  0.00    +0.172 C 
ATOM     14  C   LIG A   1      -9.216   3.902 133.655  0.00  0.00    +0.146 C 
ATOM     15  C   LIG A   1      -8.302   2.729 133.285  0.00  0.00    +0.041 C 
ATOM     16  C   LIG A   1      -8.569   2.148 131.864  0.00  0.00    -0.021 C 
ATOM     17  C   LIG A   1      -9.930   1.413 131.906  0.00  0.00    +0.012 C 
ATOM     18  C   LIG A   1      -7.404   1.175 131.458  0.00  0.00    -0.001 C 
ATOM     19  C   LIG A   1      -7.139   0.044 132.474  0.00  0.00    +0.005 C 
ATOM     20  C   LIG A   1      -6.111  -0.941 131.931  0.00  0.00    +0.008 C 
ENDROOT
BRANCH   6  21
ATOM     21  C   LIG A   1      -4.634  -3.185 129.801  0.00  0.00    +0.008 C 
ATOM     22  C   LIG A   1      -3.154  -2.904 129.596  0.00  0.00    +0.004 C 
ENDBRANCH   6  21
BRANCH  12  23
ATOM     23  O   LIG A   1     -10.798   4.229 131.088  0.00  0.00    -0.389 OA
ATOM     24  H   LIG A   1     -10.877   3.263 131.000  0.00  0.00    +0.210 HD
ENDBRANCH  12  23
BRANCH  13  25
ATOM     25  O   LIG A   1      -7.831   5.642 132.689  0.00  0.00    -0.387 OA
ATOM     26  H   LIG A   1      -7.240   5.030 132.204  0.00  0.00    +0.210 HD
ENDBRANCH  13  25
BRANCH  14  27
ATOM     27  O   LIG A   1      -8.787   4.410 134.929  0.00  0.00    -0.389 OA
ATOM     28  H   LIG A   1      -8.596   3.635 135.490  0.00  0.00    +0.210 HD
ENDBRANCH  14  27
TORSDOF 4
ENDMDL
MODEL 8
REMARK VINA RESULT:      -7.1      7.424      9.441
REMARK  Name = NuBBE_996
REMARK  7 active torsions:
REMARK  status: ('A' for Active; 'I' for Inactive)
REMARK    1  A    between atoms: C_1  and  C_2
REMARK    2  A    between atoms: C_6  and  C_8
REMARK    3  A    between atoms: C_8  and  C_9
REMARK    4  A    between atoms: C_15  and  O_17
REMARK    5  A    between atoms: C_18  and  O_20
REMARK    6  A    between atoms: C_21  and  O_23
REMARK    7  A    between atoms: C_25  and  C_26
REMARK                            x       y       z     vdW  Elec       q    Type
REMARK                         _______ _______ _______ _____ _____    ______ ____
ROOT
ATOM      1  C   LIG A   1      -2.300   5.867 129.387  0.00  0.00    +0.012 C 
ATOM      2  C   LIG A   1      -3.125   5.866 130.695  0.00  0.00    -0.019 C 
ATOM      3  C   LIG A   1      -4.502   6.552 130.417  0.00  0.00    +0.006 C 
ATOM      4  C   LIG A   1      -4.206   8.056 130.517  0.00  0.00    +0.079 C 
ATOM      5  C   LIG A   1      -3.061   8.121 131.489  0.00  0.00    +0.137 C 
ATOM      6  C   LIG A   1      -2.488   6.754 131.808  0.00  0.00    +0.061 C 
ATOM      7  O   LIG A   1      -2.652   9.173 131.966  0.00  0.00    -0.297 OA
ATOM      8  C   LIG A   1      -5.639   6.042 131.355  0.00  0.00    -0.003 C 
ATOM      9  C   LIG A   1      -6.930   6.858 131.156  0.00  0.00    +0.004 C 
ATOM     10  C   LIG A   1      -8.245   6.208 131.570  0.00  0.00    +0.007 C 
ATOM     11  C   LIG A   1      -8.302   4.675 131.506  0.00  0.00    +0.026 C 
ATOM     12  C   LIG A   1      -9.735   4.150 131.240  0.00  0.00    +0.149 C 
ATOM     13  C   LIG A   1      -9.794   2.620 131.323  0.00  0.00    +0.172 C 
ATOM     14  C   LIG A   1      -8.734   1.961 130.429  0.00  0.00    +0.146 C 
ATOM     15  C   LIG A   1      -7.325   2.483 130.733  0.00  0.00    +0.041 C 
ATOM     16  C   LIG A   1      -7.191   4.031 130.620  0.00  0.00    -0.021 C 
ATOM     17  C   LIG A   1      -7.287   4.402 129.121  0.00  0.00    +0.012 C 
ATOM     18  C   LIG A   1      -5.823   4.495 131.238  0.00  0.00    -0.001 C 
ATOM     19  C   LIG A   1      -4.586   3.791 130.642  0.00  0.00    +0.005 C 
ATOM     20  C   LIG A   1      -3.301   4.410 131.179  0.00  0.00    +0.008 C 
ENDROOT
BRANCH   6  21
ATOM     21  C   LIG A   1      -0.961   6.804 131.921  0.00  0.00    +0.008 C 
ATOM     22  C   LIG A   1      -0.452   6.809 133.353  0.00  0.00    +0.004 C 
ENDBRANCH   6  21
BRANCH  12  23
ATOM     23  O   LIG A   1     -10.222   4.562 129.964  0.00  0.00    -0.389 OA
ATOM     24  H   LIG A   1     -11.057   4.089 129.801  0.00  0.00    +0.210 HD
ENDBRANCH  12  23
BRANCH  13  25
ATOM     25  O   LIG A   1      -9.602   2.195 132.680  0.00  0.00    -0.387 OA
ATOM     26  H   LIG A   1      -9.989   2.906 133.231  0.00  0.00    +0.210 HD
ENDBRANCH  13  25
BRANCH  14  27
ATOM     27  O   LIG A   1      -8.742   0.547 130.683  0.00  0.00    -0.389 OA
ATOM     28  H   LIG A   1      -8.389   0.115 129.883  0.00  0.00    +0.210 HD
ENDBRANCH  14  27
TORSDOF 4
ENDMDL
MODEL 9
REMARK VINA RESULT:      -7.0      7.572      9.706
REMARK  Name = NuBBE_996
REMARK  7 active torsions:
REMARK  status: ('A' for Active; 'I' for Inactive)
REMARK    1  A    between atoms: C_1  and  C_2
REMARK    2  A    between atoms: C_6  and  C_8
REMARK    3  A    between atoms: C_8  and  C_9
REMARK    4  A    between atoms: C_15  and  O_17
REMARK    5  A    between atoms: C_18  and  O_20
REMARK    6  A    between atoms: C_21  and  O_23
REMARK    7  A    between atoms: C_25  and  C_26
REMARK                            x       y       z     vdW  Elec       q    Type
REMARK                         _______ _______ _______ _____ _____    ______ ____
ROOT
ATOM      1  C   LIG A   1      -9.677   3.097 130.725  0.00  0.00    +0.012 C 
ATOM      2  C   LIG A   1      -9.149   4.513 130.396  0.00  0.00    -0.019 C 
ATOM      3  C   LIG A   1      -8.072   4.903 131.461  0.00  0.00    +0.006 C 
ATOM      4  C   LIG A   1      -8.889   5.405 132.662  0.00  0.00    +0.079 C 
ATOM      5  C   LIG A   1     -10.137   5.954 132.030  0.00  0.00    +0.137 C 
ATOM      6  C   LIG A   1     -10.242   5.614 130.556  0.00  0.00    +0.061 C 
ATOM      7  O   LIG A   1     -10.965   6.609 132.652  0.00  0.00    -0.297 OA
ATOM      8  C   LIG A   1      -7.015   5.913 130.919  0.00  0.00    -0.003 C 
ATOM      9  C   LIG A   1      -6.076   6.392 132.043  0.00  0.00    +0.004 C 
ATOM     10  C   LIG A   1      -4.713   6.938 131.637  0.00  0.00    +0.007 C 
ATOM     11  C   LIG A   1      -4.113   6.389 130.335  0.00  0.00    +0.026 C 
ATOM     12  C   LIG A   1      -2.564   6.403 130.348  0.00  0.00    +0.149 C 
ATOM     13  C   LIG A   1      -1.989   5.986 128.989  0.00  0.00    +0.172 C 
ATOM     14  C   LIG A   1      -2.577   4.651 128.509  0.00  0.00    +0.146 C 
ATOM     15  C   LIG A   1      -4.109   4.676 128.484  0.00  0.00    +0.041 C 
ATOM     16  C   LIG A   1      -4.753   5.049 129.853  0.00  0.00    -0.021 C 
ATOM     17  C   LIG A   1      -4.529   3.861 130.817  0.00  0.00    +0.012 C 
ATOM     18  C   LIG A   1      -6.284   5.349 129.658  0.00  0.00    -0.001 C 
ATOM     19  C   LIG A   1      -7.070   4.212 128.972  0.00  0.00    +0.005 C 
ATOM     20  C   LIG A   1      -8.564   4.514 128.968  0.00  0.00    +0.008 C 
ENDROOT
BRANCH   6  21
ATOM     21  C   LIG A   1     -11.685   5.275 130.166  0.00  0.00    +0.008 C 
ATOM     22  C   LIG A   1     -12.368   6.357 129.346  0.00  0.00    +0.004 C 
ENDBRANCH   6  21
BRANCH  12  23
ATOM     23  O   LIG A   1      -2.034   5.545 131.356  0.00  0.00    -0.389 OA
ATOM     24  H   LIG A   1      -1.814   4.696 130.935  0.00  0.00    +0.210 HD
ENDBRANCH  12  23
BRANCH  13  25
ATOM     25  O   LIG A   1      -2.258   7.002 128.012  0.00  0.00    -0.387 OA
ATOM     26  H   LIG A   1      -3.233   7.091 127.991  0.00  0.00    +0.210 HD
ENDBRANCH  13  25
BRANCH  14  27
ATOM     27  O   LIG A   1      -2.119   4.411 127.168  0.00  0.00    -0.389 OA
ATOM     28  H   LIG A   1      -2.913   4.249 126.625  0.00  0.00    +0.210 HD
ENDBRANCH  14  27
TORSDOF 4
ENDMDL
