MODEL 1
REMARK VINA RESULT:      -6.8      0.000      0.000
REMARK  Name = NuBBE_634
REMARK  12 active torsions:
REMARK  status: ('A' for Active; 'I' for Inactive)
REMARK    1  A    between atoms: C_1  and  C_2
REMARK    2  A    between atoms: C_2  and  C_3
REMARK    3  A    between atoms: C_4  and  C_5
REMARK    4  A    between atoms: C_5  and  N_6
REMARK    5  A    between atoms: N_8  and  C_9
REMARK    6  A    between atoms: C_9  and  C_10
REMARK    7  A    between atoms: C_11  and  C_12
REMARK    8  A    between atoms: C_11  and  C_13
REMARK    9  A    between atoms: N_15  and  C_16
REMARK   10  A    between atoms: C_16  and  C_17
REMARK   11  A    between atoms: C_18  and  C_19
REMARK   12  A    between atoms: C_18  and  C_20
REMARK                            x       y       z     vdW  Elec       q    Type
REMARK                         _______ _______ _______ _____ _____    ______ ____
ROOT
ATOM      1  N   LIG A   1      -8.057   1.749 124.168  0.00  0.00    -0.109 NA
ATOM      2  C   LIG A   1      -7.076   2.566 124.282  0.00  0.00    +0.382 C 
ATOM      3  N   LIG A   1      -5.996   2.503 125.119  0.00  0.00    -0.272 N 
ATOM      4  H   LIG A   1      -6.014   1.707 125.739  0.00  0.00    +0.258 HD
ATOM      5  N   LIG A   1      -7.087   3.643 123.439  0.00  0.00    -0.272 N 
ATOM      6  H   LIG A   1      -8.019   3.676 123.030  0.00  0.00    +0.258 HD
ENDROOT
BRANCH   1   7
ATOM      7  C   LIG A   1      -8.099   0.533 124.965  0.00  0.00    +0.271 C 
BRANCH   7  11
ATOM      8  C   LIG A   1      -9.268  -2.869 123.388  0.00  0.00    +0.038 C 
ATOM      9  C   LIG A   1      -8.853  -1.844 124.407  0.00  0.00    -0.077 C 
ATOM     10  C   LIG A   1      -8.894  -2.301 125.837  0.00  0.00    +0.038 C 
ATOM     11  C   LIG A   1      -8.481  -0.598 124.048  0.00  0.00    +0.012 C 
ENDBRANCH   7  11
ENDBRANCH   1   7
BRANCH   3  12
ATOM     12  C   LIG A   1      -5.471   3.684 125.778  0.00  0.00    +0.223 C 
BRANCH  12  13
ATOM     13  C   LIG A   1      -3.970   3.587 125.769  0.00  0.00    +0.008 C 
ATOM     14  C   LIG A   1      -3.169   3.171 126.771  0.00  0.00    -0.077 C 
ATOM     15  C   LIG A   1      -3.658   2.768 128.135  0.00  0.00    +0.038 C 
ATOM     16  C   LIG A   1      -1.676   3.097 126.596  0.00  0.00    +0.038 C 
ENDBRANCH  12  13
ENDBRANCH   3  12
BRANCH   5  17
ATOM     17  C   LIG A   1      -6.121   3.691 122.347  0.00  0.00    +0.223 C 
BRANCH  17  18
ATOM     18  C   LIG A   1      -6.866   3.758 121.041  0.00  0.00    +0.008 C 
ATOM     19  C   LIG A   1      -6.520   4.435 119.927  0.00  0.00    -0.077 C 
ATOM     20  C   LIG A   1      -5.296   5.297 119.796  0.00  0.00    +0.038 C 
ATOM     21  C   LIG A   1      -7.386   4.397 118.695  0.00  0.00    +0.038 C 
ENDBRANCH  17  18
ENDBRANCH   5  17
TORSDOF 6
ENDMDL
MODEL 2
REMARK VINA RESULT:      -6.6      7.277      9.090
REMARK  Name = NuBBE_634
REMARK  12 active torsions:
REMARK  status: ('A' for Active; 'I' for Inactive)
REMARK    1  A    between atoms: C_1  and  C_2
REMARK    2  A    between atoms: C_2  and  C_3
REMARK    3  A    between atoms: C_4  and  C_5
REMARK    4  A    between atoms: C_5  and  N_6
REMARK    5  A    between atoms: N_8  and  C_9
REMARK    6  A    between atoms: C_9  and  C_10
REMARK    7  A    between atoms: C_11  and  C_12
REMARK    8  A    between atoms: C_11  and  C_13
REMARK    9  A    between atoms: N_15  and  C_16
REMARK   10  A    between atoms: C_16  and  C_17
REMARK   11  A    between atoms: C_18  and  C_19
REMARK   12  A    between atoms: C_18  and  C_20
REMARK                            x       y       z     vdW  Elec       q    Type
REMARK                         _______ _______ _______ _____ _____    ______ ____
ROOT
ATOM      1  N   LIG A   1     -10.044   4.938 129.748  0.00  0.00    -0.109 NA
ATOM      2  C   LIG A   1     -10.213   5.507 130.884  0.00  0.00    +0.382 C 
ATOM      3  N   LIG A   1      -9.275   6.042 131.725  0.00  0.00    -0.272 N 
ATOM      4  H   LIG A   1      -8.328   5.935 131.392  0.00  0.00    +0.258 HD
ATOM      5  N   LIG A   1     -11.505   5.623 131.315  0.00  0.00    -0.272 N 
ATOM      6  H   LIG A   1     -12.062   5.020 130.714  0.00  0.00    +0.258 HD
ENDROOT
BRANCH   1   7
ATOM      7  C   LIG A   1      -8.716   4.834 129.164  0.00  0.00    +0.271 C 
BRANCH   7  11
ATOM      8  C   LIG A   1      -6.643   1.747 130.429  0.00  0.00    +0.038 C 
ATOM      9  C   LIG A   1      -7.031   3.167 130.117  0.00  0.00    -0.077 C 
ATOM     10  C   LIG A   1      -6.057   4.217 130.567  0.00  0.00    +0.038 C 
ATOM     11  C   LIG A   1      -8.185   3.462 129.484  0.00  0.00    +0.012 C 
ENDBRANCH   7  11
ENDBRANCH   1   7
BRANCH   3  12
ATOM     12  C   LIG A   1      -9.359   5.876 133.164  0.00  0.00    +0.223 C 
BRANCH  12  13
ATOM     13  C   LIG A   1      -8.230   4.978 133.589  0.00  0.00    +0.008 C 
ATOM     14  C   LIG A   1      -8.201   3.630 133.567  0.00  0.00    -0.077 C 
ATOM     15  C   LIG A   1      -9.357   2.765 133.146  0.00  0.00    +0.038 C 
ATOM     16  C   LIG A   1      -6.975   2.869 133.997  0.00  0.00    +0.038 C 
ENDBRANCH  12  13
ENDBRANCH   3  12
BRANCH   5  17
ATOM     17  C   LIG A   1     -12.128   6.942 131.323  0.00  0.00    +0.223 C 
BRANCH  17  18
ATOM     18  C   LIG A   1     -13.003   7.072 130.105  0.00  0.00    +0.008 C 
ATOM     19  C   LIG A   1     -12.711   7.687 128.940  0.00  0.00    -0.077 C 
ATOM     20  C   LIG A   1     -11.420   8.398 128.650  0.00  0.00    +0.038 C 
ATOM     21  C   LIG A   1     -13.709   7.728 127.812  0.00  0.00    +0.038 C 
ENDBRANCH  17  18
ENDBRANCH   5  17
TORSDOF 6
ENDMDL
MODEL 3
REMARK VINA RESULT:      -6.6      4.195      6.952
REMARK  Name = NuBBE_634
REMARK  12 active torsions:
REMARK  status: ('A' for Active; 'I' for Inactive)
REMARK    1  A    between atoms: C_1  and  C_2
REMARK    2  A    between atoms: C_2  and  C_3
REMARK    3  A    between atoms: C_4  and  C_5
REMARK    4  A    between atoms: C_5  and  N_6
REMARK    5  A    between atoms: N_8  and  C_9
REMARK    6  A    between atoms: C_9  and  C_10
REMARK    7  A    between atoms: C_11  and  C_12
REMARK    8  A    between atoms: C_11  and  C_13
REMARK    9  A    between atoms: N_15  and  C_16
REMARK   10  A    between atoms: C_16  and  C_17
REMARK   11  A    between atoms: C_18  and  C_19
REMARK   12  A    between atoms: C_18  and  C_20
REMARK                            x       y       z     vdW  Elec       q    Type
REMARK                         _______ _______ _______ _____ _____    ______ ____
ROOT
ATOM      1  N   LIG A   1      -8.152  -2.770 127.350  0.00  0.00    -0.109 NA
ATOM      2  C   LIG A   1      -8.656  -2.067 126.404  0.00  0.00    +0.382 C 
ATOM      3  N   LIG A   1      -8.493  -0.734 126.142  0.00  0.00    -0.272 N 
ATOM      4  H   LIG A   1      -7.913  -0.259 126.818  0.00  0.00    +0.258 HD
ATOM      5  N   LIG A   1      -9.449  -2.735 125.513  0.00  0.00    -0.272 N 
ATOM      6  H   LIG A   1      -9.647  -3.642 125.930  0.00  0.00    +0.258 HD
ENDROOT
BRANCH   1   7
ATOM      7  C   LIG A   1      -7.233  -2.170 128.305  0.00  0.00    +0.271 C 
BRANCH   7  11
ATOM      8  C   LIG A   1      -5.579  -4.638 130.874  0.00  0.00    +0.038 C 
ATOM      9  C   LIG A   1      -5.733  -3.645 129.755  0.00  0.00    -0.077 C 
ATOM     10  C   LIG A   1      -4.453  -3.183 129.120  0.00  0.00    +0.038 C 
ATOM     11  C   LIG A   1      -6.945  -3.199 129.366  0.00  0.00    +0.012 C 
ENDBRANCH   7  11
ENDBRANCH   1   7
BRANCH   3  12
ATOM     12  C   LIG A   1      -9.599   0.098 125.706  0.00  0.00    +0.223 C 
BRANCH  12  13
ATOM     13  C   LIG A   1      -9.036   1.193 124.841  0.00  0.00    +0.008 C 
ATOM     14  C   LIG A   1      -9.248   1.388 123.523  0.00  0.00    -0.077 C 
ATOM     15  C   LIG A   1     -10.072   0.478 122.655  0.00  0.00    +0.038 C 
ATOM     16  C   LIG A   1      -8.637   2.558 122.800  0.00  0.00    +0.038 C 
ENDBRANCH  12  13
ENDBRANCH   3  12
BRANCH   5  17
ATOM     17  C   LIG A   1      -8.950  -2.966 124.162  0.00  0.00    +0.223 C 
BRANCH  17  18
ATOM     18  C   LIG A   1      -7.518  -3.421 124.244  0.00  0.00    +0.008 C 
ATOM     19  C   LIG A   1      -6.431  -2.826 123.711  0.00  0.00    -0.077 C 
ATOM     20  C   LIG A   1      -6.462  -1.569 122.887  0.00  0.00    +0.038 C 
ATOM     21  C   LIG A   1      -5.057  -3.417 123.886  0.00  0.00    +0.038 C 
ENDBRANCH  17  18
ENDBRANCH   5  17
TORSDOF 6
ENDMDL
MODEL 4
REMARK VINA RESULT:      -6.5      8.595     10.398
REMARK  Name = NuBBE_634
REMARK  12 active torsions:
REMARK  status: ('A' for Active; 'I' for Inactive)
REMARK    1  A    between atoms: C_1  and  C_2
REMARK    2  A    between atoms: C_2  and  C_3
REMARK    3  A    between atoms: C_4  and  C_5
REMARK    4  A    between atoms: C_5  and  N_6
REMARK    5  A    between atoms: N_8  and  C_9
REMARK    6  A    between atoms: C_9  and  C_10
REMARK    7  A    between atoms: C_11  and  C_12
REMARK    8  A    between atoms: C_11  and  C_13
REMARK    9  A    between atoms: N_15  and  C_16
REMARK   10  A    between atoms: C_16  and  C_17
REMARK   11  A    between atoms: C_18  and  C_19
REMARK   12  A    between atoms: C_18  and  C_20
REMARK                            x       y       z     vdW  Elec       q    Type
REMARK                         _______ _______ _______ _____ _____    ______ ____
ROOT
ATOM      1  N   LIG A   1      -9.469   7.577 129.416  0.00  0.00    -0.109 NA
ATOM      2  C   LIG A   1      -9.147   6.881 130.443  0.00  0.00    +0.382 C 
ATOM      3  N   LIG A   1      -9.839   5.865 131.045  0.00  0.00    -0.272 N 
ATOM      4  H   LIG A   1     -10.733   5.678 130.616  0.00  0.00    +0.258 HD
ATOM      5  N   LIG A   1      -7.938   7.167 131.012  0.00  0.00    -0.272 N 
ATOM      6  H   LIG A   1      -7.633   8.051 130.607  0.00  0.00    +0.258 HD
ENDROOT
BRANCH   1   7
ATOM      7  C   LIG A   1     -10.699   7.298 128.692  0.00  0.00    +0.271 C 
BRANCH   7  11
ATOM      8  C   LIG A   1     -13.255  10.107 129.691  0.00  0.00    +0.038 C 
ATOM      9  C   LIG A   1     -12.502   8.806 129.694  0.00  0.00    -0.077 C 
ATOM     10  C   LIG A   1     -12.862   7.853 130.797  0.00  0.00    +0.038 C 
ATOM     11  C   LIG A   1     -11.560   8.531 128.768  0.00  0.00    +0.012 C 
ENDBRANCH   7  11
ENDBRANCH   1   7
BRANCH   3  12
ATOM     12  C   LIG A   1      -9.900   5.734 132.489  0.00  0.00    +0.223 C 
BRANCH  12  13
ATOM     13  C   LIG A   1      -9.097   4.523 132.875  0.00  0.00    +0.008 C 
ATOM     14  C   LIG A   1      -8.209   4.415 133.885  0.00  0.00    -0.077 C 
ATOM     15  C   LIG A   1      -7.822   5.546 134.796  0.00  0.00    +0.038 C 
ATOM     16  C   LIG A   1      -7.504   3.115 134.168  0.00  0.00    +0.038 C 
ENDBRANCH  12  13
ENDBRANCH   3  12
BRANCH   5  17
ATOM     17  C   LIG A   1      -6.846   6.211 130.864  0.00  0.00    +0.223 C 
BRANCH  17  18
ATOM     18  C   LIG A   1      -5.541   6.960 130.870  0.00  0.00    +0.008 C 
ATOM     19  C   LIG A   1      -4.551   6.888 131.784  0.00  0.00    -0.077 C 
ATOM     20  C   LIG A   1      -4.590   6.032 133.020  0.00  0.00    +0.038 C 
ATOM     21  C   LIG A   1      -3.299   7.712 131.641  0.00  0.00    +0.038 C 
ENDBRANCH  17  18
ENDBRANCH   5  17
TORSDOF 6
ENDMDL
MODEL 5
REMARK VINA RESULT:      -6.5      4.178      6.351
REMARK  Name = NuBBE_634
REMARK  12 active torsions:
REMARK  status: ('A' for Active; 'I' for Inactive)
REMARK    1  A    between atoms: C_1  and  C_2
REMARK    2  A    between atoms: C_2  and  C_3
REMARK    3  A    between atoms: C_4  and  C_5
REMARK    4  A    between atoms: C_5  and  N_6
REMARK    5  A    between atoms: N_8  and  C_9
REMARK    6  A    between atoms: C_9  and  C_10
REMARK    7  A    between atoms: C_11  and  C_12
REMARK    8  A    between atoms: C_11  and  C_13
REMARK    9  A    between atoms: N_15  and  C_16
REMARK   10  A    between atoms: C_16  and  C_17
REMARK   11  A    between atoms: C_18  and  C_19
REMARK   12  A    between atoms: C_18  and  C_20
REMARK                            x       y       z     vdW  Elec       q    Type
REMARK                         _______ _______ _______ _____ _____    ______ ____
ROOT
ATOM      1  N   LIG A   1      -8.003  -1.667 127.737  0.00  0.00    -0.109 NA
ATOM      2  C   LIG A   1      -8.442  -1.647 126.533  0.00  0.00    +0.382 C 
ATOM      3  N   LIG A   1      -9.092  -2.631 125.838  0.00  0.00    -0.272 N 
ATOM      4  H   LIG A   1      -9.202  -3.487 126.362  0.00  0.00    +0.258 HD
ATOM      5  N   LIG A   1      -8.264  -0.479 125.845  0.00  0.00    -0.272 N 
ATOM      6  H   LIG A   1      -7.606   0.076 126.388  0.00  0.00    +0.258 HD
ENDROOT
BRANCH   1   7
ATOM      7  C   LIG A   1      -8.211  -2.834 128.579  0.00  0.00    +0.271 C 
BRANCH   7  11
ATOM      8  C   LIG A   1      -5.024  -4.081 130.507  0.00  0.00    +0.038 C 
ATOM      9  C   LIG A   1      -6.383  -3.494 130.237  0.00  0.00    -0.077 C 
ATOM     10  C   LIG A   1      -7.167  -3.094 131.453  0.00  0.00    +0.038 C 
ATOM     11  C   LIG A   1      -6.856  -3.352 128.982  0.00  0.00    +0.012 C 
ENDBRANCH   7  11
ENDBRANCH   1   7
BRANCH   3  12
ATOM     12  C   LIG A   1      -8.808  -2.891 124.439  0.00  0.00    +0.223 C 
BRANCH  12  13
ATOM     13  C   LIG A   1      -7.417  -3.455 124.350  0.00  0.00    +0.008 C 
ATOM     14  C   LIG A   1      -6.350  -2.913 123.729  0.00  0.00    -0.077 C 
ATOM     15  C   LIG A   1      -6.388  -1.628 122.948  0.00  0.00    +0.038 C 
ATOM     16  C   LIG A   1      -5.004  -3.588 123.756  0.00  0.00    +0.038 C 
ENDBRANCH  12  13
ENDBRANCH   3  12
BRANCH   5  17
ATOM     17  C   LIG A   1      -9.426   0.357 125.565  0.00  0.00    +0.223 C 
BRANCH  17  18
ATOM     18  C   LIG A   1      -9.030   1.425 124.582  0.00  0.00    +0.008 C 
ATOM     19  C   LIG A   1      -9.335   1.494 123.269  0.00  0.00    -0.077 C 
ATOM     20  C   LIG A   1     -10.134   0.463 122.522  0.00  0.00    +0.038 C 
ATOM     21  C   LIG A   1      -8.855   2.641 122.419  0.00  0.00    +0.038 C 
ENDBRANCH  17  18
ENDBRANCH   5  17
TORSDOF 6
ENDMDL
MODEL 6
REMARK VINA RESULT:      -6.5      2.581      5.969
REMARK  Name = NuBBE_634
REMARK  12 active torsions:
REMARK  status: ('A' for Active; 'I' for Inactive)
REMARK    1  A    between atoms: C_1  and  C_2
REMARK    2  A    between atoms: C_2  and  C_3
REMARK    3  A    between atoms: C_4  and  C_5
REMARK    4  A    between atoms: C_5  and  N_6
REMARK    5  A    between atoms: N_8  and  C_9
REMARK    6  A    between atoms: C_9  and  C_10
REMARK    7  A    between atoms: C_11  and  C_12
REMARK    8  A    between atoms: C_11  and  C_13
REMARK    9  A    between atoms: N_15  and  C_16
REMARK   10  A    between atoms: C_16  and  C_17
REMARK   11  A    between atoms: C_18  and  C_19
REMARK   12  A    between atoms: C_18  and  C_20
REMARK                            x       y       z     vdW  Elec       q    Type
REMARK                         _______ _______ _______ _____ _____    ______ ____
ROOT
ATOM      1  N   LIG A   1      -6.382  -0.614 124.120  0.00  0.00    -0.109 NA
ATOM      2  C   LIG A   1      -7.194   0.355 124.327  0.00  0.00    +0.382 C 
ATOM      3  N   LIG A   1      -8.151   0.870 123.494  0.00  0.00    -0.272 N 
ATOM      4  H   LIG A   1      -8.179   0.421 122.590  0.00  0.00    +0.258 HD
ATOM      5  N   LIG A   1      -7.122   0.952 125.555  0.00  0.00    -0.272 N 
ATOM      6  H   LIG A   1      -6.259   0.621 125.983  0.00  0.00    +0.258 HD
ENDROOT
BRANCH   1   7
ATOM      7  C   LIG A   1      -6.432  -1.365 122.875  0.00  0.00    +0.271 C 
BRANCH   7  11
ATOM      8  C   LIG A   1      -4.297  -4.594 123.537  0.00  0.00    +0.038 C 
ATOM      9  C   LIG A   1      -5.419  -3.594 123.603  0.00  0.00    -0.077 C 
ATOM     10  C   LIG A   1      -6.597  -3.998 124.442  0.00  0.00    +0.038 C 
ATOM     11  C   LIG A   1      -5.362  -2.422 122.939  0.00  0.00    +0.012 C 
ENDBRANCH   7  11
ENDBRANCH   1   7
BRANCH   3  12
ATOM     12  C   LIG A   1      -8.386   2.298 123.393  0.00  0.00    +0.223 C 
BRANCH  12  13
ATOM     13  C   LIG A   1      -7.448   2.844 122.352  0.00  0.00    +0.008 C 
ATOM     14  C   LIG A   1      -6.313   3.544 122.557  0.00  0.00    -0.077 C 
ATOM     15  C   LIG A   1      -5.805   3.955 123.911  0.00  0.00    +0.038 C 
ATOM     16  C   LIG A   1      -5.457   3.997 121.404  0.00  0.00    +0.038 C 
ENDBRANCH  12  13
ENDBRANCH   3  12
BRANCH   5  17
ATOM     17  C   LIG A   1      -8.203   0.733 126.509  0.00  0.00    +0.223 C 
BRANCH  17  18
ATOM     18  C   LIG A   1      -7.910  -0.514 127.299  0.00  0.00    +0.008 C 
ATOM     19  C   LIG A   1      -8.344  -1.768 127.054  0.00  0.00    -0.077 C 
ATOM     20  C   LIG A   1      -9.253  -2.151 125.920  0.00  0.00    +0.038 C 
ATOM     21  C   LIG A   1      -7.956  -2.913 127.951  0.00  0.00    +0.038 C 
ENDBRANCH  17  18
ENDBRANCH   5  17
TORSDOF 6
ENDMDL
MODEL 7
REMARK VINA RESULT:      -6.4      3.073      6.979
REMARK  Name = NuBBE_634
REMARK  12 active torsions:
REMARK  status: ('A' for Active; 'I' for Inactive)
REMARK    1  A    between atoms: C_1  and  C_2
REMARK    2  A    between atoms: C_2  and  C_3
REMARK    3  A    between atoms: C_4  and  C_5
REMARK    4  A    between atoms: C_5  and  N_6
REMARK    5  A    between atoms: N_8  and  C_9
REMARK    6  A    between atoms: C_9  and  C_10
REMARK    7  A    between atoms: C_11  and  C_12
REMARK    8  A    between atoms: C_11  and  C_13
REMARK    9  A    between atoms: N_15  and  C_16
REMARK   10  A    between atoms: C_16  and  C_17
REMARK   11  A    between atoms: C_18  and  C_19
REMARK   12  A    between atoms: C_18  and  C_20
REMARK                            x       y       z     vdW  Elec       q    Type
REMARK                         _______ _______ _______ _____ _____    ______ ____
ROOT
ATOM      1  N   LIG A   1      -6.550   1.851 122.540  0.00  0.00    -0.109 NA
ATOM      2  C   LIG A   1      -7.104   1.011 123.335  0.00  0.00    +0.382 C 
ATOM      3  N   LIG A   1      -8.286   1.122 124.015  0.00  0.00    -0.272 N 
ATOM      4  H   LIG A   1      -8.751   2.007 123.873  0.00  0.00    +0.258 HD
ATOM      5  N   LIG A   1      -6.444  -0.172 123.519  0.00  0.00    -0.272 N 
ATOM      6  H   LIG A   1      -5.511  -0.042 123.134  0.00  0.00    +0.258 HD
ENDROOT
BRANCH   1   7
ATOM      7  C   LIG A   1      -7.209   3.106 122.217  0.00  0.00    +0.271 C 
BRANCH   7  11
ATOM      8  C   LIG A   1      -5.443   5.299 119.480  0.00  0.00    +0.038 C 
ATOM      9  C   LIG A   1      -6.470   4.445 120.171  0.00  0.00    -0.077 C 
ATOM     10  C   LIG A   1      -7.747   4.226 119.411  0.00  0.00    +0.038 C 
ATOM     11  C   LIG A   1      -6.250   3.925 121.396  0.00  0.00    +0.012 C 
ENDBRANCH   7  11
ENDBRANCH   1   7
BRANCH   3  12
ATOM     12  C   LIG A   1      -8.426   0.656 125.382  0.00  0.00    +0.223 C 
BRANCH  12  13
ATOM     13  C   LIG A   1      -9.033  -0.719 125.340  0.00  0.00    +0.008 C 
ATOM     14  C   LIG A   1      -8.859  -1.721 126.226  0.00  0.00    -0.077 C 
ATOM     15  C   LIG A   1      -7.953  -1.643 127.424  0.00  0.00    +0.038 C 
ATOM     16  C   LIG A   1      -9.567  -3.039 126.063  0.00  0.00    +0.038 C 
ENDBRANCH  12  13
ENDBRANCH   3  12
BRANCH   5  17
ATOM     17  C   LIG A   1      -7.001  -1.387 122.935  0.00  0.00    +0.223 C 
BRANCH  17  18
ATOM     18  C   LIG A   1      -5.902  -2.405 122.793  0.00  0.00    +0.008 C 
ATOM     19  C   LIG A   1      -5.272  -3.083 123.775  0.00  0.00    -0.077 C 
ATOM     20  C   LIG A   1      -5.551  -2.916 125.243  0.00  0.00    +0.038 C 
ATOM     21  C   LIG A   1      -4.184  -4.075 123.460  0.00  0.00    +0.038 C 
ENDBRANCH  17  18
ENDBRANCH   5  17
TORSDOF 6
ENDMDL
MODEL 8
REMARK VINA RESULT:      -6.4      1.832      6.645
REMARK  Name = NuBBE_634
REMARK  12 active torsions:
REMARK  status: ('A' for Active; 'I' for Inactive)
REMARK    1  A    between atoms: C_1  and  C_2
REMARK    2  A    between atoms: C_2  and  C_3
REMARK    3  A    between atoms: C_4  and  C_5
REMARK    4  A    between atoms: C_5  and  N_6
REMARK    5  A    between atoms: N_8  and  C_9
REMARK    6  A    between atoms: C_9  and  C_10
REMARK    7  A    between atoms: C_11  and  C_12
REMARK    8  A    between atoms: C_11  and  C_13
REMARK    9  A    between atoms: N_15  and  C_16
REMARK   10  A    between atoms: C_16  and  C_17
REMARK   11  A    between atoms: C_18  and  C_19
REMARK   12  A    between atoms: C_18  and  C_20
REMARK                            x       y       z     vdW  Elec       q    Type
REMARK                         _______ _______ _______ _____ _____    ______ ____
ROOT
ATOM      1  N   LIG A   1      -8.597   3.231 122.633  0.00  0.00    -0.109 NA
ATOM      2  C   LIG A   1      -8.730   2.146 123.301  0.00  0.00    +0.382 C 
ATOM      3  N   LIG A   1      -8.229   0.901 123.030  0.00  0.00    -0.272 N 
ATOM      4  H   LIG A   1      -7.712   0.857 122.164  0.00  0.00    +0.258 HD
ATOM      5  N   LIG A   1      -9.449   2.235 124.461  0.00  0.00    -0.272 N 
ATOM      6  H   LIG A   1      -9.921   3.137 124.435  0.00  0.00    +0.258 HD
ENDROOT
BRANCH   1   7
ATOM      7  C   LIG A   1      -7.786   3.260 121.425  0.00  0.00    +0.271 C 
BRANCH   7  11
ATOM      8  C   LIG A   1      -4.204   4.860 121.611  0.00  0.00    +0.038 C 
ATOM      9  C   LIG A   1      -5.543   4.431 121.076  0.00  0.00    -0.077 C 
ATOM     10  C   LIG A   1      -5.852   4.878 119.676  0.00  0.00    +0.038 C 
ATOM     11  C   LIG A   1      -6.402   3.703 121.818  0.00  0.00    +0.012 C 
ENDBRANCH   7  11
ENDBRANCH   1   7
BRANCH   3  12
ATOM     12  C   LIG A   1      -9.013  -0.300 123.249  0.00  0.00    +0.223 C 
BRANCH  12  13
ATOM     13  C   LIG A   1      -8.088  -1.361 123.779  0.00  0.00    +0.008 C 
ATOM     14  C   LIG A   1      -8.316  -2.689 123.848  0.00  0.00    -0.077 C 
ATOM     15  C   LIG A   1      -9.604  -3.348 123.438  0.00  0.00    +0.038 C 
ATOM     16  C   LIG A   1      -7.271  -3.634 124.377  0.00  0.00    +0.038 C 
ENDBRANCH  12  13
ENDBRANCH   3  12
BRANCH   5  17
ATOM     17  C   LIG A   1      -8.745   2.138 125.735  0.00  0.00    +0.223 C 
BRANCH  17  18
ATOM     18  C   LIG A   1      -7.488   2.962 125.660  0.00  0.00    +0.008 C 
ATOM     19  C   LIG A   1      -6.212   2.524 125.665  0.00  0.00    -0.077 C 
ATOM     20  C   LIG A   1      -5.804   1.082 125.777  0.00  0.00    +0.038 C 
ATOM     21  C   LIG A   1      -5.059   3.490 125.584  0.00  0.00    +0.038 C 
ENDBRANCH  17  18
ENDBRANCH   5  17
TORSDOF 6
ENDMDL
MODEL 9
REMARK VINA RESULT:      -6.3      1.211      6.143
REMARK  Name = NuBBE_634
REMARK  12 active torsions:
REMARK  status: ('A' for Active; 'I' for Inactive)
REMARK    1  A    between atoms: C_1  and  C_2
REMARK    2  A    between atoms: C_2  and  C_3
REMARK    3  A    between atoms: C_4  and  C_5
REMARK    4  A    between atoms: C_5  and  N_6
REMARK    5  A    between atoms: N_8  and  C_9
REMARK    6  A    between atoms: C_9  and  C_10
REMARK    7  A    between atoms: C_11  and  C_12
REMARK    8  A    between atoms: C_11  and  C_13
REMARK    9  A    between atoms: N_15  and  C_16
REMARK   10  A    between atoms: C_16  and  C_17
REMARK   11  A    between atoms: C_18  and  C_19
REMARK   12  A    between atoms: C_18  and  C_20
REMARK                            x       y       z     vdW  Elec       q    Type
REMARK                         _______ _______ _______ _____ _____    ______ ____
ROOT
ATOM      1  N   LIG A   1      -6.891   1.936 123.258  0.00  0.00    -0.109 NA
ATOM      2  C   LIG A   1      -6.802   1.581 124.486  0.00  0.00    +0.382 C 
ATOM      3  N   LIG A   1      -6.406   2.319 125.568  0.00  0.00    -0.272 N 
ATOM      4  H   LIG A   1      -6.126   3.259 125.333  0.00  0.00    +0.258 HD
ATOM      5  N   LIG A   1      -7.174   0.297 124.772  0.00  0.00    -0.272 N 
ATOM      6  H   LIG A   1      -7.245  -0.186 123.878  0.00  0.00    +0.258 HD
ENDROOT
BRANCH   1   7
ATOM      7  C   LIG A   1      -6.593   3.304 122.862  0.00  0.00    +0.271 C 
BRANCH   7  11
ATOM      8  C   LIG A   1      -7.321   4.229 119.115  0.00  0.00    +0.038 C 
ATOM      9  C   LIG A   1      -6.620   4.121 120.442  0.00  0.00    -0.077 C 
ATOM     10  C   LIG A   1      -5.239   4.707 120.492  0.00  0.00    +0.038 C 
ATOM     11  C   LIG A   1      -7.202   3.526 121.503  0.00  0.00    +0.012 C 
ENDBRANCH   7  11
ENDBRANCH   1   7
BRANCH   3  12
ATOM     12  C   LIG A   1      -5.568   1.755 126.610  0.00  0.00    +0.223 C 
BRANCH  12  13
ATOM     13  C   LIG A   1      -4.158   2.217 126.366  0.00  0.00    +0.008 C 
ATOM     14  C   LIG A   1      -3.313   2.779 127.255  0.00  0.00    -0.077 C 
ATOM     15  C   LIG A   1      -3.673   3.098 128.680  0.00  0.00    +0.038 C 
ATOM     16  C   LIG A   1      -1.910   3.160 126.864  0.00  0.00    +0.038 C 
ENDBRANCH  12  13
ENDBRANCH   3  12
BRANCH   5  17
ATOM     17  C   LIG A   1      -8.418   0.069 125.499  0.00  0.00    +0.223 C 
BRANCH  17  18
ATOM     18  C   LIG A   1      -8.165  -0.935 126.591  0.00  0.00    +0.008 C 
ATOM     19  C   LIG A   1      -8.555  -2.226 126.631  0.00  0.00    -0.077 C 
ATOM     20  C   LIG A   1      -9.363  -2.909 125.563  0.00  0.00    +0.038 C 
ATOM     21  C   LIG A   1      -8.218  -3.103 127.808  0.00  0.00    +0.038 C 
ENDBRANCH  17  18
ENDBRANCH   5  17
TORSDOF 6
ENDMDL
