MODEL 1
REMARK VINA RESULT:      -9.0      0.000      0.000
REMARK  Name = NuBBE_1354
REMARK  10 active torsions:
REMARK  status: ('A' for Active; 'I' for Inactive)
REMARK    1  A    between atoms: C_1  and  C_2
REMARK    2  A    between atoms: C_2  and  C_34
REMARK    3  A    between atoms: C_3  and  O_4
REMARK    4  A    between atoms: C_7  and  C_32
REMARK    5  A    between atoms: C_11  and  C_31
REMARK    6  A    between atoms: C_16  and  C_30
REMARK    7  A    between atoms: C_18  and  O_29
REMARK    8  A    between atoms: C_20  and  C_28
REMARK    9  A    between atoms: C_23  and  C_24
REMARK   10  A    between atoms: C_23  and  C_27
REMARK                            x       y       z     vdW  Elec       q    Type
REMARK                         _______ _______ _______ _____ _____    ______ ____
ROOT
ATOM      1  C   LIG A   1     -13.047   7.296 131.197  0.00  0.00    +0.014 C 
ATOM      2  C   LIG A   1     -11.823   6.862 130.317  0.00  0.00    -0.006 C 
ATOM      3  C   LIG A   1     -11.626   8.042 129.311  0.00  0.00    +0.120 C 
ATOM      4  C   LIG A   1     -10.261   8.177 128.631  0.00  0.00    +0.032 C 
ATOM      5  C   LIG A   1      -9.029   7.995 129.595  0.00  0.00    +0.010 C 
ATOM      6  C   LIG A   1      -9.124   6.640 130.396  0.00  0.00    -0.025 C 
ATOM      7  C   LIG A   1     -10.510   6.791 131.149  0.00  0.00    +0.003 C 
ATOM      8  C   LIG A   1     -10.647   5.849 132.316  0.00  0.00    +0.005 C 
ATOM      9  C   LIG A   1      -9.531   6.108 133.251  0.00  0.00    +0.008 C 
ATOM     10  C   LIG A   1      -8.099   5.512 133.046  0.00  0.00    -0.019 C 
ATOM     11  C   LIG A   1      -7.785   6.397 131.564  0.00  0.00    +0.006 C 
ATOM     12  C   LIG A   1      -6.520   5.978 130.792  0.00  0.00    +0.031 C 
ATOM     13  C   LIG A   1      -5.867   4.691 131.206  0.00  0.00    -0.026 C 
ATOM     14  C   LIG A   1      -6.682   3.775 131.642  0.00  0.00    -0.063 C 
ATOM     15  C   LIG A   1      -7.357   4.012 132.977  0.00  0.00    -0.003 C 
ATOM     16  C   LIG A   1      -8.312   2.834 133.305  0.00  0.00    +0.043 C 
ATOM     17  C   LIG A   1      -9.134   2.531 132.040  0.00  0.00    +0.122 C 
ATOM     18  C   LIG A   1      -8.305   1.942 130.850  0.00  0.00    +0.001 C 
ATOM     19  C   LIG A   1      -6.787   2.341 131.030  0.00  0.00    +0.024 C 
ATOM     20  C   LIG A   1      -5.899   2.140 129.795  0.00  0.00    +0.014 C 
ATOM     21  C   LIG A   1      -6.356   2.662 128.402  0.00  0.00    -0.034 C 
ATOM     22  C   LIG A   1      -5.965   4.098 127.971  0.00  0.00    +0.011 C 
ATOM     23  C   LIG A   1      -7.872   2.400 128.266  0.00  0.00    +0.007 C 
ATOM     24  C   LIG A   1      -8.747   2.590 129.536  0.00  0.00    +0.010 C 
ATOM     25  C   LIG A   1      -5.491   1.853 127.378  0.00  0.00    +0.011 C 
ATOM     26  C   LIG A   1      -8.633   0.444 130.683  0.00  0.00    +0.014 C 
ATOM     27  C   LIG A   1      -6.082   3.849 133.959  0.00  0.00    +0.016 C 
ATOM     28  C   LIG A   1      -7.809   5.845 134.604  0.00  0.00    +0.012 C 
ATOM     29  C   LIG A   1      -9.118   5.690 129.156  0.00  0.00    +0.012 C 
ATOM     30  C   LIG A   1     -12.255   5.473 129.785  0.00  0.00    +0.014 C 
ENDROOT
BRANCH   3  31
ATOM     31  O   LIG A   1     -12.654   8.124 128.327  0.00  0.00    -0.391 OA
ATOM     32  H   LIG A   1     -12.396   7.612 127.546  0.00  0.00    +0.210 HD
ENDBRANCH   3  31
BRANCH  17  33
ATOM     33  O   LIG A   1     -10.257   1.738 132.419  0.00  0.00    -0.391 OA
ATOM     34  H   LIG A   1      -9.937   0.840 132.626  0.00  0.00    +0.210 HD
ENDBRANCH  17  33
TORSDOF 2
ENDMDL
MODEL 2
REMARK VINA RESULT:      -8.9      2.761      4.929
REMARK  Name = NuBBE_1354
REMARK  10 active torsions:
REMARK  status: ('A' for Active; 'I' for Inactive)
REMARK    1  A    between atoms: C_1  and  C_2
REMARK    2  A    between atoms: C_2  and  C_34
REMARK    3  A    between atoms: C_3  and  O_4
REMARK    4  A    between atoms: C_7  and  C_32
REMARK    5  A    between atoms: C_11  and  C_31
REMARK    6  A    between atoms: C_16  and  C_30
REMARK    7  A    between atoms: C_18  and  O_29
REMARK    8  A    between atoms: C_20  and  C_28
REMARK    9  A    between atoms: C_23  and  C_24
REMARK   10  A    between atoms: C_23  and  C_27
REMARK                            x       y       z     vdW  Elec       q    Type
REMARK                         _______ _______ _______ _____ _____    ______ ____
ROOT
ATOM      1  C   LIG A   1     -10.405   6.413 131.410  0.00  0.00    +0.014 C 
ATOM      2  C   LIG A   1      -9.453   5.167 131.373  0.00  0.00    -0.006 C 
ATOM      3  C   LIG A   1     -10.100   4.211 130.319  0.00  0.00    +0.120 C 
ATOM      4  C   LIG A   1      -9.208   3.138 129.689  0.00  0.00    +0.032 C 
ATOM      5  C   LIG A   1      -7.785   3.646 129.247  0.00  0.00    +0.010 C 
ATOM      6  C   LIG A   1      -7.040   4.367 130.436  0.00  0.00    -0.025 C 
ATOM      7  C   LIG A   1      -8.048   5.531 130.809  0.00  0.00    +0.003 C 
ATOM      8  C   LIG A   1      -7.402   6.631 131.607  0.00  0.00    +0.005 C 
ATOM      9  C   LIG A   1      -6.274   7.172 130.817  0.00  0.00    +0.008 C 
ATOM     10  C   LIG A   1      -4.866   6.491 130.775  0.00  0.00    -0.019 C 
ATOM     11  C   LIG A   1      -5.436   5.032 129.984  0.00  0.00    +0.006 C 
ATOM     12  C   LIG A   1      -4.421   3.876 129.905  0.00  0.00    +0.031 C 
ATOM     13  C   LIG A   1      -3.190   3.995 130.755  0.00  0.00    -0.026 C 
ATOM     14  C   LIG A   1      -3.356   4.623 131.883  0.00  0.00    -0.063 C 
ATOM     15  C   LIG A   1      -3.618   6.113 131.826  0.00  0.00    -0.003 C 
ATOM     16  C   LIG A   1      -3.825   6.671 133.259  0.00  0.00    +0.043 C 
ATOM     17  C   LIG A   1      -4.786   5.721 133.996  0.00  0.00    +0.122 C 
ATOM     18  C   LIG A   1      -4.200   4.301 134.293  0.00  0.00    +0.001 C 
ATOM     19  C   LIG A   1      -3.024   4.005 133.279  0.00  0.00    +0.024 C 
ATOM     20  C   LIG A   1      -2.566   2.543 133.205  0.00  0.00    +0.014 C 
ATOM     21  C   LIG A   1      -3.609   1.397 133.056  0.00  0.00    -0.034 C 
ATOM     22  C   LIG A   1      -4.022   0.936 131.636  0.00  0.00    +0.011 C 
ATOM     23  C   LIG A   1      -4.828   1.740 133.941  0.00  0.00    +0.007 C 
ATOM     24  C   LIG A   1      -5.259   3.231 134.017  0.00  0.00    +0.010 C 
ATOM     25  C   LIG A   1      -2.846   0.111 133.520  0.00  0.00    +0.011 C 
ATOM     26  C   LIG A   1      -3.891   4.173 135.799  0.00  0.00    +0.014 C 
ATOM     27  C   LIG A   1      -2.160   6.626 131.346  0.00  0.00    +0.016 C 
ATOM     28  C   LIG A   1      -4.280   7.888 130.206  0.00  0.00    +0.012 C 
ATOM     29  C   LIG A   1      -7.014   3.144 131.407  0.00  0.00    +0.012 C 
ATOM     30  C   LIG A   1      -9.392   4.732 132.859  0.00  0.00    +0.014 C 
ENDROOT
BRANCH   3  31
ATOM     31  O   LIG A   1     -11.313   3.613 130.768  0.00  0.00    -0.391 OA
ATOM     32  H   LIG A   1     -11.597   2.938 130.133  0.00  0.00    +0.210 HD
ENDBRANCH   3  31
BRANCH  17  33
ATOM     33  O   LIG A   1      -5.285   6.399 135.146  0.00  0.00    -0.391 OA
ATOM     34  H   LIG A   1      -4.795   6.074 135.925  0.00  0.00    +0.210 HD
ENDBRANCH  17  33
TORSDOF 2
ENDMDL
MODEL 3
REMARK VINA RESULT:      -8.8      4.341      8.381
REMARK  Name = NuBBE_1354
REMARK  10 active torsions:
REMARK  status: ('A' for Active; 'I' for Inactive)
REMARK    1  A    between atoms: C_1  and  C_2
REMARK    2  A    between atoms: C_2  and  C_34
REMARK    3  A    between atoms: C_3  and  O_4
REMARK    4  A    between atoms: C_7  and  C_32
REMARK    5  A    between atoms: C_11  and  C_31
REMARK    6  A    between atoms: C_16  and  C_30
REMARK    7  A    between atoms: C_18  and  O_29
REMARK    8  A    between atoms: C_20  and  C_28
REMARK    9  A    between atoms: C_23  and  C_24
REMARK   10  A    between atoms: C_23  and  C_27
REMARK                            x       y       z     vdW  Elec       q    Type
REMARK                         _______ _______ _______ _____ _____    ______ ____
ROOT
ATOM      1  C   LIG A   1      -6.305  -2.847 124.627  0.00  0.00    +0.014 C 
ATOM      2  C   LIG A   1      -7.193  -2.339 125.817  0.00  0.00    -0.006 C 
ATOM      3  C   LIG A   1      -8.520  -3.153 125.690  0.00  0.00    +0.120 C 
ATOM      4  C   LIG A   1      -9.410  -3.263 126.931  0.00  0.00    +0.032 C 
ATOM      5  C   LIG A   1      -8.634  -3.579 128.266  0.00  0.00    +0.010 C 
ATOM      6  C   LIG A   1      -7.463  -2.550 128.504  0.00  0.00    -0.025 C 
ATOM      7  C   LIG A   1      -6.586  -2.728 127.197  0.00  0.00    +0.003 C 
ATOM      8  C   LIG A   1      -5.187  -2.197 127.353  0.00  0.00    +0.005 C 
ATOM      9  C   LIG A   1      -4.552  -2.900 128.489  0.00  0.00    +0.008 C 
ATOM     10  C   LIG A   1      -4.786  -2.486 129.980  0.00  0.00    -0.019 C 
ATOM     11  C   LIG A   1      -6.493  -2.889 129.975  0.00  0.00    +0.006 C 
ATOM     12  C   LIG A   1      -7.290  -2.437 131.213  0.00  0.00    +0.031 C 
ATOM     13  C   LIG A   1      -6.618  -1.458 132.131  0.00  0.00    -0.026 C 
ATOM     14  C   LIG A   1      -5.810  -0.619 131.549  0.00  0.00    -0.063 C 
ATOM     15  C   LIG A   1      -4.520  -1.167 130.977  0.00  0.00    -0.003 C 
ATOM     16  C   LIG A   1      -3.716  -0.028 130.296  0.00  0.00    +0.043 C 
ATOM     17  C   LIG A   1      -4.694   0.778 129.423  0.00  0.00    +0.122 C 
ATOM     18  C   LIG A   1      -5.768   1.587 130.225  0.00  0.00    +0.001 C 
ATOM     19  C   LIG A   1      -5.948   0.933 131.653  0.00  0.00    +0.024 C 
ATOM     20  C   LIG A   1      -7.188   1.385 132.435  0.00  0.00    +0.014 C 
ATOM     21  C   LIG A   1      -8.586   1.405 131.753  0.00  0.00    -0.034 C 
ATOM     22  C   LIG A   1      -9.477   0.140 131.825  0.00  0.00    +0.011 C 
ATOM     23  C   LIG A   1      -8.406   1.916 130.306  0.00  0.00    +0.007 C 
ATOM     24  C   LIG A   1      -7.131   1.462 129.542  0.00  0.00    +0.010 C 
ATOM     25  C   LIG A   1      -9.444   2.362 132.648  0.00  0.00    +0.011 C 
ATOM     26  C   LIG A   1      -5.431   3.091 130.166  0.00  0.00    +0.014 C 
ATOM     27  C   LIG A   1      -3.740  -1.513 132.352  0.00  0.00    +0.016 C 
ATOM     28  C   LIG A   1      -3.460  -3.336 130.355  0.00  0.00    +0.012 C 
ATOM     29  C   LIG A   1      -8.352  -1.267 128.564  0.00  0.00    +0.012 C 
ATOM     30  C   LIG A   1      -7.217  -0.805 125.601  0.00  0.00    +0.014 C 
ENDROOT
BRANCH   3  31
ATOM     31  O   LIG A   1      -9.316  -2.767 124.572  0.00  0.00    -0.391 OA
ATOM     32  H   LIG A   1      -9.966  -3.460 124.382  0.00  0.00    +0.210 HD
ENDBRANCH   3  31
BRANCH  17  33
ATOM     33  O   LIG A   1      -3.931   1.564 128.511  0.00  0.00    -0.391 OA
ATOM     34  H   LIG A   1      -3.024   1.640 128.862  0.00  0.00    +0.210 HD
ENDBRANCH  17  33
TORSDOF 2
ENDMDL
MODEL 4
REMARK VINA RESULT:      -8.8      3.242      6.244
REMARK  Name = NuBBE_1354
REMARK  10 active torsions:
REMARK  status: ('A' for Active; 'I' for Inactive)
REMARK    1  A    between atoms: C_1  and  C_2
REMARK    2  A    between atoms: C_2  and  C_34
REMARK    3  A    between atoms: C_3  and  O_4
REMARK    4  A    between atoms: C_7  and  C_32
REMARK    5  A    between atoms: C_11  and  C_31
REMARK    6  A    between atoms: C_16  and  C_30
REMARK    7  A    between atoms: C_18  and  O_29
REMARK    8  A    between atoms: C_20  and  C_28
REMARK    9  A    between atoms: C_23  and  C_24
REMARK   10  A    between atoms: C_23  and  C_27
REMARK                            x       y       z     vdW  Elec       q    Type
REMARK                         _______ _______ _______ _____ _____    ______ ____
ROOT
ATOM      1  C   LIG A   1      -1.283   6.408 131.222  0.00  0.00    +0.014 C 
ATOM      2  C   LIG A   1      -2.642   5.876 130.648  0.00  0.00    -0.006 C 
ATOM      3  C   LIG A   1      -2.433   5.861 129.099  0.00  0.00    +0.120 C 
ATOM      4  C   LIG A   1      -3.358   4.971 128.264  0.00  0.00    +0.032 C 
ATOM      5  C   LIG A   1      -3.586   3.528 128.855  0.00  0.00    +0.010 C 
ATOM      6  C   LIG A   1      -4.074   3.594 130.354  0.00  0.00    -0.025 C 
ATOM      7  C   LIG A   1      -2.900   4.395 131.055  0.00  0.00    +0.003 C 
ATOM      8  C   LIG A   1      -2.887   4.225 132.550  0.00  0.00    +0.005 C 
ATOM      9  C   LIG A   1      -2.764   2.781 132.848  0.00  0.00    +0.008 C 
ATOM     10  C   LIG A   1      -3.987   1.806 132.832  0.00  0.00    -0.019 C 
ATOM     11  C   LIG A   1      -4.290   1.984 131.113  0.00  0.00    +0.006 C 
ATOM     12  C   LIG A   1      -5.602   1.362 130.599  0.00  0.00    +0.031 C 
ATOM     13  C   LIG A   1      -6.608   0.949 131.634  0.00  0.00    -0.026 C 
ATOM     14  C   LIG A   1      -6.626   1.681 132.710  0.00  0.00    -0.063 C 
ATOM     15  C   LIG A   1      -5.437   1.590 133.642  0.00  0.00    -0.003 C 
ATOM     16  C   LIG A   1      -5.626   2.558 134.840  0.00  0.00    +0.043 C 
ATOM     17  C   LIG A   1      -6.096   3.911 134.278  0.00  0.00    +0.122 C 
ATOM     18  C   LIG A   1      -7.531   3.896 133.655  0.00  0.00    +0.001 C 
ATOM     19  C   LIG A   1      -7.899   2.416 133.239  0.00  0.00    +0.024 C 
ATOM     20  C   LIG A   1      -9.115   2.272 132.315  0.00  0.00    +0.014 C 
ATOM     21  C   LIG A   1      -9.250   3.160 131.045  0.00  0.00    -0.034 C 
ATOM     22  C   LIG A   1      -8.658   2.653 129.706  0.00  0.00    +0.011 C 
ATOM     23  C   LIG A   1      -8.765   4.583 131.401  0.00  0.00    +0.007 C 
ATOM     24  C   LIG A   1      -7.545   4.704 132.356  0.00  0.00    +0.010 C 
ATOM     25  C   LIG A   1     -10.772   3.094 130.681  0.00  0.00    +0.011 C 
ATOM     26  C   LIG A   1      -8.509   4.637 134.592  0.00  0.00    +0.014 C 
ATOM     27  C   LIG A   1      -5.663   0.097 134.225  0.00  0.00    +0.016 C 
ATOM     28  C   LIG A   1      -3.085   0.766 133.684  0.00  0.00    +0.012 C 
ATOM     29  C   LIG A   1      -5.387   4.396 130.087  0.00  0.00    +0.012 C 
ATOM     30  C   LIG A   1      -3.683   6.843 131.267  0.00  0.00    +0.014 C 
ENDROOT
BRANCH   3  31
ATOM     31  O   LIG A   1      -2.386   7.164 128.522  0.00  0.00    -0.391 OA
ATOM     32  H   LIG A   1      -1.481   7.506 128.569  0.00  0.00    +0.210 HD
ENDBRANCH   3  31
BRANCH  17  33
ATOM     33  O   LIG A   1      -5.907   4.901 135.286  0.00  0.00    -0.391 OA
ATOM     34  H   LIG A   1      -6.194   5.760 134.924  0.00  0.00    +0.210 HD
ENDBRANCH  17  33
TORSDOF 2
ENDMDL
MODEL 5
REMARK VINA RESULT:      -8.6      2.634      5.157
REMARK  Name = NuBBE_1354
REMARK  10 active torsions:
REMARK  status: ('A' for Active; 'I' for Inactive)
REMARK    1  A    between atoms: C_1  and  C_2
REMARK    2  A    between atoms: C_2  and  C_34
REMARK    3  A    between atoms: C_3  and  O_4
REMARK    4  A    between atoms: C_7  and  C_32
REMARK    5  A    between atoms: C_11  and  C_31
REMARK    6  A    between atoms: C_16  and  C_30
REMARK    7  A    between atoms: C_18  and  O_29
REMARK    8  A    between atoms: C_20  and  C_28
REMARK    9  A    between atoms: C_23  and  C_24
REMARK   10  A    between atoms: C_23  and  C_27
REMARK                            x       y       z     vdW  Elec       q    Type
REMARK                         _______ _______ _______ _____ _____    ______ ____
ROOT
ATOM      1  C   LIG A   1     -11.213   5.175 130.009  0.00  0.00    +0.014 C 
ATOM      2  C   LIG A   1      -9.935   5.560 130.835  0.00  0.00    -0.006 C 
ATOM      3  C   LIG A   1     -10.472   5.851 132.273  0.00  0.00    +0.120 C 
ATOM      4  C   LIG A   1      -9.472   5.793 133.431  0.00  0.00    +0.032 C 
ATOM      5  C   LIG A   1      -8.496   4.557 133.392  0.00  0.00    +0.010 C 
ATOM      6  C   LIG A   1      -7.753   4.459 132.004  0.00  0.00    -0.025 C 
ATOM      7  C   LIG A   1      -8.959   4.356 130.982  0.00  0.00    +0.003 C 
ATOM      8  C   LIG A   1      -8.544   3.815 129.640  0.00  0.00    +0.005 C 
ATOM      9  C   LIG A   1      -7.940   2.481 129.848  0.00  0.00    +0.008 C 
ATOM     10  C   LIG A   1      -6.453   2.285 130.293  0.00  0.00    -0.019 C 
ATOM     11  C   LIG A   1      -6.672   3.035 131.863  0.00  0.00    +0.006 C 
ATOM     12  C   LIG A   1      -5.382   3.307 132.659  0.00  0.00    +0.031 C 
ATOM     13  C   LIG A   1      -4.086   3.191 131.911  0.00  0.00    -0.026 C 
ATOM     14  C   LIG A   1      -4.143   3.523 130.654  0.00  0.00    -0.063 C 
ATOM     15  C   LIG A   1      -4.913   2.613 129.720  0.00  0.00    -0.003 C 
ATOM     16  C   LIG A   1      -4.898   3.193 128.281  0.00  0.00    +0.043 C 
ATOM     17  C   LIG A   1      -5.226   4.693 128.378  0.00  0.00    +0.122 C 
ATOM     18  C   LIG A   1      -4.123   5.557 129.077  0.00  0.00    +0.001 C 
ATOM     19  C   LIG A   1      -3.246   4.625 130.003  0.00  0.00    +0.024 C 
ATOM     20  C   LIG A   1      -2.346   5.351 131.012  0.00  0.00    +0.014 C 
ATOM     21  C   LIG A   1      -2.922   6.487 131.906  0.00  0.00    -0.034 C 
ATOM     22  C   LIG A   1      -3.522   6.126 133.288  0.00  0.00    +0.011 C 
ATOM     23  C   LIG A   1      -3.890   7.330 131.046  0.00  0.00    +0.007 C 
ATOM     24  C   LIG A   1      -4.775   6.573 130.017  0.00  0.00    +0.010 C 
ATOM     25  C   LIG A   1      -1.662   7.284 132.386  0.00  0.00    +0.011 C 
ATOM     26  C   LIG A   1      -3.387   6.409 128.021  0.00  0.00    +0.014 C 
ATOM     27  C   LIG A   1      -3.918   1.337 129.705  0.00  0.00    +0.016 C 
ATOM     28  C   LIG A   1      -6.571   0.753 129.783  0.00  0.00    +0.012 C 
ATOM     29  C   LIG A   1      -7.035   5.845 132.080  0.00  0.00    +0.012 C 
ATOM     30  C   LIG A   1      -9.320   6.713 130.003  0.00  0.00    +0.014 C 
ENDROOT
BRANCH   3  31
ATOM     31  O   LIG A   1     -11.227   7.057 132.361  0.00  0.00    -0.391 OA
ATOM     32  H   LIG A   1     -10.628   7.803 132.517  0.00  0.00    +0.210 HD
ENDBRANCH   3  31
BRANCH  17  33
ATOM     33  O   LIG A   1      -5.592   5.153 127.080  0.00  0.00    -0.391 OA
ATOM     34  H   LIG A   1      -4.934   4.817 126.443  0.00  0.00    +0.210 HD
ENDBRANCH  17  33
TORSDOF 2
ENDMDL
MODEL 6
REMARK VINA RESULT:      -8.6      2.993      7.260
REMARK  Name = NuBBE_1354
REMARK  10 active torsions:
REMARK  status: ('A' for Active; 'I' for Inactive)
REMARK    1  A    between atoms: C_1  and  C_2
REMARK    2  A    between atoms: C_2  and  C_34
REMARK    3  A    between atoms: C_3  and  O_4
REMARK    4  A    between atoms: C_7  and  C_32
REMARK    5  A    between atoms: C_11  and  C_31
REMARK    6  A    between atoms: C_16  and  C_30
REMARK    7  A    between atoms: C_18  and  O_29
REMARK    8  A    between atoms: C_20  and  C_28
REMARK    9  A    between atoms: C_23  and  C_24
REMARK   10  A    between atoms: C_23  and  C_27
REMARK                            x       y       z     vdW  Elec       q    Type
REMARK                         _______ _______ _______ _____ _____    ______ ____
ROOT
ATOM      1  C   LIG A   1      -8.574  -0.690 123.853  0.00  0.00    +0.014 C 
ATOM      2  C   LIG A   1      -8.597  -0.667 125.421  0.00  0.00    -0.006 C 
ATOM      3  C   LIG A   1      -8.696  -2.170 125.834  0.00  0.00    +0.120 C 
ATOM      4  C   LIG A   1      -8.270  -2.549 127.255  0.00  0.00    +0.032 C 
ATOM      5  C   LIG A   1      -6.926  -1.880 127.735  0.00  0.00    +0.010 C 
ATOM      6  C   LIG A   1      -6.974  -0.313 127.562  0.00  0.00    -0.025 C 
ATOM      7  C   LIG A   1      -7.249  -0.153 126.010  0.00  0.00    +0.003 C 
ATOM      8  C   LIG A   1      -6.909   1.219 125.493  0.00  0.00    +0.005 C 
ATOM      9  C   LIG A   1      -5.483   1.479 125.784  0.00  0.00    +0.008 C 
ATOM     10  C   LIG A   1      -4.979   1.973 127.181  0.00  0.00    -0.019 C 
ATOM     11  C   LIG A   1      -5.449   0.510 128.028  0.00  0.00    +0.006 C 
ATOM     12  C   LIG A   1      -5.366   0.573 129.565  0.00  0.00    +0.031 C 
ATOM     13  C   LIG A   1      -5.192   1.931 130.180  0.00  0.00    -0.026 C 
ATOM     14  C   LIG A   1      -5.756   2.907 129.530  0.00  0.00    -0.063 C 
ATOM     15  C   LIG A   1      -5.164   3.295 128.191  0.00  0.00    -0.003 C 
ATOM     16  C   LIG A   1      -5.992   4.446 127.559  0.00  0.00    +0.043 C 
ATOM     17  C   LIG A   1      -7.481   4.082 127.696  0.00  0.00    +0.122 C 
ATOM     18  C   LIG A   1      -8.018   4.078 129.166  0.00  0.00    +0.001 C 
ATOM     19  C   LIG A   1      -6.805   3.878 130.160  0.00  0.00    +0.024 C 
ATOM     20  C   LIG A   1      -7.184   3.515 131.601  0.00  0.00    +0.014 C 
ATOM     21  C   LIG A   1      -8.210   2.380 131.884  0.00  0.00    -0.034 C 
ATOM     22  C   LIG A   1      -7.696   0.929 132.063  0.00  0.00    +0.011 C 
ATOM     23  C   LIG A   1      -9.337   2.480 130.833  0.00  0.00    +0.007 C 
ATOM     24  C   LIG A   1      -8.931   2.870 129.385  0.00  0.00    +0.010 C 
ATOM     25  C   LIG A   1      -8.698   2.650 133.348  0.00  0.00    +0.011 C 
ATOM     26  C   LIG A   1      -8.926   5.306 129.387  0.00  0.00    +0.014 C 
ATOM     27  C   LIG A   1      -3.775   3.957 128.690  0.00  0.00    +0.016 C 
ATOM     28  C   LIG A   1      -3.605   2.424 126.453  0.00  0.00    +0.012 C 
ATOM     29  C   LIG A   1      -8.193  -0.058 128.505  0.00  0.00    +0.012 C 
ATOM     30  C   LIG A   1      -9.775   0.289 125.737  0.00  0.00    +0.014 C 
ENDROOT
BRANCH   3  31
ATOM     31  O   LIG A   1      -9.967  -2.751 125.553  0.00  0.00    -0.391 OA
ATOM     32  H   LIG A   1     -10.150  -2.687 124.603  0.00  0.00    +0.210 HD
ENDBRANCH   3  31
BRANCH  17  33
ATOM     33  O   LIG A   1      -8.224   4.908 126.804  0.00  0.00    -0.391 OA
ATOM     34  H   LIG A   1      -8.122   4.549 125.903  0.00  0.00    +0.210 HD
ENDBRANCH  17  33
TORSDOF 2
ENDMDL
MODEL 7
REMARK VINA RESULT:      -8.5      2.684      5.832
REMARK  Name = NuBBE_1354
REMARK  10 active torsions:
REMARK  status: ('A' for Active; 'I' for Inactive)
REMARK    1  A    between atoms: C_1  and  C_2
REMARK    2  A    between atoms: C_2  and  C_34
REMARK    3  A    between atoms: C_3  and  O_4
REMARK    4  A    between atoms: C_7  and  C_32
REMARK    5  A    between atoms: C_11  and  C_31
REMARK    6  A    between atoms: C_16  and  C_30
REMARK    7  A    between atoms: C_18  and  O_29
REMARK    8  A    between atoms: C_20  and  C_28
REMARK    9  A    between atoms: C_23  and  C_24
REMARK   10  A    between atoms: C_23  and  C_27
REMARK                            x       y       z     vdW  Elec       q    Type
REMARK                         _______ _______ _______ _____ _____    ______ ____
ROOT
ATOM      1  C   LIG A   1      -3.350   7.450 132.213  0.00  0.00    +0.014 C 
ATOM      2  C   LIG A   1      -3.802   5.996 132.587  0.00  0.00    -0.006 C 
ATOM      3  C   LIG A   1      -3.293   5.791 134.050  0.00  0.00    +0.120 C 
ATOM      4  C   LIG A   1      -3.954   4.692 134.887  0.00  0.00    +0.032 C 
ATOM      5  C   LIG A   1      -5.525   4.647 134.785  0.00  0.00    +0.010 C 
ATOM      6  C   LIG A   1      -5.999   4.569 133.282  0.00  0.00    -0.025 C 
ATOM      7  C   LIG A   1      -5.353   5.874 132.657  0.00  0.00    +0.003 C 
ATOM      8  C   LIG A   1      -5.997   6.282 131.359  0.00  0.00    +0.005 C 
ATOM      9  C   LIG A   1      -7.439   6.499 131.609  0.00  0.00    +0.008 C 
ATOM     10  C   LIG A   1      -8.476   5.329 131.659  0.00  0.00    -0.019 C 
ATOM     11  C   LIG A   1      -7.782   4.582 133.086  0.00  0.00    +0.006 C 
ATOM     12  C   LIG A   1      -8.333   3.190 133.447  0.00  0.00    +0.031 C 
ATOM     13  C   LIG A   1      -9.160   2.497 132.403  0.00  0.00    -0.026 C 
ATOM     14  C   LIG A   1      -8.823   2.752 131.173  0.00  0.00    -0.063 C 
ATOM     15  C   LIG A   1      -9.089   4.146 130.644  0.00  0.00    -0.003 C 
ATOM     16  C   LIG A   1      -8.587   4.263 129.181  0.00  0.00    +0.043 C 
ATOM     17  C   LIG A   1      -7.179   3.644 129.118  0.00  0.00    +0.122 C 
ATOM     18  C   LIG A   1      -7.138   2.096 129.341  0.00  0.00    +0.001 C 
ATOM     19  C   LIG A   1      -8.432   1.652 130.133  0.00  0.00    +0.024 C 
ATOM     20  C   LIG A   1      -8.393   0.239 130.727  0.00  0.00    +0.014 C 
ATOM     21  C   LIG A   1      -7.159  -0.238 131.548  0.00  0.00    -0.034 C 
ATOM     22  C   LIG A   1      -7.141  -0.011 133.080  0.00  0.00    +0.011 C 
ATOM     23  C   LIG A   1      -5.887   0.304 130.858  0.00  0.00    +0.007 C 
ATOM     24  C   LIG A   1      -5.958   1.730 130.245  0.00  0.00    +0.010 C 
ATOM     25  C   LIG A   1      -7.258  -1.800 131.531  0.00  0.00    +0.011 C 
ATOM     26  C   LIG A   1      -6.845   1.388 128.002  0.00  0.00    +0.014 C 
ATOM     27  C   LIG A   1     -10.705   4.101 130.567  0.00  0.00    +0.016 C 
ATOM     28  C   LIG A   1      -9.638   6.437 131.456  0.00  0.00    +0.012 C 
ATOM     29  C   LIG A   1      -5.292   3.220 132.934  0.00  0.00    +0.012 C 
ATOM     30  C   LIG A   1      -3.200   5.141 131.444  0.00  0.00    +0.014 C 
ENDROOT
BRANCH   3  31
ATOM     31  O   LIG A   1      -1.876   5.666 134.143  0.00  0.00    -0.391 OA
ATOM     32  H   LIG A   1      -1.598   4.822 133.757  0.00  0.00    +0.210 HD
ENDBRANCH   3  31
BRANCH  17  33
ATOM     33  O   LIG A   1      -6.556   4.077 127.911  0.00  0.00    -0.391 OA
ATOM     34  H   LIG A   1      -7.249   4.438 127.326  0.00  0.00    +0.210 HD
ENDBRANCH  17  33
TORSDOF 2
ENDMDL
MODEL 8
REMARK VINA RESULT:      -8.4      3.166      5.804
REMARK  Name = NuBBE_1354
REMARK  10 active torsions:
REMARK  status: ('A' for Active; 'I' for Inactive)
REMARK    1  A    between atoms: C_1  and  C_2
REMARK    2  A    between atoms: C_2  and  C_34
REMARK    3  A    between atoms: C_3  and  O_4
REMARK    4  A    between atoms: C_7  and  C_32
REMARK    5  A    between atoms: C_11  and  C_31
REMARK    6  A    between atoms: C_16  and  C_30
REMARK    7  A    between atoms: C_18  and  O_29
REMARK    8  A    between atoms: C_20  and  C_28
REMARK    9  A    between atoms: C_23  and  C_24
REMARK   10  A    between atoms: C_23  and  C_27
REMARK                            x       y       z     vdW  Elec       q    Type
REMARK                         _______ _______ _______ _____ _____    ______ ____
ROOT
ATOM      1  C   LIG A   1      -3.058   8.086 131.834  0.00  0.00    +0.014 C 
ATOM      2  C   LIG A   1      -2.999   6.535 131.604  0.00  0.00    -0.006 C 
ATOM      3  C   LIG A   1      -1.619   6.104 132.199  0.00  0.00    +0.120 C 
ATOM      4  C   LIG A   1      -1.434   4.630 132.571  0.00  0.00    +0.032 C 
ATOM      5  C   LIG A   1      -2.649   3.993 133.345  0.00  0.00    +0.010 C 
ATOM      6  C   LIG A   1      -4.002   4.207 132.562  0.00  0.00    -0.025 C 
ATOM      7  C   LIG A   1      -4.075   5.785 132.443  0.00  0.00    +0.003 C 
ATOM      8  C   LIG A   1      -5.461   6.285 132.135  0.00  0.00    +0.005 C 
ATOM      9  C   LIG A   1      -6.369   5.814 133.203  0.00  0.00    +0.008 C 
ATOM     10  C   LIG A   1      -6.982   4.375 133.220  0.00  0.00    -0.019 C 
ATOM     11  C   LIG A   1      -5.440   3.564 133.419  0.00  0.00    +0.006 C 
ATOM     12  C   LIG A   1      -5.467   2.031 133.265  0.00  0.00    +0.031 C 
ATOM     13  C   LIG A   1      -6.710   1.431 132.676  0.00  0.00    -0.026 C 
ATOM     14  C   LIG A   1      -7.318   2.172 131.796  0.00  0.00    -0.063 C 
ATOM     15  C   LIG A   1      -8.002   3.430 132.288  0.00  0.00    -0.003 C 
ATOM     16  C   LIG A   1      -8.633   4.193 131.093  0.00  0.00    +0.043 C 
ATOM     17  C   LIG A   1      -7.586   4.245 129.966  0.00  0.00    +0.122 C 
ATOM     18  C   LIG A   1      -7.257   2.860 129.317  0.00  0.00    +0.001 C 
ATOM     19  C   LIG A   1      -7.628   1.710 130.336  0.00  0.00    +0.024 C 
ATOM     20  C   LIG A   1      -7.063   0.323 130.002  0.00  0.00    +0.014 C 
ATOM     21  C   LIG A   1      -5.561   0.152 129.633  0.00  0.00    -0.034 C 
ATOM     22  C   LIG A   1      -4.536  -0.128 130.761  0.00  0.00    +0.011 C 
ATOM     23  C   LIG A   1      -5.147   1.345 128.744  0.00  0.00    +0.007 C 
ATOM     24  C   LIG A   1      -5.749   2.736 129.088  0.00  0.00    +0.010 C 
ATOM     25  C   LIG A   1      -5.495  -1.227 128.894  0.00  0.00    +0.011 C 
ATOM     26  C   LIG A   1      -7.878   2.790 127.906  0.00  0.00    +0.014 C 
ATOM     27  C   LIG A   1      -9.233   2.767 133.102  0.00  0.00    +0.016 C 
ATOM     28  C   LIG A   1      -8.076   4.925 134.280  0.00  0.00    +0.012 C 
ATOM     29  C   LIG A   1      -3.590   3.440 131.265  0.00  0.00    +0.012 C 
ATOM     30  C   LIG A   1      -3.247   6.401 130.081  0.00  0.00    +0.014 C 
ENDROOT
BRANCH   3  31
ATOM     31  O   LIG A   1      -0.507   6.537 131.419  0.00  0.00    -0.391 OA
ATOM     32  H   LIG A   1       0.126   7.000 131.987  0.00  0.00    +0.210 HD
ENDBRANCH   3  31
BRANCH  17  33
ATOM     33  O   LIG A   1      -7.985   5.247 129.034  0.00  0.00    -0.391 OA
ATOM     34  H   LIG A   1      -7.292   5.934 129.013  0.00  0.00    +0.210 HD
ENDBRANCH  17  33
TORSDOF 2
ENDMDL
MODEL 9
REMARK VINA RESULT:      -8.4      3.139      6.812
REMARK  Name = NuBBE_1354
REMARK  10 active torsions:
REMARK  status: ('A' for Active; 'I' for Inactive)
REMARK    1  A    between atoms: C_1  and  C_2
REMARK    2  A    between atoms: C_2  and  C_34
REMARK    3  A    between atoms: C_3  and  O_4
REMARK    4  A    between atoms: C_7  and  C_32
REMARK    5  A    between atoms: C_11  and  C_31
REMARK    6  A    between atoms: C_16  and  C_30
REMARK    7  A    between atoms: C_18  and  O_29
REMARK    8  A    between atoms: C_20  and  C_28
REMARK    9  A    between atoms: C_23  and  C_24
REMARK   10  A    between atoms: C_23  and  C_27
REMARK                            x       y       z     vdW  Elec       q    Type
REMARK                         _______ _______ _______ _____ _____    ______ ____
ROOT
ATOM      1  C   LIG A   1      -7.520  -2.766 132.378  0.00  0.00    +0.014 C 
ATOM      2  C   LIG A   1      -6.912  -2.099 131.095  0.00  0.00    -0.006 C 
ATOM      3  C   LIG A   1      -7.071  -3.180 129.979  0.00  0.00    +0.120 C 
ATOM      4  C   LIG A   1      -7.024  -2.712 128.522  0.00  0.00    +0.032 C 
ATOM      5  C   LIG A   1      -7.862  -1.411 128.225  0.00  0.00    +0.010 C 
ATOM      6  C   LIG A   1      -7.466  -0.239 129.204  0.00  0.00    -0.025 C 
ATOM      7  C   LIG A   1      -7.754  -0.876 130.625  0.00  0.00    +0.003 C 
ATOM      8  C   LIG A   1      -7.883   0.155 131.713  0.00  0.00    +0.005 C 
ATOM      9  C   LIG A   1      -8.974   1.082 131.342  0.00  0.00    +0.008 C 
ATOM     10  C   LIG A   1      -8.772   2.275 130.351  0.00  0.00    -0.019 C 
ATOM     11  C   LIG A   1      -8.429   1.255 128.966  0.00  0.00    +0.006 C 
ATOM     12  C   LIG A   1      -7.916   1.984 127.710  0.00  0.00    +0.031 C 
ATOM     13  C   LIG A   1      -7.480   3.410 127.884  0.00  0.00    -0.026 C 
ATOM     14  C   LIG A   1      -6.960   3.691 129.044  0.00  0.00    -0.063 C 
ATOM     15  C   LIG A   1      -7.879   3.689 130.246  0.00  0.00    -0.003 C 
ATOM     16  C   LIG A   1      -7.071   4.007 131.532  0.00  0.00    +0.043 C 
ATOM     17  C   LIG A   1      -5.793   3.150 131.506  0.00  0.00    +0.122 C 
ATOM     18  C   LIG A   1      -4.770   3.539 130.387  0.00  0.00    +0.001 C 
ATOM     19  C   LIG A   1      -5.533   4.300 129.231  0.00  0.00    +0.024 C 
ATOM     20  C   LIG A   1      -4.758   4.453 127.916  0.00  0.00    +0.014 C 
ATOM     21  C   LIG A   1      -4.043   3.229 127.275  0.00  0.00    -0.034 C 
ATOM     22  C   LIG A   1      -4.821   2.347 126.265  0.00  0.00    +0.011 C 
ATOM     23  C   LIG A   1      -3.404   2.398 128.411  0.00  0.00    +0.007 C 
ATOM     24  C   LIG A   1      -4.199   2.276 129.740  0.00  0.00    +0.010 C 
ATOM     25  C   LIG A   1      -2.993   3.856 126.297  0.00  0.00    +0.011 C 
ATOM     26  C   LIG A   1      -3.553   4.244 131.022  0.00  0.00    +0.014 C 
ATOM     27  C   LIG A   1      -8.753   5.011 129.922  0.00  0.00    +0.016 C 
ATOM     28  C   LIG A   1     -10.144   2.907 130.934  0.00  0.00    +0.012 C 
ATOM     29  C   LIG A   1      -5.964  -0.147 128.786  0.00  0.00    +0.012 C 
ATOM     30  C   LIG A   1      -5.492  -1.687 131.559  0.00  0.00    +0.014 C 
ENDROOT
BRANCH   3  31
ATOM     31  O   LIG A   1      -6.200  -4.296 130.144  0.00  0.00    -0.391 OA
ATOM     32  H   LIG A   1      -6.495  -4.829 130.897  0.00  0.00    +0.210 HD
ENDBRANCH   3  31
BRANCH  17  33
ATOM     33  O   LIG A   1      -5.243   3.132 132.821  0.00  0.00    -0.391 OA
ATOM     34  H   LIG A   1      -5.134   4.056 133.115  0.00  0.00    +0.210 HD
ENDBRANCH  17  33
TORSDOF 2
ENDMDL
