MODEL 1
REMARK VINA RESULT:      -8.0      0.000      0.000
REMARK  Name = NuBBE_2398
REMARK  9 active torsions:
REMARK  status: ('A' for Active; 'I' for Inactive)
REMARK    1  A    between atoms: C_1  and  C_3
REMARK    2  A    between atoms: C_1  and  C_11
REMARK    3  A    between atoms: C_4  and  C_5
REMARK    4  A    between atoms: C_12  and  O_13
REMARK    5  A    between atoms: C_14  and  C_15
REMARK    6  A    between atoms: C_15  and  C_16
REMARK    7  A    between atoms: C_17  and  C_18
REMARK    8  A    between atoms: C_17  and  C_19
REMARK    9  A    between atoms: C_20  and  O_23
REMARK                            x       y       z     vdW  Elec       q    Type
REMARK                         _______ _______ _______ _____ _____    ______ ____
ROOT
ATOM      1  C   LIG A   1      -8.901   0.753 123.788  0.00  0.00    +0.064 A 
ATOM      2  C   LIG A   1      -8.139  -0.166 124.548  0.00  0.00    +0.135 A 
ATOM      3  C   LIG A   1      -8.203  -1.561 124.323  0.00  0.00    +0.040 A 
ATOM      4  C   LIG A   1      -9.061  -2.012 123.311  0.00  0.00    +0.124 A 
ATOM      5  C   LIG A   1      -9.834  -1.117 122.570  0.00  0.00    +0.046 A 
ATOM      6  C   LIG A   1      -9.755   0.257 122.801  0.00  0.00    +0.019 A 
ENDROOT
BRANCH   1   7
ATOM      7  C   LIG A   1      -8.735   2.218 124.040  0.00  0.00    +0.190 C 
ATOM      8  O   LIG A   1      -8.962   2.649 125.162  0.00  0.00    -0.287 OA
BRANCH   7   9
ATOM      9  C   LIG A   1      -8.352   3.126 122.916  0.00  0.00    +0.052 C 
ATOM     10  C   LIG A   1      -7.143   2.998 122.344  0.00  0.00    +0.012 C 
BRANCH  10  11
ATOM     11  C   LIG A   1      -6.702   3.825 121.216  0.00  0.00    -0.025 A 
ATOM     12  C   LIG A   1      -7.538   3.986 120.104  0.00  0.00    +0.008 A 
ATOM     13  C   LIG A   1      -7.101   4.709 118.991  0.00  0.00    +0.001 A 
ATOM     14  C   LIG A   1      -5.828   5.278 118.982  0.00  0.00    +0.000 A 
ATOM     15  C   LIG A   1      -4.994   5.129 120.090  0.00  0.00    +0.001 A 
ATOM     16  C   LIG A   1      -5.430   4.407 121.206  0.00  0.00    +0.008 A 
ENDBRANCH  10  11
ENDBRANCH   7   9
ENDBRANCH   1   7
BRANCH   2  17
ATOM     17  O   LIG A   1      -7.303   0.266 125.554  0.00  0.00    -0.506 OA
ATOM     18  H   LIG A   1      -7.383   1.243 125.627  0.00  0.00    +0.292 HD
ENDBRANCH   2  17
BRANCH   4  19
ATOM     19  O   LIG A   1      -9.201  -3.322 122.949  0.00  0.00    -0.506 OA
ATOM     20  H   LIG A   1      -9.645  -3.383 122.091  0.00  0.00    +0.292 HD
ENDBRANCH   4  19
BRANCH   3  21
ATOM     21  C   LIG A   1      -7.376  -2.507 125.168  0.00  0.00    +0.069 C 
BRANCH  21  22
ATOM     22  C   LIG A   1      -8.205  -3.350 126.102  0.00  0.00    -0.023 C 
ATOM     23  C   LIG A   1      -8.386  -3.188 127.429  0.00  0.00    -0.079 C 
ATOM     24  C   LIG A   1      -7.701  -2.156 128.281  0.00  0.00    +0.038 C 
ATOM     25  C   LIG A   1      -9.360  -4.053 128.189  0.00  0.00    +0.038 C 
ENDBRANCH  21  22
ENDBRANCH   3  21
TORSDOF 7
ENDMDL
MODEL 2
REMARK VINA RESULT:      -7.7      1.184      1.957
REMARK  Name = NuBBE_2398
REMARK  9 active torsions:
REMARK  status: ('A' for Active; 'I' for Inactive)
REMARK    1  A    between atoms: C_1  and  C_3
REMARK    2  A    between atoms: C_1  and  C_11
REMARK    3  A    between atoms: C_4  and  C_5
REMARK    4  A    between atoms: C_12  and  O_13
REMARK    5  A    between atoms: C_14  and  C_15
REMARK    6  A    between atoms: C_15  and  C_16
REMARK    7  A    between atoms: C_17  and  C_18
REMARK    8  A    between atoms: C_17  and  C_19
REMARK    9  A    between atoms: C_20  and  O_23
REMARK                            x       y       z     vdW  Elec       q    Type
REMARK                         _______ _______ _______ _____ _____    ______ ____
ROOT
ATOM      1  C   LIG A   1      -8.939   0.695 123.817  0.00  0.00    +0.064 A 
ATOM      2  C   LIG A   1      -8.358  -0.316 124.618  0.00  0.00    +0.135 A 
ATOM      3  C   LIG A   1      -8.564  -1.691 124.357  0.00  0.00    +0.040 A 
ATOM      4  C   LIG A   1      -9.377  -2.025 123.265  0.00  0.00    +0.124 A 
ATOM      5  C   LIG A   1      -9.973  -1.037 122.482  0.00  0.00    +0.046 A 
ATOM      6  C   LIG A   1      -9.755   0.316 122.749  0.00  0.00    +0.019 A 
ENDROOT
BRANCH   1   7
ATOM      7  C   LIG A   1      -8.626   2.128 124.114  0.00  0.00    +0.190 C 
ATOM      8  O   LIG A   1      -9.174   2.660 125.069  0.00  0.00    -0.287 OA
BRANCH   7   9
ATOM      9  C   LIG A   1      -7.703   2.888 123.217  0.00  0.00    +0.052 C 
ATOM     10  C   LIG A   1      -8.047   3.096 121.935  0.00  0.00    +0.012 C 
BRANCH  10  11
ATOM     11  C   LIG A   1      -7.215   3.858 120.998  0.00  0.00    -0.025 A 
ATOM     12  C   LIG A   1      -7.717   4.188 119.734  0.00  0.00    +0.008 A 
ATOM     13  C   LIG A   1      -6.910   4.848 118.803  0.00  0.00    +0.001 A 
ATOM     14  C   LIG A   1      -5.598   5.185 119.131  0.00  0.00    +0.000 A 
ATOM     15  C   LIG A   1      -5.094   4.868 120.392  0.00  0.00    +0.001 A 
ATOM     16  C   LIG A   1      -5.901   4.208 121.325  0.00  0.00    +0.008 A 
ENDBRANCH  10  11
ENDBRANCH   7   9
ENDBRANCH   1   7
BRANCH   2  17
ATOM     17  O   LIG A   1      -7.568   0.002 125.701  0.00  0.00    -0.506 OA
ATOM     18  H   LIG A   1      -8.114  -0.077 126.516  0.00  0.00    +0.292 HD
ENDBRANCH   2  17
BRANCH   4  19
ATOM     19  O   LIG A   1      -9.636  -3.306 122.864  0.00  0.00    -0.506 OA
ATOM     20  H   LIG A   1     -10.559  -3.529 123.048  0.00  0.00    +0.292 HD
ENDBRANCH   4  19
BRANCH   3  21
ATOM     21  C   LIG A   1      -7.930  -2.738 125.248  0.00  0.00    +0.069 C 
BRANCH  21  22
ATOM     22  C   LIG A   1      -6.879  -3.559 124.546  0.00  0.00    -0.023 C 
ATOM     23  C   LIG A   1      -5.579  -3.254 124.350  0.00  0.00    -0.079 C 
ATOM     24  C   LIG A   1      -4.924  -1.954 124.724  0.00  0.00    +0.038 C 
ATOM     25  C   LIG A   1      -4.633  -4.256 123.738  0.00  0.00    +0.038 C 
ENDBRANCH  21  22
ENDBRANCH   3  21
TORSDOF 7
ENDMDL
MODEL 3
REMARK VINA RESULT:      -7.6      2.113      2.943
REMARK  Name = NuBBE_2398
REMARK  9 active torsions:
REMARK  status: ('A' for Active; 'I' for Inactive)
REMARK    1  A    between atoms: C_1  and  C_3
REMARK    2  A    between atoms: C_1  and  C_11
REMARK    3  A    between atoms: C_4  and  C_5
REMARK    4  A    between atoms: C_12  and  O_13
REMARK    5  A    between atoms: C_14  and  C_15
REMARK    6  A    between atoms: C_15  and  C_16
REMARK    7  A    between atoms: C_17  and  C_18
REMARK    8  A    between atoms: C_17  and  C_19
REMARK    9  A    between atoms: C_20  and  O_23
REMARK                            x       y       z     vdW  Elec       q    Type
REMARK                         _______ _______ _______ _____ _____    ______ ____
ROOT
ATOM      1  C   LIG A   1      -7.114   2.201 125.071  0.00  0.00    +0.064 A 
ATOM      2  C   LIG A   1      -6.583   1.001 125.601  0.00  0.00    +0.135 A 
ATOM      3  C   LIG A   1      -7.378  -0.155 125.786  0.00  0.00    +0.040 A 
ATOM      4  C   LIG A   1      -8.729  -0.072 125.423  0.00  0.00    +0.124 A 
ATOM      5  C   LIG A   1      -9.269   1.112 124.920  0.00  0.00    +0.046 A 
ATOM      6  C   LIG A   1      -8.470   2.243 124.740  0.00  0.00    +0.019 A 
ENDROOT
BRANCH   1   7
ATOM      7  C   LIG A   1      -6.199   3.363 124.846  0.00  0.00    +0.190 C 
ATOM      8  O   LIG A   1      -5.481   3.729 125.765  0.00  0.00    -0.287 OA
BRANCH   7   9
ATOM      9  C   LIG A   1      -6.220   4.081 123.535  0.00  0.00    +0.052 C 
ATOM     10  C   LIG A   1      -6.207   3.373 122.392  0.00  0.00    +0.012 C 
BRANCH  10  11
ATOM     11  C   LIG A   1      -6.258   3.998 121.066  0.00  0.00    -0.025 A 
ATOM     12  C   LIG A   1      -5.209   4.825 120.647  0.00  0.00    +0.008 A 
ATOM     13  C   LIG A   1      -5.278   5.486 119.418  0.00  0.00    +0.001 A 
ATOM     14  C   LIG A   1      -6.394   5.323 118.598  0.00  0.00    +0.000 A 
ATOM     15  C   LIG A   1      -7.438   4.493 119.005  0.00  0.00    +0.001 A 
ATOM     16  C   LIG A   1      -7.370   3.829 120.235  0.00  0.00    +0.008 A 
ENDBRANCH  10  11
ENDBRANCH   7   9
ENDBRANCH   1   7
BRANCH   2  17
ATOM     17  O   LIG A   1      -5.259   0.913 125.973  0.00  0.00    -0.506 OA
ATOM     18  H   LIG A   1      -5.216   0.852 126.954  0.00  0.00    +0.292 HD
ENDBRANCH   2  17
BRANCH   4  19
ATOM     19  O   LIG A   1      -9.611  -1.112 125.504  0.00  0.00    -0.506 OA
ATOM     20  H   LIG A   1      -9.684  -1.414 126.421  0.00  0.00    +0.292 HD
ENDBRANCH   4  19
BRANCH   3  21
ATOM     21  C   LIG A   1      -6.768  -1.413 126.367  0.00  0.00    +0.069 C 
BRANCH  21  22
ATOM     22  C   LIG A   1      -5.763  -2.064 125.452  0.00  0.00    -0.023 C 
ATOM     23  C   LIG A   1      -5.973  -3.042 124.547  0.00  0.00    -0.079 C 
ATOM     24  C   LIG A   1      -7.275  -3.763 124.330  0.00  0.00    +0.038 C 
ATOM     25  C   LIG A   1      -4.872  -3.488 123.618  0.00  0.00    +0.038 C 
ENDBRANCH  21  22
ENDBRANCH   3  21
TORSDOF 7
ENDMDL
MODEL 4
REMARK VINA RESULT:      -7.5      1.864      2.229
REMARK  Name = NuBBE_2398
REMARK  9 active torsions:
REMARK  status: ('A' for Active; 'I' for Inactive)
REMARK    1  A    between atoms: C_1  and  C_3
REMARK    2  A    between atoms: C_1  and  C_11
REMARK    3  A    between atoms: C_4  and  C_5
REMARK    4  A    between atoms: C_12  and  O_13
REMARK    5  A    between atoms: C_14  and  C_15
REMARK    6  A    between atoms: C_15  and  C_16
REMARK    7  A    between atoms: C_17  and  C_18
REMARK    8  A    between atoms: C_17  and  C_19
REMARK    9  A    between atoms: C_20  and  O_23
REMARK                            x       y       z     vdW  Elec       q    Type
REMARK                         _______ _______ _______ _____ _____    ______ ____
ROOT
ATOM      1  C   LIG A   1      -7.087   1.876 125.385  0.00  0.00    +0.064 A 
ATOM      2  C   LIG A   1      -6.642   0.571 125.703  0.00  0.00    +0.135 A 
ATOM      3  C   LIG A   1      -7.535  -0.520 125.818  0.00  0.00    +0.040 A 
ATOM      4  C   LIG A   1      -8.896  -0.263 125.605  0.00  0.00    +0.124 A 
ATOM      5  C   LIG A   1      -9.349   1.024 125.312  0.00  0.00    +0.046 A 
ATOM      6  C   LIG A   1      -8.454   2.089 125.198  0.00  0.00    +0.019 A 
ENDROOT
BRANCH   1   7
ATOM      7  C   LIG A   1      -6.077   2.968 125.220  0.00  0.00    +0.190 C 
ATOM      8  O   LIG A   1      -5.337   3.227 126.157  0.00  0.00    -0.287 OA
BRANCH   7   9
ATOM      9  C   LIG A   1      -6.031   3.749 123.946  0.00  0.00    +0.052 C 
ATOM     10  C   LIG A   1      -6.338   3.144 122.787  0.00  0.00    +0.012 C 
BRANCH  10  11
ATOM     11  C   LIG A   1      -6.349   3.845 121.498  0.00  0.00    -0.025 A 
ATOM     12  C   LIG A   1      -7.474   3.759 120.670  0.00  0.00    +0.008 A 
ATOM     13  C   LIG A   1      -7.471   4.359 119.408  0.00  0.00    +0.001 A 
ATOM     14  C   LIG A   1      -6.343   5.050 118.966  0.00  0.00    +0.000 A 
ATOM     15  C   LIG A   1      -5.222   5.147 119.790  0.00  0.00    +0.001 A 
ATOM     16  C   LIG A   1      -5.224   4.548 121.054  0.00  0.00    +0.008 A 
ENDBRANCH  10  11
ENDBRANCH   7   9
ENDBRANCH   1   7
BRANCH   2  17
ATOM     17  O   LIG A   1      -5.307   0.310 125.928  0.00  0.00    -0.506 OA
ATOM     18  H   LIG A   1      -4.858   0.222 125.057  0.00  0.00    +0.292 HD
ENDBRANCH   2  17
BRANCH   4  19
ATOM     19  O   LIG A   1      -9.873  -1.218 125.639  0.00  0.00    -0.506 OA
ATOM     20  H   LIG A   1      -9.652  -1.939 125.032  0.00  0.00    +0.292 HD
ENDBRANCH   4  19
BRANCH   3  21
ATOM     21  C   LIG A   1      -7.014  -1.897 126.170  0.00  0.00    +0.069 C 
BRANCH  21  22
ATOM     22  C   LIG A   1      -7.025  -2.177 127.651  0.00  0.00    -0.023 C 
ATOM     23  C   LIG A   1      -7.800  -3.051 128.325  0.00  0.00    -0.079 C 
ATOM     24  C   LIG A   1      -8.904  -3.878 127.727  0.00  0.00    +0.038 C 
ATOM     25  C   LIG A   1      -7.586  -3.298 129.798  0.00  0.00    +0.038 C 
ENDBRANCH  21  22
ENDBRANCH   3  21
TORSDOF 7
ENDMDL
MODEL 5
REMARK VINA RESULT:      -7.4      1.928      3.090
REMARK  Name = NuBBE_2398
REMARK  9 active torsions:
REMARK  status: ('A' for Active; 'I' for Inactive)
REMARK    1  A    between atoms: C_1  and  C_3
REMARK    2  A    between atoms: C_1  and  C_11
REMARK    3  A    between atoms: C_4  and  C_5
REMARK    4  A    between atoms: C_12  and  O_13
REMARK    5  A    between atoms: C_14  and  C_15
REMARK    6  A    between atoms: C_15  and  C_16
REMARK    7  A    between atoms: C_17  and  C_18
REMARK    8  A    between atoms: C_17  and  C_19
REMARK    9  A    between atoms: C_20  and  O_23
REMARK                            x       y       z     vdW  Elec       q    Type
REMARK                         _______ _______ _______ _____ _____    ______ ____
ROOT
ATOM      1  C   LIG A   1      -7.204   1.790 125.494  0.00  0.00    +0.064 A 
ATOM      2  C   LIG A   1      -8.025   0.685 125.824  0.00  0.00    +0.135 A 
ATOM      3  C   LIG A   1      -7.490  -0.530 126.310  0.00  0.00    +0.040 A 
ATOM      4  C   LIG A   1      -6.098  -0.607 126.456  0.00  0.00    +0.124 A 
ATOM      5  C   LIG A   1      -5.276   0.467 126.114  0.00  0.00    +0.046 A 
ATOM      6  C   LIG A   1      -5.821   1.661 125.640  0.00  0.00    +0.019 A 
ENDROOT
BRANCH   1   7
ATOM      7  C   LIG A   1      -7.846   3.064 125.045  0.00  0.00    +0.190 C 
ATOM      8  O   LIG A   1      -8.799   3.495 125.679  0.00  0.00    -0.287 OA
BRANCH   7   9
ATOM      9  C   LIG A   1      -7.352   3.750 123.812  0.00  0.00    +0.052 C 
ATOM     10  C   LIG A   1      -7.364   3.093 122.640  0.00  0.00    +0.012 C 
BRANCH  10  11
ATOM     11  C   LIG A   1      -6.927   3.703 121.379  0.00  0.00    -0.025 A 
ATOM     12  C   LIG A   1      -5.612   4.164 121.249  0.00  0.00    +0.008 A 
ATOM     13  C   LIG A   1      -5.202   4.814 120.082  0.00  0.00    +0.001 A 
ATOM     14  C   LIG A   1      -6.104   5.005 119.036  0.00  0.00    +0.000 A 
ATOM     15  C   LIG A   1      -7.413   4.540 119.154  0.00  0.00    +0.001 A 
ATOM     16  C   LIG A   1      -7.824   3.888 120.322  0.00  0.00    +0.008 A 
ENDBRANCH  10  11
ENDBRANCH   7   9
ENDBRANCH   1   7
BRANCH   2  17
ATOM     17  O   LIG A   1      -9.393   0.747 125.671  0.00  0.00    -0.506 OA
ATOM     18  H   LIG A   1      -9.626   0.360 124.797  0.00  0.00    +0.292 HD
ENDBRANCH   2  17
BRANCH   4  19
ATOM     19  O   LIG A   1      -5.437  -1.696 126.951  0.00  0.00    -0.506 OA
ATOM     20  H   LIG A   1      -5.078  -2.224 126.224  0.00  0.00    +0.292 HD
ENDBRANCH   4  19
BRANCH   3  21
ATOM     21  C   LIG A   1      -8.407  -1.689 126.640  0.00  0.00    +0.069 C 
BRANCH  21  22
ATOM     22  C   LIG A   1      -9.168  -2.203 125.446  0.00  0.00    -0.023 C 
ATOM     23  C   LIG A   1      -8.747  -3.071 124.502  0.00  0.00    -0.079 C 
ATOM     24  C   LIG A   1      -7.360  -3.641 124.401  0.00  0.00    +0.038 C 
ATOM     25  C   LIG A   1      -9.691  -3.581 123.443  0.00  0.00    +0.038 C 
ENDBRANCH  21  22
ENDBRANCH   3  21
TORSDOF 7
ENDMDL
MODEL 6
REMARK VINA RESULT:      -7.2      5.053      8.567
REMARK  Name = NuBBE_2398
REMARK  9 active torsions:
REMARK  status: ('A' for Active; 'I' for Inactive)
REMARK    1  A    between atoms: C_1  and  C_3
REMARK    2  A    between atoms: C_1  and  C_11
REMARK    3  A    between atoms: C_4  and  C_5
REMARK    4  A    between atoms: C_12  and  O_13
REMARK    5  A    between atoms: C_14  and  C_15
REMARK    6  A    between atoms: C_15  and  C_16
REMARK    7  A    between atoms: C_17  and  C_18
REMARK    8  A    between atoms: C_17  and  C_19
REMARK    9  A    between atoms: C_20  and  O_23
REMARK                            x       y       z     vdW  Elec       q    Type
REMARK                         _______ _______ _______ _____ _____    ______ ____
ROOT
ATOM      1  C   LIG A   1      -7.470  -3.016 129.267  0.00  0.00    +0.064 A 
ATOM      2  C   LIG A   1      -6.633  -2.479 128.261  0.00  0.00    +0.135 A 
ATOM      3  C   LIG A   1      -7.006  -2.476 126.896  0.00  0.00    +0.040 A 
ATOM      4  C   LIG A   1      -8.249  -3.033 126.567  0.00  0.00    +0.124 A 
ATOM      5  C   LIG A   1      -9.074  -3.586 127.548  0.00  0.00    +0.046 A 
ATOM      6  C   LIG A   1      -8.693  -3.576 128.891  0.00  0.00    +0.019 A 
ENDROOT
BRANCH   1   7
ATOM      7  C   LIG A   1      -7.037  -2.927 130.697  0.00  0.00    +0.190 C 
ATOM      8  O   LIG A   1      -6.299  -3.796 131.139  0.00  0.00    -0.287 OA
BRANCH   7   9
ATOM      9  C   LIG A   1      -7.553  -1.823 131.562  0.00  0.00    +0.052 C 
ATOM     10  C   LIG A   1      -7.566  -0.564 131.091  0.00  0.00    +0.012 C 
BRANCH  10  11
ATOM     11  C   LIG A   1      -8.084   0.571 131.861  0.00  0.00    -0.025 A 
ATOM     12  C   LIG A   1      -9.412   0.980 131.687  0.00  0.00    +0.008 A 
ATOM     13  C   LIG A   1      -9.899   2.105 132.358  0.00  0.00    +0.001 A 
ATOM     14  C   LIG A   1      -9.063   2.828 133.208  0.00  0.00    +0.000 A 
ATOM     15  C   LIG A   1      -7.742   2.420 133.394  0.00  0.00    +0.001 A 
ATOM     16  C   LIG A   1      -7.254   1.294 132.724  0.00  0.00    +0.008 A 
ENDBRANCH  10  11
ENDBRANCH   7   9
ENDBRANCH   1   7
BRANCH   2  17
ATOM     17  O   LIG A   1      -5.404  -1.941 128.572  0.00  0.00    -0.506 OA
ATOM     18  H   LIG A   1      -4.877  -2.623 129.046  0.00  0.00    +0.292 HD
ENDBRANCH   2  17
BRANCH   4  19
ATOM     19  O   LIG A   1      -8.766  -3.068 125.302  0.00  0.00    -0.506 OA
ATOM     20  H   LIG A   1      -8.225  -2.526 124.710  0.00  0.00    +0.292 HD
ENDBRANCH   4  19
BRANCH   3  21
ATOM     21  C   LIG A   1      -6.073  -1.899 125.853  0.00  0.00    +0.069 C 
BRANCH  21  22
ATOM     22  C   LIG A   1      -5.231  -2.943 125.165  0.00  0.00    -0.023 C 
ATOM     23  C   LIG A   1      -5.086  -3.154 123.840  0.00  0.00    -0.079 C 
ATOM     24  C   LIG A   1      -5.831  -2.425 122.756  0.00  0.00    +0.038 C 
ATOM     25  C   LIG A   1      -4.095  -4.165 123.321  0.00  0.00    +0.038 C 
ENDBRANCH  21  22
ENDBRANCH   3  21
TORSDOF 7
ENDMDL
MODEL 7
REMARK VINA RESULT:      -7.2      5.832      9.756
REMARK  Name = NuBBE_2398
REMARK  9 active torsions:
REMARK  status: ('A' for Active; 'I' for Inactive)
REMARK    1  A    between atoms: C_1  and  C_3
REMARK    2  A    between atoms: C_1  and  C_11
REMARK    3  A    between atoms: C_4  and  C_5
REMARK    4  A    between atoms: C_12  and  O_13
REMARK    5  A    between atoms: C_14  and  C_15
REMARK    6  A    between atoms: C_15  and  C_16
REMARK    7  A    between atoms: C_17  and  C_18
REMARK    8  A    between atoms: C_17  and  C_19
REMARK    9  A    between atoms: C_20  and  O_23
REMARK                            x       y       z     vdW  Elec       q    Type
REMARK                         _______ _______ _______ _____ _____    ______ ____
ROOT
ATOM      1  C   LIG A   1      -8.555   3.415 129.767  0.00  0.00    +0.064 A 
ATOM      2  C   LIG A   1      -9.011   4.733 129.532  0.00  0.00    +0.135 A 
ATOM      3  C   LIG A   1      -9.650   5.497 130.537  0.00  0.00    +0.040 A 
ATOM      4  C   LIG A   1      -9.822   4.895 131.791  0.00  0.00    +0.124 A 
ATOM      5  C   LIG A   1      -9.396   3.588 132.028  0.00  0.00    +0.046 A 
ATOM      6  C   LIG A   1      -8.762   2.850 131.027  0.00  0.00    +0.019 A 
ENDROOT
BRANCH   1   7
ATOM      7  C   LIG A   1      -7.832   2.691 128.675  0.00  0.00    +0.190 C 
ATOM      8  O   LIG A   1      -6.943   3.277 128.074  0.00  0.00    -0.287 OA
BRANCH   7   9
ATOM      9  C   LIG A   1      -8.242   1.301 128.307  0.00  0.00    +0.052 C 
ATOM     10  C   LIG A   1      -7.472   0.264 128.678  0.00  0.00    +0.012 C 
BRANCH  10  11
ATOM     11  C   LIG A   1      -7.817  -1.131 128.386  0.00  0.00    -0.025 A 
ATOM     12  C   LIG A   1      -8.154  -1.505 127.080  0.00  0.00    +0.008 A 
ATOM     13  C   LIG A   1      -8.558  -2.813 126.800  0.00  0.00    +0.001 A 
ATOM     14  C   LIG A   1      -8.626  -3.757 127.824  0.00  0.00    +0.000 A 
ATOM     15  C   LIG A   1      -8.282  -3.394 129.126  0.00  0.00    +0.001 A 
ATOM     16  C   LIG A   1      -7.877  -2.085 129.407  0.00  0.00    +0.008 A 
ENDBRANCH  10  11
ENDBRANCH   7   9
ENDBRANCH   1   7
BRANCH   2  17
ATOM     17  O   LIG A   1      -8.860   5.329 128.299  0.00  0.00    -0.506 OA
ATOM     18  H   LIG A   1      -9.664   5.143 127.764  0.00  0.00    +0.292 HD
ENDBRANCH   2  17
BRANCH   4  19
ATOM     19  O   LIG A   1     -10.382   5.517 132.872  0.00  0.00    -0.506 OA
ATOM     20  H   LIG A   1     -11.059   6.144 132.578  0.00  0.00    +0.292 HD
ENDBRANCH   4  19
BRANCH   3  21
ATOM     21  C   LIG A   1     -10.131   6.901 130.237  0.00  0.00    +0.069 C 
BRANCH  21  22
ATOM     22  C   LIG A   1     -11.537   6.945 129.695  0.00  0.00    -0.023 C 
ATOM     23  C   LIG A   1     -11.962   7.476 128.530  0.00  0.00    -0.079 C 
ATOM     24  C   LIG A   1     -11.105   8.233 127.554  0.00  0.00    +0.038 C 
ATOM     25  C   LIG A   1     -13.393   7.315 128.083  0.00  0.00    +0.038 C 
ENDBRANCH  21  22
ENDBRANCH   3  21
TORSDOF 7
ENDMDL
MODEL 8
REMARK VINA RESULT:      -7.2      1.950      3.362
REMARK  Name = NuBBE_2398
REMARK  9 active torsions:
REMARK  status: ('A' for Active; 'I' for Inactive)
REMARK    1  A    between atoms: C_1  and  C_3
REMARK    2  A    between atoms: C_1  and  C_11
REMARK    3  A    between atoms: C_4  and  C_5
REMARK    4  A    between atoms: C_12  and  O_13
REMARK    5  A    between atoms: C_14  and  C_15
REMARK    6  A    between atoms: C_15  and  C_16
REMARK    7  A    between atoms: C_17  and  C_18
REMARK    8  A    between atoms: C_17  and  C_19
REMARK    9  A    between atoms: C_20  and  O_23
REMARK                            x       y       z     vdW  Elec       q    Type
REMARK                         _______ _______ _______ _____ _____    ______ ____
ROOT
ATOM      1  C   LIG A   1      -7.601   1.270 125.226  0.00  0.00    +0.064 A 
ATOM      2  C   LIG A   1      -7.714  -0.137 125.136  0.00  0.00    +0.135 A 
ATOM      3  C   LIG A   1      -6.842  -1.006 125.833  0.00  0.00    +0.040 A 
ATOM      4  C   LIG A   1      -5.846  -0.419 126.625  0.00  0.00    +0.124 A 
ATOM      5  C   LIG A   1      -5.711   0.967 126.704  0.00  0.00    +0.046 A 
ATOM      6  C   LIG A   1      -6.583   1.811 126.014  0.00  0.00    +0.019 A 
ENDROOT
BRANCH   1   7
ATOM      7  C   LIG A   1      -8.599   2.127 124.510  0.00  0.00    +0.190 C 
ATOM      8  O   LIG A   1      -9.723   2.230 124.978  0.00  0.00    -0.287 OA
BRANCH   7   9
ATOM      9  C   LIG A   1      -8.223   2.787 123.223  0.00  0.00    +0.052 C 
ATOM     10  C   LIG A   1      -6.970   3.242 123.054  0.00  0.00    +0.012 C 
BRANCH  10  11
ATOM     11  C   LIG A   1      -6.510   3.872 121.811  0.00  0.00    -0.025 A 
ATOM     12  C   LIG A   1      -7.343   3.878 120.686  0.00  0.00    +0.008 A 
ATOM     13  C   LIG A   1      -6.891   4.407 119.474  0.00  0.00    +0.001 A 
ATOM     14  C   LIG A   1      -5.604   4.936 119.380  0.00  0.00    +0.000 A 
ATOM     15  C   LIG A   1      -4.773   4.943 120.500  0.00  0.00    +0.001 A 
ATOM     16  C   LIG A   1      -5.224   4.414 121.714  0.00  0.00    +0.008 A 
ENDBRANCH  10  11
ENDBRANCH   7   9
ENDBRANCH   1   7
BRANCH   2  17
ATOM     17  O   LIG A   1      -8.681  -0.724 124.349  0.00  0.00    -0.506 OA
ATOM     18  H   LIG A   1      -8.584  -1.701 124.415  0.00  0.00    +0.292 HD
ENDBRANCH   2  17
BRANCH   4  19
ATOM     19  O   LIG A   1      -4.957  -1.123 127.388  0.00  0.00    -0.506 OA
ATOM     20  H   LIG A   1      -4.438  -0.516 127.935  0.00  0.00    +0.292 HD
ENDBRANCH   4  19
BRANCH   3  21
ATOM     21  C   LIG A   1      -6.994  -2.506 125.698  0.00  0.00    +0.069 C 
BRANCH  21  22
ATOM     22  C   LIG A   1      -5.802  -3.170 125.058  0.00  0.00    -0.023 C 
ATOM     23  C   LIG A   1      -5.359  -3.039 123.791  0.00  0.00    -0.079 C 
ATOM     24  C   LIG A   1      -6.041  -2.252 122.707  0.00  0.00    +0.038 C 
ATOM     25  C   LIG A   1      -4.066  -3.680 123.352  0.00  0.00    +0.038 C 
ENDBRANCH  21  22
ENDBRANCH   3  21
TORSDOF 7
ENDMDL
MODEL 9
REMARK VINA RESULT:      -7.1      1.931      8.036
REMARK  Name = NuBBE_2398
REMARK  9 active torsions:
REMARK  status: ('A' for Active; 'I' for Inactive)
REMARK    1  A    between atoms: C_1  and  C_3
REMARK    2  A    between atoms: C_1  and  C_11
REMARK    3  A    between atoms: C_4  and  C_5
REMARK    4  A    between atoms: C_12  and  O_13
REMARK    5  A    between atoms: C_14  and  C_15
REMARK    6  A    between atoms: C_15  and  C_16
REMARK    7  A    between atoms: C_17  and  C_18
REMARK    8  A    between atoms: C_17  and  C_19
REMARK    9  A    between atoms: C_20  and  O_23
REMARK                            x       y       z     vdW  Elec       q    Type
REMARK                         _______ _______ _______ _____ _____    ______ ____
ROOT
ATOM      1  C   LIG A   1      -7.396  -1.387 123.815  0.00  0.00    +0.064 A 
ATOM      2  C   LIG A   1      -7.491   0.024 123.863  0.00  0.00    +0.135 A 
ATOM      3  C   LIG A   1      -8.629   0.716 123.385  0.00  0.00    +0.040 A 
ATOM      4  C   LIG A   1      -9.673  -0.052 122.852  0.00  0.00    +0.124 A 
ATOM      5  C   LIG A   1      -9.581  -1.442 122.779  0.00  0.00    +0.046 A 
ATOM      6  C   LIG A   1      -8.453  -2.110 123.260  0.00  0.00    +0.019 A 
ENDROOT
BRANCH   1   7
ATOM      7  C   LIG A   1      -6.189  -2.054 124.397  0.00  0.00    +0.190 C 
ATOM      8  O   LIG A   1      -5.166  -2.097 123.728  0.00  0.00    -0.287 OA
BRANCH   7   9
ATOM      9  C   LIG A   1      -6.271  -2.694 125.744  0.00  0.00    +0.052 C 
ATOM     10  C   LIG A   1      -6.053  -1.953 126.844  0.00  0.00    +0.012 C 
BRANCH  10  11
ATOM     11  C   LIG A   1      -6.146  -2.495 128.204  0.00  0.00    -0.025 A 
ATOM     12  C   LIG A   1      -4.979  -2.852 128.890  0.00  0.00    +0.008 A 
ATOM     13  C   LIG A   1      -5.056  -3.439 130.156  0.00  0.00    +0.001 A 
ATOM     14  C   LIG A   1      -6.298  -3.671 130.745  0.00  0.00    +0.000 A 
ATOM     15  C   LIG A   1      -7.464  -3.308 130.071  0.00  0.00    +0.001 A 
ATOM     16  C   LIG A   1      -7.389  -2.720 128.804  0.00  0.00    +0.008 A 
ENDBRANCH  10  11
ENDBRANCH   7   9
ENDBRANCH   1   7
BRANCH   2  17
ATOM     17  O   LIG A   1      -6.465   0.789 124.372  0.00  0.00    -0.506 OA
ATOM     18  H   LIG A   1      -6.855   1.566 124.832  0.00  0.00    +0.292 HD
ENDBRANCH   2  17
BRANCH   4  19
ATOM     19  O   LIG A   1     -10.850   0.467 122.390  0.00  0.00    -0.506 OA
ATOM     20  H   LIG A   1     -11.194  -0.083 121.671  0.00  0.00    +0.292 HD
ENDBRANCH   4  19
BRANCH   3  21
ATOM     21  C   LIG A   1      -8.682   2.228 123.448  0.00  0.00    +0.069 C 
BRANCH  21  22
ATOM     22  C   LIG A   1      -8.347   2.890 122.136  0.00  0.00    -0.023 C 
ATOM     23  C   LIG A   1      -7.203   3.514 121.788  0.00  0.00    -0.079 C 
ATOM     24  C   LIG A   1      -6.034   3.761 122.700  0.00  0.00    +0.038 C 
ATOM     25  C   LIG A   1      -6.989   4.010 120.380  0.00  0.00    +0.038 C 
ENDBRANCH  21  22
ENDBRANCH   3  21
TORSDOF 7
ENDMDL
