MODEL 1
REMARK VINA RESULT:      -6.8      0.000      0.000
REMARK  Name = NuBBE_1192
REMARK  6 active torsions:
REMARK  status: ('A' for Active; 'I' for Inactive)
REMARK    1  A    between atoms: C_7  and  C_12
REMARK    2  A    between atoms: C_8  and  O_9
REMARK    3  A    between atoms: O_9  and  C_10
REMARK    4  A    between atoms: C_12  and  C_13
REMARK    5  A    between atoms: C_14  and  C_15
REMARK    6  A    between atoms: C_14  and  C_16
REMARK                            x       y       z     vdW  Elec       q    Type
REMARK                         _______ _______ _______ _____ _____    ______ ____
ROOT
ATOM      1  O   LIG A   1      -4.495   6.234 120.476  0.00  0.00    -0.245 OA
ATOM      2  C   LIG A   1      -5.058   5.294 121.019  0.00  0.00    +0.337 A 
ATOM      3  C   LIG A   1      -5.862   4.338 120.234  0.00  0.00    +0.092 A 
ATOM      4  C   LIG A   1      -6.475   3.289 120.789  0.00  0.00    +0.018 A 
ATOM      5  C   LIG A   1      -6.346   3.057 122.219  0.00  0.00    +0.018 A 
ATOM      6  C   LIG A   1      -6.912   1.947 122.848  0.00  0.00    +0.019 A 
ATOM      7  C   LIG A   1      -6.729   1.735 124.230  0.00  0.00    -0.001 A 
ATOM      8  C   LIG A   1      -6.025   2.689 124.991  0.00  0.00    +0.127 A 
ATOM      9  C   LIG A   1      -5.454   3.796 124.362  0.00  0.00    +0.092 A 
ATOM     10  C   LIG A   1      -5.615   3.958 122.985  0.00  0.00    +0.142 A 
ATOM     11  O   LIG A   1      -4.987   5.071 122.390  0.00  0.00    -0.422 OA
ENDROOT
BRANCH   8  12
ATOM     12  O   LIG A   1      -5.888   2.420 126.328  0.00  0.00    -0.495 OA
ATOM     13  C   LIG A   1      -4.557   2.231 126.798  0.00  0.00    +0.277 C 
ENDBRANCH   8  12
BRANCH   7  14
ATOM     14  C   LIG A   1      -7.299   0.481 124.865  0.00  0.00    +0.066 C 
BRANCH  14  15
ATOM     15  C   LIG A   1      -6.335  -0.676 124.841  0.00  0.00    -0.023 C 
ATOM     16  C   LIG A   1      -6.240  -1.659 123.925  0.00  0.00    -0.079 C 
ATOM     17  C   LIG A   1      -7.115  -1.802 122.711  0.00  0.00    +0.038 C 
ATOM     18  C   LIG A   1      -5.200  -2.740 124.062  0.00  0.00    +0.038 C 
ENDBRANCH  14  15
ENDBRANCH   7  14
TORSDOF 3
ENDMDL
MODEL 2
REMARK VINA RESULT:      -6.8      2.826      4.096
REMARK  Name = NuBBE_1192
REMARK  6 active torsions:
REMARK  status: ('A' for Active; 'I' for Inactive)
REMARK    1  A    between atoms: C_7  and  C_12
REMARK    2  A    between atoms: C_8  and  O_9
REMARK    3  A    between atoms: O_9  and  C_10
REMARK    4  A    between atoms: C_12  and  C_13
REMARK    5  A    between atoms: C_14  and  C_15
REMARK    6  A    between atoms: C_14  and  C_16
REMARK                            x       y       z     vdW  Elec       q    Type
REMARK                         _______ _______ _______ _____ _____    ______ ____
ROOT
ATOM      1  O   LIG A   1      -7.536   4.419 118.658  0.00  0.00    -0.245 OA
ATOM      2  C   LIG A   1      -7.116   4.221 119.789  0.00  0.00    +0.337 A 
ATOM      3  C   LIG A   1      -5.711   4.511 120.135  0.00  0.00    +0.092 A 
ATOM      4  C   LIG A   1      -5.220   4.326 121.363  0.00  0.00    +0.018 A 
ATOM      5  C   LIG A   1      -6.093   3.831 122.417  0.00  0.00    +0.018 A 
ATOM      6  C   LIG A   1      -5.656   3.673 123.733  0.00  0.00    +0.019 A 
ATOM      7  C   LIG A   1      -6.545   3.230 124.735  0.00  0.00    -0.001 A 
ATOM      8  C   LIG A   1      -7.865   2.881 124.387  0.00  0.00    +0.127 A 
ATOM      9  C   LIG A   1      -8.303   3.044 123.071  0.00  0.00    +0.092 A 
ATOM     10  C   LIG A   1      -7.414   3.525 122.110  0.00  0.00    +0.142 A 
ATOM     11  O   LIG A   1      -7.915   3.709 120.804  0.00  0.00    -0.422 OA
ENDROOT
BRANCH   8  12
ATOM     12  O   LIG A   1      -8.671   2.456 125.410  0.00  0.00    -0.495 OA
ATOM     13  C   LIG A   1      -9.408   1.261 125.174  0.00  0.00    +0.277 C 
ENDBRANCH   8  12
BRANCH   7  14
ATOM     14  C   LIG A   1      -6.054   3.138 126.166  0.00  0.00    +0.066 C 
BRANCH  14  15
ATOM     15  C   LIG A   1      -4.581   2.841 126.261  0.00  0.00    -0.023 C 
ATOM     16  C   LIG A   1      -3.607   3.619 126.774  0.00  0.00    -0.079 C 
ATOM     17  C   LIG A   1      -3.810   4.986 127.365  0.00  0.00    +0.038 C 
ATOM     18  C   LIG A   1      -2.176   3.149 126.791  0.00  0.00    +0.038 C 
ENDBRANCH  14  15
ENDBRANCH   7  14
TORSDOF 3
ENDMDL
MODEL 3
REMARK VINA RESULT:      -6.8      9.753     10.873
REMARK  Name = NuBBE_1192
REMARK  6 active torsions:
REMARK  status: ('A' for Active; 'I' for Inactive)
REMARK    1  A    between atoms: C_7  and  C_12
REMARK    2  A    between atoms: C_8  and  O_9
REMARK    3  A    between atoms: O_9  and  C_10
REMARK    4  A    between atoms: C_12  and  C_13
REMARK    5  A    between atoms: C_14  and  C_15
REMARK    6  A    between atoms: C_14  and  C_16
REMARK                            x       y       z     vdW  Elec       q    Type
REMARK                         _______ _______ _______ _____ _____    ______ ____
ROOT
ATOM      1  O   LIG A   1     -13.479   7.061 131.279  0.00  0.00    -0.245 OA
ATOM      2  C   LIG A   1     -12.262   6.970 131.192  0.00  0.00    +0.337 A 
ATOM      3  C   LIG A   1     -11.546   7.499 130.017  0.00  0.00    +0.092 A 
ATOM      4  C   LIG A   1     -10.217   7.435 129.896  0.00  0.00    +0.018 A 
ATOM      5  C   LIG A   1      -9.428   6.834 130.960  0.00  0.00    +0.018 A 
ATOM      6  C   LIG A   1      -8.034   6.791 130.920  0.00  0.00    +0.019 A 
ATOM      7  C   LIG A   1      -7.303   6.238 131.993  0.00  0.00    -0.001 A 
ATOM      8  C   LIG A   1      -7.993   5.664 133.079  0.00  0.00    +0.127 A 
ATOM      9  C   LIG A   1      -9.387   5.712 133.122  0.00  0.00    +0.092 A 
ATOM     10  C   LIG A   1     -10.082   6.304 132.067  0.00  0.00    +0.142 A 
ATOM     11  O   LIG A   1     -11.487   6.363 132.174  0.00  0.00    -0.422 OA
ENDROOT
BRANCH   8  12
ATOM     12  O   LIG A   1      -7.220   5.142 134.083  0.00  0.00    -0.495 OA
ATOM     13  C   LIG A   1      -7.566   5.528 135.409  0.00  0.00    +0.277 C 
ENDBRANCH   8  12
BRANCH   7  14
ATOM     14  C   LIG A   1      -5.788   6.272 131.947  0.00  0.00    +0.066 C 
BRANCH  14  15
ATOM     15  C   LIG A   1      -5.257   7.003 130.743  0.00  0.00    -0.023 C 
ATOM     16  C   LIG A   1      -4.113   7.707 130.637  0.00  0.00    -0.079 C 
ATOM     17  C   LIG A   1      -3.114   7.913 131.741  0.00  0.00    +0.038 C 
ATOM     18  C   LIG A   1      -3.736   8.372 129.338  0.00  0.00    +0.038 C 
ENDBRANCH  14  15
ENDBRANCH   7  14
TORSDOF 3
ENDMDL
MODEL 4
REMARK VINA RESULT:      -6.7      9.117      9.900
REMARK  Name = NuBBE_1192
REMARK  6 active torsions:
REMARK  status: ('A' for Active; 'I' for Inactive)
REMARK    1  A    between atoms: C_7  and  C_12
REMARK    2  A    between atoms: C_8  and  O_9
REMARK    3  A    between atoms: O_9  and  C_10
REMARK    4  A    between atoms: C_12  and  C_13
REMARK    5  A    between atoms: C_14  and  C_15
REMARK    6  A    between atoms: C_14  and  C_16
REMARK                            x       y       z     vdW  Elec       q    Type
REMARK                         _______ _______ _______ _____ _____    ______ ____
ROOT
ATOM      1  O   LIG A   1     -13.885   7.315 127.680  0.00  0.00    -0.245 OA
ATOM      2  C   LIG A   1     -12.799   7.274 128.240  0.00  0.00    +0.337 A 
ATOM      3  C   LIG A   1     -11.818   8.362 128.069  0.00  0.00    +0.092 A 
ATOM      4  C   LIG A   1     -10.630   8.361 128.678  0.00  0.00    +0.018 A 
ATOM      5  C   LIG A   1     -10.276   7.259 129.559  0.00  0.00    +0.018 A 
ATOM      6  C   LIG A   1      -9.077   7.229 130.271  0.00  0.00    +0.019 A 
ATOM      7  C   LIG A   1      -8.790   6.162 131.148  0.00  0.00    -0.001 A 
ATOM      8  C   LIG A   1      -9.694   5.086 131.252  0.00  0.00    +0.127 A 
ATOM      9  C   LIG A   1     -10.897   5.119 130.544  0.00  0.00    +0.092 A 
ATOM     10  C   LIG A   1     -11.173   6.208 129.717  0.00  0.00    +0.142 A 
ATOM     11  O   LIG A   1     -12.417   6.213 129.053  0.00  0.00    -0.422 OA
ENDROOT
BRANCH   8  12
ATOM     12  O   LIG A   1      -9.350   4.083 132.120  0.00  0.00    -0.495 OA
ATOM     13  C   LIG A   1      -9.563   2.753 131.659  0.00  0.00    +0.277 C 
ENDBRANCH   8  12
BRANCH   7  14
ATOM     14  C   LIG A   1      -7.508   6.198 131.958  0.00  0.00    +0.066 C 
BRANCH  14  15
ATOM     15  C   LIG A   1      -6.378   6.879 131.234  0.00  0.00    -0.023 C 
ATOM     16  C   LIG A   1      -5.065   6.859 131.535  0.00  0.00    -0.079 C 
ATOM     17  C   LIG A   1      -4.454   6.133 132.701  0.00  0.00    +0.038 C 
ATOM     18  C   LIG A   1      -4.068   7.601 130.684  0.00  0.00    +0.038 C 
ENDBRANCH  14  15
ENDBRANCH   7  14
TORSDOF 3
ENDMDL
MODEL 5
REMARK VINA RESULT:      -6.5      2.775      5.597
REMARK  Name = NuBBE_1192
REMARK  6 active torsions:
REMARK  status: ('A' for Active; 'I' for Inactive)
REMARK    1  A    between atoms: C_7  and  C_12
REMARK    2  A    between atoms: C_8  and  O_9
REMARK    3  A    between atoms: O_9  and  C_10
REMARK    4  A    between atoms: C_12  and  C_13
REMARK    5  A    between atoms: C_14  and  C_15
REMARK    6  A    between atoms: C_14  and  C_16
REMARK                            x       y       z     vdW  Elec       q    Type
REMARK                         _______ _______ _______ _____ _____    ______ ____
ROOT
ATOM      1  O   LIG A   1     -10.790   0.388 122.514  0.00  0.00    -0.245 OA
ATOM      2  C   LIG A   1      -9.995   1.022 123.192  0.00  0.00    +0.337 A 
ATOM      3  C   LIG A   1     -10.009   0.924 124.664  0.00  0.00    +0.092 A 
ATOM      4  C   LIG A   1      -9.145   1.585 125.438  0.00  0.00    +0.018 A 
ATOM      5  C   LIG A   1      -8.134   2.431 124.822  0.00  0.00    +0.018 A 
ATOM      6  C   LIG A   1      -7.165   3.100 125.572  0.00  0.00    +0.019 A 
ATOM      7  C   LIG A   1      -6.176   3.878 124.934  0.00  0.00    -0.001 A 
ATOM      8  C   LIG A   1      -6.210   4.032 123.533  0.00  0.00    +0.127 A 
ATOM      9  C   LIG A   1      -7.175   3.358 122.784  0.00  0.00    +0.092 A 
ATOM     10  C   LIG A   1      -8.116   2.561 123.438  0.00  0.00    +0.142 A 
ATOM     11  O   LIG A   1      -9.046   1.871 122.634  0.00  0.00    -0.422 OA
ENDROOT
BRANCH   8  12
ATOM     12  O   LIG A   1      -5.221   4.803 122.982  0.00  0.00    -0.495 OA
ATOM     13  C   LIG A   1      -4.857   4.494 121.640  0.00  0.00    +0.277 C 
ENDBRANCH   8  12
BRANCH   7  14
ATOM     14  C   LIG A   1      -5.098   4.533 125.775  0.00  0.00    +0.066 C 
BRANCH  14  15
ATOM     15  C   LIG A   1      -3.848   3.700 125.874  0.00  0.00    -0.023 C 
ATOM     16  C   LIG A   1      -2.817   3.847 126.730  0.00  0.00    -0.079 C 
ATOM     17  C   LIG A   1      -2.708   4.914 127.782  0.00  0.00    +0.038 C 
ATOM     18  C   LIG A   1      -1.642   2.905 126.687  0.00  0.00    +0.038 C 
ENDBRANCH  14  15
ENDBRANCH   7  14
TORSDOF 3
ENDMDL
MODEL 6
REMARK VINA RESULT:      -6.3      9.544     10.433
REMARK  Name = NuBBE_1192
REMARK  6 active torsions:
REMARK  status: ('A' for Active; 'I' for Inactive)
REMARK    1  A    between atoms: C_7  and  C_12
REMARK    2  A    between atoms: C_8  and  O_9
REMARK    3  A    between atoms: O_9  and  C_10
REMARK    4  A    between atoms: C_12  and  C_13
REMARK    5  A    between atoms: C_14  and  C_15
REMARK    6  A    between atoms: C_14  and  C_16
REMARK                            x       y       z     vdW  Elec       q    Type
REMARK                         _______ _______ _______ _____ _____    ______ ____
ROOT
ATOM      1  O   LIG A   1      -2.197   6.104 132.419  0.00  0.00    -0.245 OA
ATOM      2  C   LIG A   1      -3.359   6.330 132.111  0.00  0.00    +0.337 A 
ATOM      3  C   LIG A   1      -3.680   7.181 130.949  0.00  0.00    +0.092 A 
ATOM      4  C   LIG A   1      -4.935   7.434 130.570  0.00  0.00    +0.018 A 
ATOM      5  C   LIG A   1      -6.041   6.848 131.311  0.00  0.00    +0.018 A 
ATOM      6  C   LIG A   1      -7.372   7.026 130.929  0.00  0.00    +0.019 A 
ATOM      7  C   LIG A   1      -8.413   6.405 131.650  0.00  0.00    -0.001 A 
ATOM      8  C   LIG A   1      -8.108   5.656 132.804  0.00  0.00    +0.127 A 
ATOM      9  C   LIG A   1      -6.777   5.473 133.182  0.00  0.00    +0.092 A 
ATOM     10  C   LIG A   1      -5.765   6.064 132.425  0.00  0.00    +0.142 A 
ATOM     11  O   LIG A   1      -4.435   5.818 132.826  0.00  0.00    -0.422 OA
ENDROOT
BRANCH   8  12
ATOM     12  O   LIG A   1      -9.170   5.084 133.456  0.00  0.00    -0.495 OA
ATOM     13  C   LIG A   1      -9.048   3.699 133.760  0.00  0.00    +0.277 C 
ENDBRANCH   8  12
BRANCH   7  14
ATOM     14  C   LIG A   1      -9.841   6.563 131.165  0.00  0.00    +0.066 C 
BRANCH  14  15
ATOM     15  C   LIG A   1      -9.928   7.201 129.804  0.00  0.00    -0.023 C 
ATOM     16  C   LIG A   1     -10.964   7.874 129.266  0.00  0.00    -0.079 C 
ATOM     17  C   LIG A   1     -12.284   8.120 129.942  0.00  0.00    +0.038 C 
ATOM     18  C   LIG A   1     -10.868   8.455 127.879  0.00  0.00    +0.038 C 
ENDBRANCH  14  15
ENDBRANCH   7  14
TORSDOF 3
ENDMDL
MODEL 7
REMARK VINA RESULT:      -6.3      9.287     10.889
REMARK  Name = NuBBE_1192
REMARK  6 active torsions:
REMARK  status: ('A' for Active; 'I' for Inactive)
REMARK    1  A    between atoms: C_7  and  C_12
REMARK    2  A    between atoms: C_8  and  O_9
REMARK    3  A    between atoms: O_9  and  C_10
REMARK    4  A    between atoms: C_12  and  C_13
REMARK    5  A    between atoms: C_14  and  C_15
REMARK    6  A    between atoms: C_14  and  C_16
REMARK                            x       y       z     vdW  Elec       q    Type
REMARK                         _______ _______ _______ _____ _____    ______ ____
ROOT
ATOM      1  O   LIG A   1     -10.824   8.506 128.042  0.00  0.00    -0.245 OA
ATOM      2  C   LIG A   1     -10.546   7.927 129.083  0.00  0.00    +0.337 A 
ATOM      3  C   LIG A   1     -11.606   7.385 129.954  0.00  0.00    +0.092 A 
ATOM      4  C   LIG A   1     -11.341   6.731 131.087  0.00  0.00    +0.018 A 
ATOM      5  C   LIG A   1      -9.958   6.524 131.489  0.00  0.00    +0.018 A 
ATOM      6  C   LIG A   1      -9.615   5.798 132.630  0.00  0.00    +0.019 A 
ATOM      7  C   LIG A   1      -8.261   5.583 132.963  0.00  0.00    -0.001 A 
ATOM      8  C   LIG A   1      -7.251   6.166 132.171  0.00  0.00    +0.127 A 
ATOM      9  C   LIG A   1      -7.595   6.888 131.027  0.00  0.00    +0.092 A 
ATOM     10  C   LIG A   1      -8.941   7.048 130.699  0.00  0.00    +0.142 A 
ATOM     11  O   LIG A   1      -9.235   7.752 129.513  0.00  0.00    -0.422 OA
ENDROOT
BRANCH   8  12
ATOM     12  O   LIG A   1      -5.959   5.919 132.555  0.00  0.00    -0.495 OA
ATOM     13  C   LIG A   1      -5.032   5.654 131.508  0.00  0.00    +0.277 C 
ENDBRANCH   8  12
BRANCH   7  14
ATOM     14  C   LIG A   1      -7.925   4.730 134.170  0.00  0.00    +0.066 C 
BRANCH  14  15
ATOM     15  C   LIG A   1      -7.858   5.525 135.447  0.00  0.00    -0.023 C 
ATOM     16  C   LIG A   1      -6.853   5.574 136.343  0.00  0.00    -0.079 C 
ATOM     17  C   LIG A   1      -5.562   4.811 136.242  0.00  0.00    +0.038 C 
ATOM     18  C   LIG A   1      -6.960   6.440 137.572  0.00  0.00    +0.038 C 
ENDBRANCH  14  15
ENDBRANCH   7  14
TORSDOF 3
ENDMDL
MODEL 8
REMARK VINA RESULT:      -6.3      2.933      6.334
REMARK  Name = NuBBE_1192
REMARK  6 active torsions:
REMARK  status: ('A' for Active; 'I' for Inactive)
REMARK    1  A    between atoms: C_7  and  C_12
REMARK    2  A    between atoms: C_8  and  O_9
REMARK    3  A    between atoms: O_9  and  C_10
REMARK    4  A    between atoms: C_12  and  C_13
REMARK    5  A    between atoms: C_14  and  C_15
REMARK    6  A    between atoms: C_14  and  C_16
REMARK                            x       y       z     vdW  Elec       q    Type
REMARK                         _______ _______ _______ _____ _____    ______ ____
ROOT
ATOM      1  O   LIG A   1      -9.129  -3.690 126.587  0.00  0.00    -0.245 OA
ATOM      2  C   LIG A   1      -9.007  -2.736 125.831  0.00  0.00    +0.337 A 
ATOM      3  C   LIG A   1      -8.941  -2.934 124.370  0.00  0.00    +0.092 A 
ATOM      4  C   LIG A   1      -8.827  -1.917 123.512  0.00  0.00    +0.018 A 
ATOM      5  C   LIG A   1      -8.778  -0.554 124.018  0.00  0.00    +0.018 A 
ATOM      6  C   LIG A   1      -8.720   0.554 123.171  0.00  0.00    +0.019 A 
ATOM      7  C   LIG A   1      -8.716   1.861 123.699  0.00  0.00    -0.001 A 
ATOM      8  C   LIG A   1      -8.702   2.045 125.096  0.00  0.00    +0.127 A 
ATOM      9  C   LIG A   1      -8.766   0.938 125.944  0.00  0.00    +0.092 A 
ATOM     10  C   LIG A   1      -8.812  -0.343 125.392  0.00  0.00    +0.142 A 
ATOM     11  O   LIG A   1      -8.914  -1.427 126.288  0.00  0.00    -0.422 OA
ENDROOT
BRANCH   8  12
ATOM     12  O   LIG A   1      -8.695   3.342 125.539  0.00  0.00    -0.495 OA
ATOM     13  C   LIG A   1      -7.699   3.672 126.501  0.00  0.00    +0.277 C 
ENDBRANCH   8  12
BRANCH   7  14
ATOM     14  C   LIG A   1      -8.724   3.041 122.747  0.00  0.00    +0.066 C 
BRANCH  14  15
ATOM     15  C   LIG A   1      -7.553   3.036 121.801  0.00  0.00    -0.023 C 
ATOM     16  C   LIG A   1      -6.306   3.497 122.019  0.00  0.00    -0.079 C 
ATOM     17  C   LIG A   1      -5.828   4.137 123.292  0.00  0.00    +0.038 C 
ATOM     18  C   LIG A   1      -5.251   3.400 120.948  0.00  0.00    +0.038 C 
ENDBRANCH  14  15
ENDBRANCH   7  14
TORSDOF 3
ENDMDL
MODEL 9
REMARK VINA RESULT:      -6.0      4.715      7.657
REMARK  Name = NuBBE_1192
REMARK  6 active torsions:
REMARK  status: ('A' for Active; 'I' for Inactive)
REMARK    1  A    between atoms: C_7  and  C_12
REMARK    2  A    between atoms: C_8  and  O_9
REMARK    3  A    between atoms: O_9  and  C_10
REMARK    4  A    between atoms: C_12  and  C_13
REMARK    5  A    between atoms: C_14  and  C_15
REMARK    6  A    between atoms: C_14  and  C_16
REMARK                            x       y       z     vdW  Elec       q    Type
REMARK                         _______ _______ _______ _____ _____    ______ ____
ROOT
ATOM      1  O   LIG A   1      -7.809  -0.685 132.026  0.00  0.00    -0.245 OA
ATOM      2  C   LIG A   1      -7.780  -1.233 130.933  0.00  0.00    +0.337 A 
ATOM      3  C   LIG A   1      -7.665  -2.700 130.827  0.00  0.00    +0.092 A 
ATOM      4  C   LIG A   1      -7.649  -3.337 129.653  0.00  0.00    +0.018 A 
ATOM      5  C   LIG A   1      -7.761  -2.572 128.421  0.00  0.00    +0.018 A 
ATOM      6  C   LIG A   1      -7.811  -3.183 127.167  0.00  0.00    +0.019 A 
ATOM      7  C   LIG A   1      -7.963  -2.408 125.998  0.00  0.00    -0.001 A 
ATOM      8  C   LIG A   1      -7.996  -1.002 126.096  0.00  0.00    +0.127 A 
ATOM      9  C   LIG A   1      -7.951  -0.392 127.351  0.00  0.00    +0.092 A 
ATOM     10  C   LIG A   1      -7.844  -1.186 128.493  0.00  0.00    +0.142 A 
ATOM     11  O   LIG A   1      -7.842  -0.525 129.739  0.00  0.00    -0.422 OA
ENDROOT
BRANCH   8  12
ATOM     12  O   LIG A   1      -8.141  -0.314 124.921  0.00  0.00    -0.495 OA
ATOM     13  C   LIG A   1      -9.133   0.708 124.909  0.00  0.00    +0.277 C 
ENDBRANCH   8  12
BRANCH   7  14
ATOM     14  C   LIG A   1      -8.084  -3.110 124.660  0.00  0.00    +0.066 C 
BRANCH  14  15
ATOM     15  C   LIG A   1      -6.903  -3.991 124.353  0.00  0.00    -0.023 C 
ATOM     16  C   LIG A   1      -5.675  -3.622 123.937  0.00  0.00    -0.079 C 
ATOM     17  C   LIG A   1      -5.236  -2.208 123.680  0.00  0.00    +0.038 C 
ATOM     18  C   LIG A   1      -4.605  -4.652 123.686  0.00  0.00    +0.038 C 
ENDBRANCH  14  15
ENDBRANCH   7  14
TORSDOF 3
ENDMDL
