MODEL 1
REMARK VINA RESULT:      -8.8      0.000      0.000
REMARK  Name = NuBBE_1458
REMARK  7 active torsions:
REMARK  status: ('A' for Active; 'I' for Inactive)
REMARK    1  A    between atoms: C_4  and  O_30
REMARK    2  A    between atoms: C_10  and  C_11
REMARK    3  A    between atoms: C_10  and  C_13
REMARK    4  A    between atoms: C_20  and  O_21
REMARK    5  A    between atoms: O_21  and  C_22
REMARK    6  A    between atoms: C_23  and  O_28
REMARK    7  A    between atoms: O_28  and  C_29
REMARK                            x       y       z     vdW  Elec       q    Type
REMARK                         _______ _______ _______ _____ _____    ______ ____
ROOT
ATOM      1  O   LIG A   1      -7.690   5.021 133.522  0.00  0.00    -0.286 OA
ATOM      2  C   LIG A   1      -7.639   5.732 132.523  0.00  0.00    +0.204 A 
ATOM      3  C   LIG A   1      -8.893   6.078 131.831  0.00  0.00    +0.107 A 
ATOM      4  C   LIG A   1     -10.136   5.694 132.346  0.00  0.00    +0.135 A 
ATOM      5  C   LIG A   1     -11.309   6.086 131.711  0.00  0.00    +0.092 A 
ATOM      6  C   LIG A   1     -11.243   6.874 130.563  0.00  0.00    +0.136 A 
ATOM      7  C   LIG A   1     -10.007   7.236 130.011  0.00  0.00    +0.060 A 
ATOM      8  C   LIG A   1      -9.993   8.022 128.781  0.00  0.00    +0.015 C 
ATOM      9  C   LIG A   1     -11.147   8.553 128.363  0.00  0.00    +0.020 C 
ATOM     10  C   LIG A   1     -12.451   8.354 129.102  0.00  0.00    +0.123 C 
ATOM     11  C   LIG A   1     -13.570   8.063 128.095  0.00  0.00    +0.060 C 
ATOM     12  O   LIG A   1     -12.446   7.236 130.015  0.00  0.00    -0.481 OA
ATOM     13  C   LIG A   1     -12.797   9.616 129.903  0.00  0.00    +0.060 C 
ATOM     14  C   LIG A   1      -8.827   6.830 130.659  0.00  0.00    +0.153 A 
ATOM     15  O   LIG A   1      -7.626   7.206 130.108  0.00  0.00    -0.455 OA
ATOM     16  C   LIG A   1      -6.467   6.989 130.825  0.00  0.00    +0.154 A 
ATOM     17  C   LIG A   1      -6.382   6.307 131.979  0.00  0.00    +0.075 A 
ATOM     18  C   LIG A   1      -5.055   6.234 132.619  0.00  0.00    +0.035 A 
ATOM     19  C   LIG A   1      -4.745   5.368 133.676  0.00  0.00    +0.061 A 
ATOM     20  C   LIG A   1      -3.498   5.421 134.317  0.00  0.00    +0.162 A 
ATOM     21  C   LIG A   1      -2.529   6.340 133.886  0.00  0.00    +0.165 A 
ATOM     22  C   LIG A   1      -2.810   7.179 132.808  0.00  0.00    +0.095 A 
ATOM     23  C   LIG A   1      -4.055   7.116 132.181  0.00  0.00    +0.133 A 
ATOM     24  O   LIG A   1      -4.245   8.003 131.152  0.00  0.00    -0.484 OA
ATOM     25  C   LIG A   1      -5.249   7.615 130.207  0.00  0.00    +0.303 C 
ENDROOT
BRANCH  20  26
ATOM     26  O   LIG A   1      -3.146   4.599 135.359  0.00  0.00    -0.491 OA
ATOM     27  C   LIG A   1      -4.088   4.497 136.420  0.00  0.00    +0.277 C 
ENDBRANCH  20  26
BRANCH  21  28
ATOM     28  O   LIG A   1      -1.328   6.336 134.550  0.00  0.00    -0.491 OA
ATOM     29  C   LIG A   1      -0.339   7.227 134.045  0.00  0.00    +0.277 C 
ENDBRANCH  21  28
BRANCH   4  30
ATOM     30  O   LIG A   1     -10.278   4.943 133.482  0.00  0.00    -0.506 OA
ATOM     31  H   LIG A   1     -10.173   3.996 133.238  0.00  0.00    +0.292 HD
ENDBRANCH   4  30
TORSDOF 3
ENDMDL
MODEL 2
REMARK VINA RESULT:      -8.2      6.463      9.667
REMARK  Name = NuBBE_1458
REMARK  7 active torsions:
REMARK  status: ('A' for Active; 'I' for Inactive)
REMARK    1  A    between atoms: C_4  and  O_30
REMARK    2  A    between atoms: C_10  and  C_11
REMARK    3  A    between atoms: C_10  and  C_13
REMARK    4  A    between atoms: C_20  and  O_21
REMARK    5  A    between atoms: O_21  and  C_22
REMARK    6  A    between atoms: C_23  and  O_28
REMARK    7  A    between atoms: O_28  and  C_29
REMARK                            x       y       z     vdW  Elec       q    Type
REMARK                         _______ _______ _______ _____ _____    ______ ____
ROOT
ATOM      1  O   LIG A   1      -3.939   2.082 126.193  0.00  0.00    -0.286 OA
ATOM      2  C   LIG A   1      -4.665   2.584 127.046  0.00  0.00    +0.204 A 
ATOM      3  C   LIG A   1      -4.130   3.670 127.885  0.00  0.00    +0.107 A 
ATOM      4  C   LIG A   1      -2.853   4.197 127.663  0.00  0.00    +0.135 A 
ATOM      5  C   LIG A   1      -2.392   5.264 128.426  0.00  0.00    +0.092 A 
ATOM      6  C   LIG A   1      -3.213   5.816 129.410  0.00  0.00    +0.136 A 
ATOM      7  C   LIG A   1      -4.479   5.276 129.672  0.00  0.00    +0.060 A 
ATOM      8  C   LIG A   1      -5.280   5.860 130.744  0.00  0.00    +0.015 C 
ATOM      9  C   LIG A   1      -4.872   7.019 131.272  0.00  0.00    +0.020 C 
ATOM     10  C   LIG A   1      -3.617   7.726 130.814  0.00  0.00    +0.123 C 
ATOM     11  C   LIG A   1      -2.846   8.242 132.035  0.00  0.00    +0.060 C 
ATOM     12  O   LIG A   1      -2.692   6.879 130.098  0.00  0.00    -0.481 OA
ATOM     13  C   LIG A   1      -3.981   8.904 129.901  0.00  0.00    +0.060 C 
ATOM     14  C   LIG A   1      -4.933   4.194 128.897  0.00  0.00    +0.153 A 
ATOM     15  O   LIG A   1      -6.182   3.688 129.164  0.00  0.00    -0.455 OA
ATOM     16  C   LIG A   1      -6.725   2.762 128.296  0.00  0.00    +0.154 A 
ATOM     17  C   LIG A   1      -6.081   2.192 127.264  0.00  0.00    +0.075 A 
ATOM     18  C   LIG A   1      -6.857   1.264 126.419  0.00  0.00    +0.035 A 
ATOM     19  C   LIG A   1      -6.282   0.407 125.471  0.00  0.00    +0.061 A 
ATOM     20  C   LIG A   1      -7.081  -0.373 124.620  0.00  0.00    +0.162 A 
ATOM     21  C   LIG A   1      -8.479  -0.318 124.727  0.00  0.00    +0.165 A 
ATOM     22  C   LIG A   1      -9.061   0.500 125.694  0.00  0.00    +0.095 A 
ATOM     23  C   LIG A   1      -8.255   1.272 126.533  0.00  0.00    +0.133 A 
ATOM     24  O   LIG A   1      -8.924   2.065 127.429  0.00  0.00    -0.484 OA
ATOM     25  C   LIG A   1      -8.162   2.434 128.585  0.00  0.00    +0.303 C 
ENDROOT
BRANCH  20  26
ATOM     26  O   LIG A   1      -6.569  -1.225 123.671  0.00  0.00    -0.491 OA
ATOM     27  C   LIG A   1      -5.586  -2.147 124.127  0.00  0.00    +0.277 C 
ENDBRANCH  20  26
BRANCH  21  28
ATOM     28  O   LIG A   1      -9.200  -1.110 123.869  0.00  0.00    -0.491 OA
ATOM     29  C   LIG A   1      -9.732  -0.456 122.723  0.00  0.00    +0.277 C 
ENDBRANCH  21  28
BRANCH   4  30
ATOM     30  O   LIG A   1      -2.003   3.725 126.699  0.00  0.00    -0.506 OA
ATOM     31  H   LIG A   1      -2.455   3.801 125.828  0.00  0.00    +0.292 HD
ENDBRANCH   4  30
TORSDOF 3
ENDMDL
MODEL 3
REMARK VINA RESULT:      -8.2      6.599      9.646
REMARK  Name = NuBBE_1458
REMARK  7 active torsions:
REMARK  status: ('A' for Active; 'I' for Inactive)
REMARK    1  A    between atoms: C_4  and  O_30
REMARK    2  A    between atoms: C_10  and  C_11
REMARK    3  A    between atoms: C_10  and  C_13
REMARK    4  A    between atoms: C_20  and  O_21
REMARK    5  A    between atoms: O_21  and  C_22
REMARK    6  A    between atoms: C_23  and  O_28
REMARK    7  A    between atoms: O_28  and  C_29
REMARK                            x       y       z     vdW  Elec       q    Type
REMARK                         _______ _______ _______ _____ _____    ______ ____
ROOT
ATOM      1  O   LIG A   1      -5.064   4.388 125.804  0.00  0.00    -0.286 OA
ATOM      2  C   LIG A   1      -6.121   3.864 126.143  0.00  0.00    +0.204 A 
ATOM      3  C   LIG A   1      -6.472   3.831 127.573  0.00  0.00    +0.107 A 
ATOM      4  C   LIG A   1      -5.675   4.466 128.531  0.00  0.00    +0.135 A 
ATOM      5  C   LIG A   1      -6.058   4.477 129.867  0.00  0.00    +0.092 A 
ATOM      6  C   LIG A   1      -7.249   3.860 130.250  0.00  0.00    +0.136 A 
ATOM      7  C   LIG A   1      -8.040   3.186 129.311  0.00  0.00    +0.060 A 
ATOM      8  C   LIG A   1      -9.253   2.516 129.771  0.00  0.00    +0.015 C 
ATOM      9  C   LIG A   1      -9.674   2.764 131.015  0.00  0.00    +0.020 C 
ATOM     10  C   LIG A   1      -8.935   3.690 131.955  0.00  0.00    +0.123 C 
ATOM     11  C   LIG A   1      -8.877   3.061 133.352  0.00  0.00    +0.060 C 
ATOM     12  O   LIG A   1      -7.563   3.938 131.581  0.00  0.00    -0.481 OA
ATOM     13  C   LIG A   1      -9.655   5.043 132.032  0.00  0.00    +0.060 C 
ATOM     14  C   LIG A   1      -7.640   3.177 127.963  0.00  0.00    +0.153 A 
ATOM     15  O   LIG A   1      -8.438   2.521 127.057  0.00  0.00    -0.455 OA
ATOM     16  C   LIG A   1      -8.173   2.664 125.710  0.00  0.00    +0.154 A 
ATOM     17  C   LIG A   1      -7.103   3.288 125.189  0.00  0.00    +0.075 A 
ATOM     18  C   LIG A   1      -7.031   3.381 123.719  0.00  0.00    +0.035 A 
ATOM     19  C   LIG A   1      -5.882   3.771 123.017  0.00  0.00    +0.061 A 
ATOM     20  C   LIG A   1      -5.907   3.947 121.625  0.00  0.00    +0.162 A 
ATOM     21  C   LIG A   1      -7.091   3.710 120.910  0.00  0.00    +0.165 A 
ATOM     22  C   LIG A   1      -8.229   3.282 121.592  0.00  0.00    +0.095 A 
ATOM     23  C   LIG A   1      -8.192   3.113 122.977  0.00  0.00    +0.133 A 
ATOM     24  O   LIG A   1      -9.371   2.719 123.557  0.00  0.00    -0.484 OA
ATOM     25  C   LIG A   1      -9.223   2.061 124.821  0.00  0.00    +0.303 C 
ENDROOT
BRANCH  20  26
ATOM     26  O   LIG A   1      -4.811   4.331 120.891  0.00  0.00    -0.491 OA
ATOM     27  C   LIG A   1      -4.096   5.459 121.381  0.00  0.00    +0.277 C 
ENDBRANCH  20  26
BRANCH  21  28
ATOM     28  O   LIG A   1      -7.046   3.894 119.551  0.00  0.00    -0.491 OA
ATOM     29  C   LIG A   1      -8.248   4.360 118.950  0.00  0.00    +0.277 C 
ENDBRANCH  21  28
BRANCH   4  30
ATOM     30  O   LIG A   1      -4.507   5.114 128.226  0.00  0.00    -0.506 OA
ATOM     31  H   LIG A   1      -4.734   5.939 127.739  0.00  0.00    +0.292 HD
ENDBRANCH   4  30
TORSDOF 3
ENDMDL
MODEL 4
REMARK VINA RESULT:      -8.2      7.005      8.732
REMARK  Name = NuBBE_1458
REMARK  7 active torsions:
REMARK  status: ('A' for Active; 'I' for Inactive)
REMARK    1  A    between atoms: C_4  and  O_30
REMARK    2  A    between atoms: C_10  and  C_11
REMARK    3  A    between atoms: C_10  and  C_13
REMARK    4  A    between atoms: C_20  and  O_21
REMARK    5  A    between atoms: O_21  and  C_22
REMARK    6  A    between atoms: C_23  and  O_28
REMARK    7  A    between atoms: O_28  and  C_29
REMARK                            x       y       z     vdW  Elec       q    Type
REMARK                         _______ _______ _______ _____ _____    ______ ____
ROOT
ATOM      1  O   LIG A   1      -8.129   0.413 130.754  0.00  0.00    -0.286 OA
ATOM      2  C   LIG A   1      -7.854   0.832 129.633  0.00  0.00    +0.204 A 
ATOM      3  C   LIG A   1      -7.454  -0.131 128.592  0.00  0.00    +0.107 A 
ATOM      4  C   LIG A   1      -7.477  -1.509 128.831  0.00  0.00    +0.135 A 
ATOM      5  C   LIG A   1      -7.157  -2.402 127.815  0.00  0.00    +0.092 A 
ATOM      6  C   LIG A   1      -6.823  -1.920 126.550  0.00  0.00    +0.136 A 
ATOM      7  C   LIG A   1      -6.758  -0.542 126.303  0.00  0.00    +0.060 A 
ATOM      8  C   LIG A   1      -6.357  -0.088 124.974  0.00  0.00    +0.015 C 
ATOM      9  C   LIG A   1      -6.292  -0.995 123.995  0.00  0.00    +0.020 C 
ATOM     10  C   LIG A   1      -6.598  -2.459 124.218  0.00  0.00    +0.123 C 
ATOM     11  C   LIG A   1      -5.555  -3.316 123.491  0.00  0.00    +0.060 C 
ATOM     12  O   LIG A   1      -6.546  -2.868 125.601  0.00  0.00    -0.481 OA
ATOM     13  C   LIG A   1      -7.997  -2.789 123.681  0.00  0.00    +0.060 C 
ATOM     14  C   LIG A   1      -7.079   0.352 127.340  0.00  0.00    +0.153 A 
ATOM     15  O   LIG A   1      -7.020   1.698 127.072  0.00  0.00    -0.455 OA
ATOM     16  C   LIG A   1      -7.515   2.586 128.006  0.00  0.00    +0.154 A 
ATOM     17  C   LIG A   1      -7.937   2.262 129.240  0.00  0.00    +0.075 A 
ATOM     18  C   LIG A   1      -8.485   3.352 130.069  0.00  0.00    +0.035 A 
ATOM     19  C   LIG A   1      -8.732   3.237 131.444  0.00  0.00    +0.061 A 
ATOM     20  C   LIG A   1      -9.357   4.272 132.157  0.00  0.00    +0.162 A 
ATOM     21  C   LIG A   1      -9.724   5.455 131.497  0.00  0.00    +0.165 A 
ATOM     22  C   LIG A   1      -9.446   5.597 130.139  0.00  0.00    +0.095 A 
ATOM     23  C   LIG A   1      -8.826   4.559 129.441  0.00  0.00    +0.133 A 
ATOM     24  O   LIG A   1      -8.624   4.785 128.103  0.00  0.00    -0.484 OA
ATOM     25  C   LIG A   1      -7.574   4.006 127.519  0.00  0.00    +0.303 C 
ENDROOT
BRANCH  20  26
ATOM     26  O   LIG A   1      -9.626   4.209 133.503  0.00  0.00    -0.491 OA
ATOM     27  C   LIG A   1      -8.495   4.130 134.362  0.00  0.00    +0.277 C 
ENDBRANCH  20  26
BRANCH  21  28
ATOM     28  O   LIG A   1     -10.325   6.429 132.255  0.00  0.00    -0.491 OA
ATOM     29  C   LIG A   1     -11.680   6.718 131.929  0.00  0.00    +0.277 C 
ENDBRANCH  21  28
BRANCH   4  30
ATOM     30  O   LIG A   1      -7.820  -2.056 130.039  0.00  0.00    -0.506 OA
ATOM     31  H   LIG A   1      -8.149  -2.970 129.878  0.00  0.00    +0.292 HD
ENDBRANCH   4  30
TORSDOF 3
ENDMDL
MODEL 5
REMARK VINA RESULT:      -7.9      7.209      8.115
REMARK  Name = NuBBE_1458
REMARK  7 active torsions:
REMARK  status: ('A' for Active; 'I' for Inactive)
REMARK    1  A    between atoms: C_4  and  O_30
REMARK    2  A    between atoms: C_10  and  C_11
REMARK    3  A    between atoms: C_10  and  C_13
REMARK    4  A    between atoms: C_20  and  O_21
REMARK    5  A    between atoms: O_21  and  C_22
REMARK    6  A    between atoms: C_23  and  O_28
REMARK    7  A    between atoms: O_28  and  C_29
REMARK                            x       y       z     vdW  Elec       q    Type
REMARK                         _______ _______ _______ _____ _____    ______ ____
ROOT
ATOM      1  O   LIG A   1      -7.928   3.948 127.103  0.00  0.00    -0.286 OA
ATOM      2  C   LIG A   1      -7.545   2.793 127.260  0.00  0.00    +0.204 A 
ATOM      3  C   LIG A   1      -8.076   1.741 126.376  0.00  0.00    +0.107 A 
ATOM      4  C   LIG A   1      -8.926   2.051 125.308  0.00  0.00    +0.135 A 
ATOM      5  C   LIG A   1      -9.364   1.052 124.448  0.00  0.00    +0.092 A 
ATOM      6  C   LIG A   1      -8.945  -0.264 124.645  0.00  0.00    +0.136 A 
ATOM      7  C   LIG A   1      -8.125  -0.599 125.731  0.00  0.00    +0.060 A 
ATOM      8  C   LIG A   1      -7.753  -1.998 125.920  0.00  0.00    +0.015 C 
ATOM      9  C   LIG A   1      -8.018  -2.857 124.931  0.00  0.00    +0.020 C 
ATOM     10  C   LIG A   1      -8.697  -2.437 123.647  0.00  0.00    +0.123 C 
ATOM     11  C   LIG A   1      -9.752  -3.480 123.261  0.00  0.00    +0.060 C 
ATOM     12  O   LIG A   1      -9.403  -1.181 123.737  0.00  0.00    -0.481 OA
ATOM     13  C   LIG A   1      -7.661  -2.315 122.522  0.00  0.00    +0.060 C 
ATOM     14  C   LIG A   1      -7.692   0.420 126.598  0.00  0.00    +0.153 A 
ATOM     15  O   LIG A   1      -6.879   0.070 127.649  0.00  0.00    -0.455 OA
ATOM     16  C   LIG A   1      -6.286   1.070 128.393  0.00  0.00    +0.154 A 
ATOM     17  C   LIG A   1      -6.537   2.384 128.272  0.00  0.00    +0.075 A 
ATOM     18  C   LIG A   1      -5.756   3.298 129.126  0.00  0.00    +0.035 A 
ATOM     19  C   LIG A   1      -6.063   4.654 129.304  0.00  0.00    +0.061 A 
ATOM     20  C   LIG A   1      -5.219   5.499 130.040  0.00  0.00    +0.162 A 
ATOM     21  C   LIG A   1      -4.055   4.983 130.631  0.00  0.00    +0.165 A 
ATOM     22  C   LIG A   1      -3.760   3.628 130.496  0.00  0.00    +0.095 A 
ATOM     23  C   LIG A   1      -4.607   2.798 129.759  0.00  0.00    +0.133 A 
ATOM     24  O   LIG A   1      -4.213   1.489 129.660  0.00  0.00    -0.484 OA
ATOM     25  C   LIG A   1      -5.273   0.566 129.383  0.00  0.00    +0.303 C 
ENDROOT
BRANCH  20  26
ATOM     26  O   LIG A   1      -5.471   6.834 130.241  0.00  0.00    -0.491 OA
ATOM     27  C   LIG A   1      -6.629   7.142 131.009  0.00  0.00    +0.277 C 
ENDBRANCH  20  26
BRANCH  21  28
ATOM     28  O   LIG A   1      -3.277   5.861 131.343  0.00  0.00    -0.491 OA
ATOM     29  C   LIG A   1      -2.056   6.248 130.723  0.00  0.00    +0.277 C 
ENDBRANCH  21  28
BRANCH   4  30
ATOM     30  O   LIG A   1      -9.357   3.322 125.037  0.00  0.00    -0.506 OA
ATOM     31  H   LIG A   1      -9.299   3.464 124.065  0.00  0.00    +0.292 HD
ENDBRANCH   4  30
TORSDOF 3
ENDMDL
MODEL 6
REMARK VINA RESULT:      -7.8      8.558     11.026
REMARK  Name = NuBBE_1458
REMARK  7 active torsions:
REMARK  status: ('A' for Active; 'I' for Inactive)
REMARK    1  A    between atoms: C_4  and  O_30
REMARK    2  A    between atoms: C_10  and  C_11
REMARK    3  A    between atoms: C_10  and  C_13
REMARK    4  A    between atoms: C_20  and  O_21
REMARK    5  A    between atoms: O_21  and  C_22
REMARK    6  A    between atoms: C_23  and  O_28
REMARK    7  A    between atoms: O_28  and  C_29
REMARK                            x       y       z     vdW  Elec       q    Type
REMARK                         _______ _______ _______ _____ _____    ______ ____
ROOT
ATOM      1  O   LIG A   1      -8.527   0.075 124.096  0.00  0.00    -0.286 OA
ATOM      2  C   LIG A   1      -7.891   0.399 125.095  0.00  0.00    +0.204 A 
ATOM      3  C   LIG A   1      -7.924  -0.481 126.276  0.00  0.00    +0.107 A 
ATOM      4  C   LIG A   1      -8.582  -1.716 126.242  0.00  0.00    +0.135 A 
ATOM      5  C   LIG A   1      -8.547  -2.559 127.347  0.00  0.00    +0.092 A 
ATOM      6  C   LIG A   1      -7.843  -2.175 128.487  0.00  0.00    +0.136 A 
ATOM      7  C   LIG A   1      -7.211  -0.927 128.553  0.00  0.00    +0.060 A 
ATOM      8  C   LIG A   1      -6.526  -0.553 129.788  0.00  0.00    +0.015 C 
ATOM      9  C   LIG A   1      -6.339  -1.500 130.712  0.00  0.00    +0.020 C 
ATOM     10  C   LIG A   1      -6.819  -2.922 130.531  0.00  0.00    +0.123 C 
ATOM     11  C   LIG A   1      -7.452  -3.418 131.837  0.00  0.00    +0.060 C 
ATOM     12  O   LIG A   1      -7.838  -3.076 129.520  0.00  0.00    -0.481 OA
ATOM     13  C   LIG A   1      -5.641  -3.830 130.155  0.00  0.00    +0.060 C 
ATOM     14  C   LIG A   1      -7.257  -0.079 127.431  0.00  0.00    +0.153 A 
ATOM     15  O   LIG A   1      -6.620   1.135 127.513  0.00  0.00    -0.455 OA
ATOM     16  C   LIG A   1      -6.485   1.895 126.369  0.00  0.00    +0.154 A 
ATOM     17  C   LIG A   1      -7.047   1.619 125.180  0.00  0.00    +0.075 A 
ATOM     18  C   LIG A   1      -6.735   2.529 124.063  0.00  0.00    +0.035 A 
ATOM     19  C   LIG A   1      -7.424   2.531 122.842  0.00  0.00    +0.061 A 
ATOM     20  C   LIG A   1      -7.010   3.345 121.776  0.00  0.00    +0.162 A 
ATOM     21  C   LIG A   1      -5.902   4.192 121.932  0.00  0.00    +0.165 A 
ATOM     22  C   LIG A   1      -5.234   4.229 123.155  0.00  0.00    +0.095 A 
ATOM     23  C   LIG A   1      -5.655   3.413 124.206  0.00  0.00    +0.133 A 
ATOM     24  O   LIG A   1      -4.914   3.502 125.357  0.00  0.00    -0.484 OA
ATOM     25  C   LIG A   1      -5.606   3.101 126.545  0.00  0.00    +0.303 C 
ENDROOT
BRANCH  20  26
ATOM     26  O   LIG A   1      -7.646   3.381 120.560  0.00  0.00    -0.491 OA
ATOM     27  C   LIG A   1      -9.001   3.815 120.576  0.00  0.00    +0.277 C 
ENDBRANCH  20  26
BRANCH  21  28
ATOM     28  O   LIG A   1      -5.554   4.966 120.854  0.00  0.00    -0.491 OA
ATOM     29  C   LIG A   1      -4.339   5.696 120.984  0.00  0.00    +0.277 C 
ENDBRANCH  21  28
BRANCH   4  30
ATOM     30  O   LIG A   1      -9.270  -2.170 125.149  0.00  0.00    -0.506 OA
ATOM     31  H   LIG A   1      -8.971  -3.089 124.959  0.00  0.00    +0.292 HD
ENDBRANCH   4  30
TORSDOF 3
ENDMDL
MODEL 7
REMARK VINA RESULT:      -7.6      7.008      8.278
REMARK  Name = NuBBE_1458
REMARK  7 active torsions:
REMARK  status: ('A' for Active; 'I' for Inactive)
REMARK    1  A    between atoms: C_4  and  O_30
REMARK    2  A    between atoms: C_10  and  C_11
REMARK    3  A    between atoms: C_10  and  C_13
REMARK    4  A    between atoms: C_20  and  O_21
REMARK    5  A    between atoms: O_21  and  C_22
REMARK    6  A    between atoms: C_23  and  O_28
REMARK    7  A    between atoms: O_28  and  C_29
REMARK                            x       y       z     vdW  Elec       q    Type
REMARK                         _______ _______ _______ _____ _____    ______ ____
ROOT
ATOM      1  O   LIG A   1      -5.509   4.998 125.728  0.00  0.00    -0.286 OA
ATOM      2  C   LIG A   1      -5.622   3.880 126.222  0.00  0.00    +0.204 A 
ATOM      3  C   LIG A   1      -6.206   2.799 125.409  0.00  0.00    +0.107 A 
ATOM      4  C   LIG A   1      -6.541   3.001 124.066  0.00  0.00    +0.135 A 
ATOM      5  C   LIG A   1      -7.031   1.950 123.300  0.00  0.00    +0.092 A 
ATOM      6  C   LIG A   1      -7.179   0.687 123.873  0.00  0.00    +0.136 A 
ATOM      7  C   LIG A   1      -6.885   0.476 125.226  0.00  0.00    +0.060 A 
ATOM      8  C   LIG A   1      -7.102  -0.854 125.790  0.00  0.00    +0.015 C 
ATOM      9  C   LIG A   1      -7.351  -1.860 124.945  0.00  0.00    +0.020 C 
ATOM     10  C   LIG A   1      -7.432  -1.666 123.448  0.00  0.00    +0.123 C 
ATOM     11  C   LIG A   1      -8.625  -2.454 122.894  0.00  0.00    +0.060 C 
ATOM     12  O   LIG A   1      -7.645  -0.297 123.042  0.00  0.00    -0.481 OA
ATOM     13  C   LIG A   1      -6.139  -2.159 122.785  0.00  0.00    +0.060 C 
ATOM     14  C   LIG A   1      -6.394   1.548 125.993  0.00  0.00    +0.153 A 
ATOM     15  O   LIG A   1      -6.101   1.315 127.315  0.00  0.00    -0.455 OA
ATOM     16  C   LIG A   1      -5.439   2.290 128.032  0.00  0.00    +0.154 A 
ATOM     17  C   LIG A   1      -5.165   3.530 127.591  0.00  0.00    +0.075 A 
ATOM     18  C   LIG A   1      -4.397   4.408 128.494  0.00  0.00    +0.035 A 
ATOM     19  C   LIG A   1      -4.245   5.787 128.297  0.00  0.00    +0.061 A 
ATOM     20  C   LIG A   1      -3.412   6.552 129.128  0.00  0.00    +0.162 A 
ATOM     21  C   LIG A   1      -2.731   5.938 130.191  0.00  0.00    +0.165 A 
ATOM     22  C   LIG A   1      -2.907   4.575 130.422  0.00  0.00    +0.095 A 
ATOM     23  C   LIG A   1      -3.737   3.826 129.587  0.00  0.00    +0.133 A 
ATOM     24  O   LIG A   1      -3.819   2.489 129.879  0.00  0.00    -0.484 OA
ATOM     25  C   LIG A   1      -5.005   1.845 129.400  0.00  0.00    +0.303 C 
ENDROOT
BRANCH  20  26
ATOM     26  O   LIG A   1      -3.225   7.904 128.976  0.00  0.00    -0.491 OA
ATOM     27  C   LIG A   1      -4.087   8.742 129.736  0.00  0.00    +0.277 C 
ENDBRANCH  20  26
BRANCH  21  28
ATOM     28  O   LIG A   1      -1.938   6.744 130.969  0.00  0.00    -0.491 OA
ATOM     29  C   LIG A   1      -1.211   6.084 132.000  0.00  0.00    +0.277 C 
ENDBRANCH  21  28
BRANCH   4  30
ATOM     30  O   LIG A   1      -6.398   4.205 123.429  0.00  0.00    -0.506 OA
ATOM     31  H   LIG A   1      -7.284   4.630 123.377  0.00  0.00    +0.292 HD
ENDBRANCH   4  30
TORSDOF 3
ENDMDL
MODEL 8
REMARK VINA RESULT:      -7.5      8.251     11.234
REMARK  Name = NuBBE_1458
REMARK  7 active torsions:
REMARK  status: ('A' for Active; 'I' for Inactive)
REMARK    1  A    between atoms: C_4  and  O_30
REMARK    2  A    between atoms: C_10  and  C_11
REMARK    3  A    between atoms: C_10  and  C_13
REMARK    4  A    between atoms: C_20  and  O_21
REMARK    5  A    between atoms: O_21  and  C_22
REMARK    6  A    between atoms: C_23  and  O_28
REMARK    7  A    between atoms: O_28  and  C_29
REMARK                            x       y       z     vdW  Elec       q    Type
REMARK                         _______ _______ _______ _____ _____    ______ ____
ROOT
ATOM      1  O   LIG A   1      -4.780   1.992 128.309  0.00  0.00    -0.286 OA
ATOM      2  C   LIG A   1      -5.029   0.802 128.137  0.00  0.00    +0.204 A 
ATOM      3  C   LIG A   1      -4.868  -0.129 129.267  0.00  0.00    +0.107 A 
ATOM      4  C   LIG A   1      -4.535   0.332 130.546  0.00  0.00    +0.135 A 
ATOM      5  C   LIG A   1      -4.450  -0.556 131.612  0.00  0.00    +0.092 A 
ATOM      6  C   LIG A   1      -4.711  -1.910 131.405  0.00  0.00    +0.136 A 
ATOM      7  C   LIG A   1      -5.009  -2.395 130.125  0.00  0.00    +0.060 A 
ATOM      8  C   LIG A   1      -5.227  -3.829 129.954  0.00  0.00    +0.015 C 
ATOM      9  C   LIG A   1      -5.358  -4.579 131.052  0.00  0.00    +0.020 C 
ATOM     10  C   LIG A   1      -5.272  -4.003 132.447  0.00  0.00    +0.123 C 
ATOM     11  C   LIG A   1      -4.431  -4.930 133.332  0.00  0.00    +0.060 C 
ATOM     12  O   LIG A   1      -4.631  -2.711 132.513  0.00  0.00    -0.481 OA
ATOM     13  C   LIG A   1      -6.679  -3.862 133.044  0.00  0.00    +0.060 C 
ATOM     14  C   LIG A   1      -5.086  -1.489 129.053  0.00  0.00    +0.153 A 
ATOM     15  O   LIG A   1      -5.391  -1.984 127.809  0.00  0.00    -0.455 OA
ATOM     16  C   LIG A   1      -5.664  -1.098 126.787  0.00  0.00    +0.154 A 
ATOM     17  C   LIG A   1      -5.526   0.237 126.857  0.00  0.00    +0.075 A 
ATOM     18  C   LIG A   1      -5.923   1.015 125.669  0.00  0.00    +0.035 A 
ATOM     19  C   LIG A   1      -5.614   2.370 125.484  0.00  0.00    +0.061 A 
ATOM     20  C   LIG A   1      -6.114   3.085 124.385  0.00  0.00    +0.162 A 
ATOM     21  C   LIG A   1      -6.921   2.438 123.437  0.00  0.00    +0.165 A 
ATOM     22  C   LIG A   1      -7.202   1.081 123.588  0.00  0.00    +0.095 A 
ATOM     23  C   LIG A   1      -6.699   0.381 124.686  0.00  0.00    +0.133 A 
ATOM     24  O   LIG A   1      -7.057  -0.941 124.760  0.00  0.00    -0.484 OA
ATOM     25  C   LIG A   1      -6.171  -1.756 125.535  0.00  0.00    +0.303 C 
ENDROOT
BRANCH  20  26
ATOM     26  O   LIG A   1      -5.845   4.414 124.161  0.00  0.00    -0.491 OA
ATOM     27  C   LIG A   1      -6.230   5.312 125.194  0.00  0.00    +0.277 C 
ENDBRANCH  20  26
BRANCH  21  28
ATOM     28  O   LIG A   1      -7.372   3.193 122.384  0.00  0.00    -0.491 OA
ATOM     29  C   LIG A   1      -8.735   3.000 122.024  0.00  0.00    +0.277 C 
ENDBRANCH  21  28
BRANCH   4  30
ATOM     30  O   LIG A   1      -4.291   1.650 130.829  0.00  0.00    -0.506 OA
ATOM     31  H   LIG A   1      -5.067   2.006 131.320  0.00  0.00    +0.292 HD
ENDBRANCH   4  30
TORSDOF 3
ENDMDL
MODEL 9
REMARK VINA RESULT:      -7.5      8.307     11.248
REMARK  Name = NuBBE_1458
REMARK  7 active torsions:
REMARK  status: ('A' for Active; 'I' for Inactive)
REMARK    1  A    between atoms: C_4  and  O_30
REMARK    2  A    between atoms: C_10  and  C_11
REMARK    3  A    between atoms: C_10  and  C_13
REMARK    4  A    between atoms: C_20  and  O_21
REMARK    5  A    between atoms: O_21  and  C_22
REMARK    6  A    between atoms: C_23  and  O_28
REMARK    7  A    between atoms: O_28  and  C_29
REMARK                            x       y       z     vdW  Elec       q    Type
REMARK                         _______ _______ _______ _____ _____    ______ ____
ROOT
ATOM      1  O   LIG A   1      -4.872   2.101 126.231  0.00  0.00    -0.286 OA
ATOM      2  C   LIG A   1      -5.719   1.225 126.378  0.00  0.00    +0.204 A 
ATOM      3  C   LIG A   1      -5.714   0.431 127.619  0.00  0.00    +0.107 A 
ATOM      4  C   LIG A   1      -4.830   0.723 128.663  0.00  0.00    +0.135 A 
ATOM      5  C   LIG A   1      -4.885   0.003 129.851  0.00  0.00    +0.092 A 
ATOM      6  C   LIG A   1      -5.834  -1.007 130.003  0.00  0.00    +0.136 A 
ATOM      7  C   LIG A   1      -6.702  -1.339 128.954  0.00  0.00    +0.060 A 
ATOM      8  C   LIG A   1      -7.646  -2.437 129.148  0.00  0.00    +0.015 C 
ATOM      9  C   LIG A   1      -7.797  -2.923 130.384  0.00  0.00    +0.020 C 
ATOM     10  C   LIG A   1      -7.022  -2.393 131.568  0.00  0.00    +0.123 C 
ATOM     11  C   LIG A   1      -6.535  -3.566 132.427  0.00  0.00    +0.060 C 
ATOM     12  O   LIG A   1      -5.836  -1.650 131.212  0.00  0.00    -0.481 OA
ATOM     13  C   LIG A   1      -7.917  -1.477 132.413  0.00  0.00    +0.060 C 
ATOM     14  C   LIG A   1      -6.634  -0.607 127.755  0.00  0.00    +0.153 A 
ATOM     15  O   LIG A   1      -7.502  -0.941 126.745  0.00  0.00    -0.455 OA
ATOM     16  C   LIG A   1      -7.588  -0.118 125.640  0.00  0.00    +0.154 A 
ATOM     17  C   LIG A   1      -6.789   0.933 125.389  0.00  0.00    +0.075 A 
ATOM     18  C   LIG A   1      -7.080   1.722 124.178  0.00  0.00    +0.035 A 
ATOM     19  C   LIG A   1      -6.209   2.681 123.643  0.00  0.00    +0.061 A 
ATOM     20  C   LIG A   1      -6.588   3.478 122.552  0.00  0.00    +0.162 A 
ATOM     21  C   LIG A   1      -7.851   3.307 121.966  0.00  0.00    +0.165 A 
ATOM     22  C   LIG A   1      -8.711   2.329 122.463  0.00  0.00    +0.095 A 
ATOM     23  C   LIG A   1      -8.322   1.543 123.549  0.00  0.00    +0.133 A 
ATOM     24  O   LIG A   1      -9.250   0.631 123.982  0.00  0.00    -0.484 OA
ATOM     25  C   LIG A   1      -8.704  -0.480 124.702  0.00  0.00    +0.303 C 
ENDROOT
BRANCH  20  26
ATOM     26  O   LIG A   1      -5.774   4.433 121.993  0.00  0.00    -0.491 OA
ATOM     27  C   LIG A   1      -4.882   3.979 120.983  0.00  0.00    +0.277 C 
ENDBRANCH  20  26
BRANCH  21  28
ATOM     28  O   LIG A   1      -8.157   4.114 120.899  0.00  0.00    -0.491 OA
ATOM     29  C   LIG A   1      -9.317   3.748 120.160  0.00  0.00    +0.277 C 
ENDBRANCH  21  28
BRANCH   4  30
ATOM     30  O   LIG A   1      -3.890   1.717 128.595  0.00  0.00    -0.506 OA
ATOM     31  H   LIG A   1      -4.355   2.567 128.420  0.00  0.00    +0.292 HD
ENDBRANCH   4  30
TORSDOF 3
ENDMDL
