MODEL 1
REMARK VINA RESULT:      -9.0      0.000      0.000
REMARK  Name = NuBBE_56
REMARK  15 active torsions:
REMARK  status: ('A' for Active; 'I' for Inactive)
REMARK    1  A    between atoms: O_1  and  C_2
REMARK    2  A    between atoms: C_4  and  O_51
REMARK    3  A    between atoms: C_6  and  O_50
REMARK    4  A    between atoms: C_8  and  C_49
REMARK    5  A    between atoms: C_11  and  O_13
REMARK    6  A    between atoms: O_13  and  C_14
REMARK    7  A    between atoms: C_16  and  O_17
REMARK    8  A    between atoms: C_20  and  O_21
REMARK    9  A    between atoms: O_21  and  C_22
REMARK   10  A    between atoms: C_25  and  C_36
REMARK   11  A    between atoms: C_27  and  O_35
REMARK   12  A    between atoms: C_29  and  O_34
REMARK   13  A    between atoms: C_31  and  O_33
REMARK   14  A    between atoms: C_37  and  C_41
REMARK   15  A    between atoms: C_44  and  O_47
REMARK                            x       y       z     vdW  Elec       q    Type
REMARK                         _______ _______ _______ _____ _____    ______ ____
ROOT
ATOM      1  C   LIG A   1      -8.372   4.740 128.875  0.00  0.00    +0.131 A 
ATOM      2  C   LIG A   1      -8.135   3.511 129.504  0.00  0.00    +0.092 A 
ATOM      3  C   LIG A   1      -7.391   2.523 128.865  0.00  0.00    +0.135 A 
ATOM      4  C   LIG A   1      -6.911   2.758 127.588  0.00  0.00    +0.109 A 
ATOM      5  C   LIG A   1      -6.099   1.788 126.850  0.00  0.00    +0.238 A 
ATOM      6  C   LIG A   1      -6.404   1.719 125.393  0.00  0.00    +0.214 A 
ATOM      7  C   LIG A   1      -6.721   2.915 124.838  0.00  0.00    +0.181 A 
ATOM      8  O   LIG A   1      -6.847   4.093 125.605  0.00  0.00    -0.451 OA
ATOM      9  C   LIG A   1      -7.211   3.928 126.920  0.00  0.00    +0.146 A 
ATOM     10  C   LIG A   1      -7.908   4.946 127.568  0.00  0.00    +0.093 A 
ATOM     11  O   LIG A   1      -5.233   1.128 127.384  0.00  0.00    -0.283 OA
ENDROOT
BRANCH   7  12
ATOM     12  C   LIG A   1      -6.948   3.185 123.393  0.00  0.00    +0.021 A 
ATOM     13  C   LIG A   1      -8.244   3.079 122.839  0.00  0.00    +0.015 A 
ATOM     14  C   LIG A   1      -8.497   3.396 121.497  0.00  0.00    +0.046 A 
ATOM     15  C   LIG A   1      -7.449   3.823 120.693  0.00  0.00    +0.117 A 
ATOM     16  C   LIG A   1      -6.168   3.946 121.213  0.00  0.00    +0.046 A 
ATOM     17  C   LIG A   1      -5.920   3.633 122.553  0.00  0.00    +0.015 A 
BRANCH  15  18
ATOM     18  O   LIG A   1      -7.633   4.144 119.382  0.00  0.00    -0.507 OA
ATOM     19  H   LIG A   1      -8.307   3.556 119.008  0.00  0.00    +0.292 HD
ENDBRANCH  15  18
ENDBRANCH   7  12
BRANCH   3  20
ATOM     20  O   LIG A   1      -7.203   1.315 129.467  0.00  0.00    -0.506 OA
ATOM     21  H   LIG A   1      -6.271   1.198 129.709  0.00  0.00    +0.292 HD
ENDBRANCH   3  20
BRANCH   1  22
ATOM     22  O   LIG A   1      -9.040   5.799 129.429  0.00  0.00    -0.461 OA
BRANCH  22  28
ATOM     23  C   LIG A   1     -11.402   6.166 129.651  0.00  0.00    +0.214 C 
ATOM     24  C   LIG A   1     -12.621   6.853 129.030  0.00  0.00    +0.180 C 
ATOM     25  C   LIG A   1     -12.285   8.286 128.616  0.00  0.00    +0.174 C 
ATOM     26  C   LIG A   1     -11.028   8.355 127.729  0.00  0.00    +0.150 C 
ATOM     27  O   LIG A   1      -9.932   7.685 128.372  0.00  0.00    -0.334 OA
ATOM     28  C   LIG A   1     -10.182   6.317 128.722  0.00  0.00    +0.339 C 
ATOM     29  C   LIG A   1     -11.220   7.890 126.289  0.00  0.00    +0.040 C 
BRANCH  23  30
ATOM     30  O   LIG A   1     -11.750   4.776 129.825  0.00  0.00    -0.383 OA
ATOM     31  H   LIG A   1     -11.005   4.253 129.478  0.00  0.00    +0.210 HD
ENDBRANCH  23  30
BRANCH  25  32
ATOM     32  O   LIG A   1     -12.053   9.053 129.811  0.00  0.00    -0.387 OA
ATOM     33  H   LIG A   1     -12.921   9.306 130.178  0.00  0.00    +0.210 HD
ENDBRANCH  25  32
BRANCH  24  34
ATOM     34  O   LIG A   1     -13.082   6.090 127.908  0.00  0.00    -0.386 OA
ATOM     35  H   LIG A   1     -13.949   5.727 128.188  0.00  0.00    +0.210 HD
ENDBRANCH  24  34
ENDBRANCH  22  28
ENDBRANCH   1  22
BRANCH   6  36
ATOM     36  O   LIG A   1      -6.305   0.510 124.713  0.00  0.00    -0.453 OA
BRANCH  36  37
ATOM     37  C   LIG A   1      -7.144  -0.576 125.188  0.00  0.00    +0.340 C 
ATOM     38  O   LIG A   1      -6.312  -1.582 125.798  0.00  0.00    -0.334 OA
ATOM     39  C   LIG A   1      -7.016  -2.726 126.312  0.00  0.00    +0.150 C 
ATOM     40  C   LIG A   1      -7.929  -3.392 125.262  0.00  0.00    +0.174 C 
ATOM     41  C   LIG A   1      -8.770  -2.371 124.493  0.00  0.00    +0.180 C 
ATOM     42  C   LIG A   1      -7.917  -1.195 124.000  0.00  0.00    +0.214 C 
ATOM     43  C   LIG A   1      -7.754  -2.446 127.620  0.00  0.00    +0.040 C 
BRANCH  42  44
ATOM     44  O   LIG A   1      -8.809  -0.238 123.389  0.00  0.00    -0.383 OA
ATOM     45  H   LIG A   1      -8.856   0.519 124.002  0.00  0.00    +0.210 HD
ENDBRANCH  42  44
BRANCH  41  46
ATOM     46  O   LIG A   1      -9.842  -1.883 125.314  0.00  0.00    -0.386 OA
ATOM     47  H   LIG A   1     -10.429  -1.372 124.719  0.00  0.00    +0.210 HD
ENDBRANCH  41  46
BRANCH  40  48
ATOM     48  O   LIG A   1      -7.127  -4.114 124.315  0.00  0.00    -0.387 OA
ATOM     49  H   LIG A   1      -7.649  -4.885 124.025  0.00  0.00    +0.210 HD
ENDBRANCH  40  48
ENDBRANCH  36  37
ENDBRANCH   6  36
TORSDOF 13
ENDMDL
MODEL 2
REMARK VINA RESULT:      -8.9      3.896      6.696
REMARK  Name = NuBBE_56
REMARK  15 active torsions:
REMARK  status: ('A' for Active; 'I' for Inactive)
REMARK    1  A    between atoms: O_1  and  C_2
REMARK    2  A    between atoms: C_4  and  O_51
REMARK    3  A    between atoms: C_6  and  O_50
REMARK    4  A    between atoms: C_8  and  C_49
REMARK    5  A    between atoms: C_11  and  O_13
REMARK    6  A    between atoms: O_13  and  C_14
REMARK    7  A    between atoms: C_16  and  O_17
REMARK    8  A    between atoms: C_20  and  O_21
REMARK    9  A    between atoms: O_21  and  C_22
REMARK   10  A    between atoms: C_25  and  C_36
REMARK   11  A    between atoms: C_27  and  O_35
REMARK   12  A    between atoms: C_29  and  O_34
REMARK   13  A    between atoms: C_31  and  O_33
REMARK   14  A    between atoms: C_37  and  C_41
REMARK   15  A    between atoms: C_44  and  O_47
REMARK                            x       y       z     vdW  Elec       q    Type
REMARK                         _______ _______ _______ _____ _____    ______ ____
ROOT
ATOM      1  C   LIG A   1      -9.121   5.933 130.730  0.00  0.00    +0.131 A 
ATOM      2  C   LIG A   1      -9.431   4.713 130.116  0.00  0.00    +0.092 A 
ATOM      3  C   LIG A   1      -8.559   3.632 130.213  0.00  0.00    +0.135 A 
ATOM      4  C   LIG A   1      -7.368   3.784 130.901  0.00  0.00    +0.109 A 
ATOM      5  C   LIG A   1      -6.403   2.696 131.076  0.00  0.00    +0.238 A 
ATOM      6  C   LIG A   1      -4.978   3.122 130.982  0.00  0.00    +0.214 A 
ATOM      7  C   LIG A   1      -4.733   4.349 131.504  0.00  0.00    +0.181 A 
ATOM      8  O   LIG A   1      -5.763   5.180 131.995  0.00  0.00    -0.451 OA
ATOM      9  C   LIG A   1      -7.007   5.004 131.436  0.00  0.00    +0.146 A 
ATOM     10  C   LIG A   1      -7.893   6.078 131.393  0.00  0.00    +0.093 A 
ATOM     11  O   LIG A   1      -6.747   1.557 131.309  0.00  0.00    -0.283 OA
ENDROOT
BRANCH   7  12
ATOM     12  C   LIG A   1      -3.400   4.988 131.670  0.00  0.00    +0.021 A 
ATOM     13  C   LIG A   1      -3.135   6.252 131.096  0.00  0.00    +0.015 A 
ATOM     14  C   LIG A   1      -1.912   6.907 131.296  0.00  0.00    +0.046 A 
ATOM     15  C   LIG A   1      -0.938   6.298 132.076  0.00  0.00    +0.117 A 
ATOM     16  C   LIG A   1      -1.174   5.062 132.658  0.00  0.00    +0.046 A 
ATOM     17  C   LIG A   1      -2.397   4.413 132.461  0.00  0.00    +0.015 A 
BRANCH  15  18
ATOM     18  O   LIG A   1       0.270   6.884 132.305  0.00  0.00    -0.507 OA
ATOM     19  H   LIG A   1       0.890   6.210 132.625  0.00  0.00    +0.292 HD
ENDBRANCH  15  18
ENDBRANCH   7  12
BRANCH   3  20
ATOM     20  O   LIG A   1      -8.849   2.463 129.574  0.00  0.00    -0.506 OA
ATOM     21  H   LIG A   1      -9.577   2.594 128.945  0.00  0.00    +0.292 HD
ENDBRANCH   3  20
BRANCH   1  22
ATOM     22  O   LIG A   1      -9.925   7.040 130.747  0.00  0.00    -0.461 OA
BRANCH  22  28
ATOM     23  C   LIG A   1     -12.251   7.514 130.385  0.00  0.00    +0.214 C 
ATOM     24  C   LIG A   1     -13.308   7.835 129.326  0.00  0.00    +0.180 C 
ATOM     25  C   LIG A   1     -12.788   8.879 128.337  0.00  0.00    +0.174 C 
ATOM     26  C   LIG A   1     -11.424   8.483 127.739  0.00  0.00    +0.150 C 
ATOM     27  O   LIG A   1     -10.490   8.190 128.789  0.00  0.00    -0.334 OA
ATOM     28  C   LIG A   1     -10.911   7.171 129.706  0.00  0.00    +0.339 C 
ATOM     29  C   LIG A   1     -11.470   7.379 126.687  0.00  0.00    +0.040 C 
BRANCH  23  30
ATOM     30  O   LIG A   1     -12.748   6.392 131.145  0.00  0.00    -0.383 OA
ATOM     31  H   LIG A   1     -13.715   6.498 131.205  0.00  0.00    +0.210 HD
ENDBRANCH  23  30
BRANCH  25  32
ATOM     32  O   LIG A   1     -12.642  10.126 129.039  0.00  0.00    -0.387 OA
ATOM     33  H   LIG A   1     -13.470  10.631 128.928  0.00  0.00    +0.210 HD
ENDBRANCH  25  32
BRANCH  24  34
ATOM     34  O   LIG A   1     -13.688   6.631 128.648  0.00  0.00    -0.386 OA
ATOM     35  H   LIG A   1     -14.549   6.839 128.226  0.00  0.00    +0.210 HD
ENDBRANCH  24  34
ENDBRANCH  22  28
ENDBRANCH   1  22
BRANCH   6  36
ATOM     36  O   LIG A   1      -4.025   2.266 130.439  0.00  0.00    -0.453 OA
BRANCH  36  37
ATOM     37  C   LIG A   1      -3.810   2.354 129.006  0.00  0.00    +0.340 C 
ATOM     38  O   LIG A   1      -3.214   3.629 128.698  0.00  0.00    -0.334 OA
ATOM     39  C   LIG A   1      -2.946   3.857 127.304  0.00  0.00    +0.150 C 
ATOM     40  C   LIG A   1      -4.188   3.649 126.412  0.00  0.00    +0.174 C 
ATOM     41  C   LIG A   1      -4.940   2.361 126.754  0.00  0.00    +0.180 C 
ATOM     42  C   LIG A   1      -5.161   2.222 128.266  0.00  0.00    +0.214 C 
ATOM     43  C   LIG A   1      -1.733   3.088 126.785  0.00  0.00    +0.040 C 
BRANCH  42  44
ATOM     44  O   LIG A   1      -5.772   0.936 128.500  0.00  0.00    -0.383 OA
ATOM     45  H   LIG A   1      -6.595   1.111 128.994  0.00  0.00    +0.210 HD
ENDBRANCH  42  44
BRANCH  41  46
ATOM     46  O   LIG A   1      -4.226   1.217 126.261  0.00  0.00    -0.386 OA
ATOM     47  H   LIG A   1      -3.767   0.829 127.035  0.00  0.00    +0.210 HD
ENDBRANCH  41  46
BRANCH  40  48
ATOM     48  O   LIG A   1      -5.092   4.752 126.580  0.00  0.00    -0.387 OA
ATOM     49  H   LIG A   1      -5.836   4.434 127.124  0.00  0.00    +0.210 HD
ENDBRANCH  40  48
ENDBRANCH  36  37
ENDBRANCH   6  36
TORSDOF 13
ENDMDL
MODEL 3
REMARK VINA RESULT:      -8.8      3.778      4.871
REMARK  Name = NuBBE_56
REMARK  15 active torsions:
REMARK  status: ('A' for Active; 'I' for Inactive)
REMARK    1  A    between atoms: O_1  and  C_2
REMARK    2  A    between atoms: C_4  and  O_51
REMARK    3  A    between atoms: C_6  and  O_50
REMARK    4  A    between atoms: C_8  and  C_49
REMARK    5  A    between atoms: C_11  and  O_13
REMARK    6  A    between atoms: O_13  and  C_14
REMARK    7  A    between atoms: C_16  and  O_17
REMARK    8  A    between atoms: C_20  and  O_21
REMARK    9  A    between atoms: O_21  and  C_22
REMARK   10  A    between atoms: C_25  and  C_36
REMARK   11  A    between atoms: C_27  and  O_35
REMARK   12  A    between atoms: C_29  and  O_34
REMARK   13  A    between atoms: C_31  and  O_33
REMARK   14  A    between atoms: C_37  and  C_41
REMARK   15  A    between atoms: C_44  and  O_47
REMARK                            x       y       z     vdW  Elec       q    Type
REMARK                         _______ _______ _______ _____ _____    ______ ____
ROOT
ATOM      1  C   LIG A   1      -5.012   4.866 127.343  0.00  0.00    +0.131 A 
ATOM      2  C   LIG A   1      -5.400   3.726 128.058  0.00  0.00    +0.092 A 
ATOM      3  C   LIG A   1      -5.770   2.564 127.386  0.00  0.00    +0.135 A 
ATOM      4  C   LIG A   1      -5.778   2.558 126.002  0.00  0.00    +0.109 A 
ATOM      5  C   LIG A   1      -6.129   1.375 125.212  0.00  0.00    +0.238 A 
ATOM      6  C   LIG A   1      -6.926   1.671 123.988  0.00  0.00    +0.214 A 
ATOM      7  C   LIG A   1      -6.586   2.832 123.376  0.00  0.00    +0.181 A 
ATOM      8  O   LIG A   1      -5.631   3.719 123.917  0.00  0.00    -0.451 OA
ATOM      9  C   LIG A   1      -5.485   3.699 125.283  0.00  0.00    +0.146 A 
ATOM     10  C   LIG A   1      -5.061   4.851 125.942  0.00  0.00    +0.093 A 
ATOM     11  O   LIG A   1      -5.767   0.259 125.520  0.00  0.00    -0.283 OA
ENDROOT
BRANCH   7  12
ATOM     12  C   LIG A   1      -7.110   3.331 122.076  0.00  0.00    +0.021 A 
ATOM     13  C   LIG A   1      -6.223   3.740 121.056  0.00  0.00    +0.015 A 
ATOM     14  C   LIG A   1      -6.689   4.148 119.798  0.00  0.00    +0.046 A 
ATOM     15  C   LIG A   1      -8.055   4.151 119.550  0.00  0.00    +0.117 A 
ATOM     16  C   LIG A   1      -8.948   3.747 120.531  0.00  0.00    +0.046 A 
ATOM     17  C   LIG A   1      -8.480   3.336 121.783  0.00  0.00    +0.015 A 
BRANCH  15  18
ATOM     18  O   LIG A   1      -8.567   4.538 118.349  0.00  0.00    -0.507 OA
ATOM     19  H   LIG A   1      -8.878   5.454 118.422  0.00  0.00    +0.292 HD
ENDBRANCH  15  18
ENDBRANCH   7  12
BRANCH   3  20
ATOM     20  O   LIG A   1      -6.188   1.474 128.090  0.00  0.00    -0.506 OA
ATOM     21  H   LIG A   1      -5.619   0.711 127.900  0.00  0.00    +0.292 HD
ENDBRANCH   3  20
BRANCH   1  22
ATOM     22  O   LIG A   1      -4.577   6.040 127.897  0.00  0.00    -0.461 OA
BRANCH  22  28
ATOM     23  C   LIG A   1      -2.735   6.577 129.340  0.00  0.00    +0.214 C 
ATOM     24  C   LIG A   1      -2.302   6.747 130.798  0.00  0.00    +0.180 C 
ATOM     25  C   LIG A   1      -3.345   7.538 131.587  0.00  0.00    +0.174 C 
ATOM     26  C   LIG A   1      -4.759   6.947 131.436  0.00  0.00    +0.150 C 
ATOM     27  O   LIG A   1      -5.092   6.811 130.045  0.00  0.00    -0.334 OA
ATOM     28  C   LIG A   1      -4.172   6.023 129.278  0.00  0.00    +0.339 C 
ATOM     29  C   LIG A   1      -5.015   5.661 132.216  0.00  0.00    +0.040 C 
BRANCH  23  30
ATOM     30  O   LIG A   1      -1.800   5.661 128.730  0.00  0.00    -0.383 OA
ATOM     31  H   LIG A   1      -1.168   6.201 128.221  0.00  0.00    +0.210 HD
ENDBRANCH  23  30
BRANCH  25  32
ATOM     32  O   LIG A   1      -3.350   8.888 131.091  0.00  0.00    -0.387 OA
ATOM     33  H   LIG A   1      -2.816   9.434 131.699  0.00  0.00    +0.210 HD
ENDBRANCH  25  32
BRANCH  24  34
ATOM     34  O   LIG A   1      -2.083   5.457 131.386  0.00  0.00    -0.386 OA
ATOM     35  H   LIG A   1      -2.552   5.489 132.247  0.00  0.00    +0.210 HD
ENDBRANCH  24  34
ENDBRANCH  22  28
ENDBRANCH   1  22
BRANCH   6  36
ATOM     36  O   LIG A   1      -7.887   0.769 123.543  0.00  0.00    -0.453 OA
BRANCH  36  37
ATOM     37  C   LIG A   1      -7.872  -0.551 124.147  0.00  0.00    +0.340 C 
ATOM     38  O   LIG A   1      -7.734  -1.541 123.110  0.00  0.00    -0.334 OA
ATOM     39  C   LIG A   1      -7.709  -2.904 123.567  0.00  0.00    +0.150 C 
ATOM     40  C   LIG A   1      -8.920  -3.264 124.453  0.00  0.00    +0.174 C 
ATOM     41  C   LIG A   1      -9.197  -2.200 125.517  0.00  0.00    +0.180 C 
ATOM     42  C   LIG A   1      -9.193  -0.787 124.915  0.00  0.00    +0.214 C 
ATOM     43  C   LIG A   1      -6.385  -3.302 124.217  0.00  0.00    +0.040 C 
BRANCH  42  44
ATOM     44  O   LIG A   1      -9.350   0.148 126.003  0.00  0.00    -0.383 OA
ATOM     45  H   LIG A   1      -9.595  -0.382 126.785  0.00  0.00    +0.210 HD
ENDBRANCH  42  44
BRANCH  41  46
ATOM     46  O   LIG A   1      -8.228  -2.281 126.573  0.00  0.00    -0.386 OA
ATOM     47  H   LIG A   1      -7.357  -2.113 126.155  0.00  0.00    +0.210 HD
ENDBRANCH  41  46
BRANCH  40  48
ATOM     48  O   LIG A   1     -10.093  -3.395 123.636  0.00  0.00    -0.387 OA
ATOM     49  H   LIG A   1     -10.055  -4.273 123.216  0.00  0.00    +0.210 HD
ENDBRANCH  40  48
ENDBRANCH  36  37
ENDBRANCH   6  36
TORSDOF 13
ENDMDL
MODEL 4
REMARK VINA RESULT:      -8.7      2.820      9.201
REMARK  Name = NuBBE_56
REMARK  15 active torsions:
REMARK  status: ('A' for Active; 'I' for Inactive)
REMARK    1  A    between atoms: O_1  and  C_2
REMARK    2  A    between atoms: C_4  and  O_51
REMARK    3  A    between atoms: C_6  and  O_50
REMARK    4  A    between atoms: C_8  and  C_49
REMARK    5  A    between atoms: C_11  and  O_13
REMARK    6  A    between atoms: O_13  and  C_14
REMARK    7  A    between atoms: C_16  and  O_17
REMARK    8  A    between atoms: C_20  and  O_21
REMARK    9  A    between atoms: O_21  and  C_22
REMARK   10  A    between atoms: C_25  and  C_36
REMARK   11  A    between atoms: C_27  and  O_35
REMARK   12  A    between atoms: C_29  and  O_34
REMARK   13  A    between atoms: C_31  and  O_33
REMARK   14  A    between atoms: C_37  and  C_41
REMARK   15  A    between atoms: C_44  and  O_47
REMARK                            x       y       z     vdW  Elec       q    Type
REMARK                         _______ _______ _______ _____ _____    ______ ____
ROOT
ATOM      1  C   LIG A   1      -7.601   0.912 126.147  0.00  0.00    +0.131 A 
ATOM      2  C   LIG A   1      -6.273   0.826 126.585  0.00  0.00    +0.092 A 
ATOM      3  C   LIG A   1      -5.905   1.334 127.828  0.00  0.00    +0.135 A 
ATOM      4  C   LIG A   1      -6.861   1.952 128.615  0.00  0.00    +0.109 A 
ATOM      5  C   LIG A   1      -6.571   2.492 129.945  0.00  0.00    +0.238 A 
ATOM      6  C   LIG A   1      -7.268   3.774 130.249  0.00  0.00    +0.214 A 
ATOM      7  C   LIG A   1      -8.518   3.859 129.729  0.00  0.00    +0.181 A 
ATOM      8  O   LIG A   1      -9.056   2.860 128.891  0.00  0.00    -0.451 OA
ATOM      9  C   LIG A   1      -8.153   2.124 128.161  0.00  0.00    +0.146 A 
ATOM     10  C   LIG A   1      -8.547   1.573 126.944  0.00  0.00    +0.093 A 
ATOM     11  O   LIG A   1      -5.849   1.920 130.734  0.00  0.00    -0.283 OA
ENDROOT
BRANCH   7  12
ATOM     12  C   LIG A   1      -9.500   4.952 129.965  0.00  0.00    +0.021 A 
ATOM     13  C   LIG A   1      -9.508   6.098 129.140  0.00  0.00    +0.015 A 
ATOM     14  C   LIG A   1     -10.467   7.109 129.296  0.00  0.00    +0.046 A 
ATOM     15  C   LIG A   1     -11.430   6.980 130.288  0.00  0.00    +0.117 A 
ATOM     16  C   LIG A   1     -11.451   5.860 131.108  0.00  0.00    +0.046 A 
ATOM     17  C   LIG A   1     -10.496   4.852 130.945  0.00  0.00    +0.015 A 
BRANCH  15  18
ATOM     18  O   LIG A   1     -12.387   7.928 130.490  0.00  0.00    -0.507 OA
ATOM     19  H   LIG A   1     -12.250   8.650 129.856  0.00  0.00    +0.292 HD
ENDBRANCH  15  18
ENDBRANCH   7  12
BRANCH   3  20
ATOM     20  O   LIG A   1      -4.602   1.284 128.225  0.00  0.00    -0.506 OA
ATOM     21  H   LIG A   1      -4.233   0.401 128.063  0.00  0.00    +0.292 HD
ENDBRANCH   3  20
BRANCH   1  22
ATOM     22  O   LIG A   1      -8.085   0.399 124.974  0.00  0.00    -0.461 OA
BRANCH  22  28
ATOM     23  C   LIG A   1      -8.404  -1.485 123.521  0.00  0.00    +0.214 C 
ATOM     24  C   LIG A   1      -8.692  -2.987 123.472  0.00  0.00    +0.180 C 
ATOM     25  C   LIG A   1      -7.851  -3.737 124.506  0.00  0.00    +0.174 C 
ATOM     26  C   LIG A   1      -7.992  -3.133 125.916  0.00  0.00    +0.150 C 
ATOM     27  O   LIG A   1      -7.714  -1.725 125.881  0.00  0.00    -0.334 OA
ATOM     28  C   LIG A   1      -8.524  -0.971 124.969  0.00  0.00    +0.339 C 
ATOM     29  C   LIG A   1      -9.305  -3.442 126.629  0.00  0.00    +0.040 C 
BRANCH  23  30
ATOM     30  O   LIG A   1      -9.372  -0.845 122.662  0.00  0.00    -0.383 OA
ATOM     31  H   LIG A   1      -8.873  -0.282 122.043  0.00  0.00    +0.210 HD
ENDBRANCH  23  30
BRANCH  25  32
ATOM     32  O   LIG A   1      -6.473  -3.658 124.102  0.00  0.00    -0.387 OA
ATOM     33  H   LIG A   1      -6.185  -2.730 124.198  0.00  0.00    +0.210 HD
ENDBRANCH  25  32
BRANCH  24  34
ATOM     34  O   LIG A   1     -10.092  -3.214 123.687  0.00  0.00    -0.386 OA
ATOM     35  H   LIG A   1     -10.222  -4.170 123.514  0.00  0.00    +0.210 HD
ENDBRANCH  24  34
ENDBRANCH  22  28
ENDBRANCH   1  22
BRANCH   6  36
ATOM     36  O   LIG A   1      -6.652   4.735 131.044  0.00  0.00    -0.453 OA
BRANCH  36  37
ATOM     37  C   LIG A   1      -5.513   5.427 130.467  0.00  0.00    +0.340 C 
ATOM     38  O   LIG A   1      -4.302   4.777 130.896  0.00  0.00    -0.334 OA
ATOM     39  C   LIG A   1      -3.086   5.364 130.400  0.00  0.00    +0.150 C 
ATOM     40  C   LIG A   1      -2.983   6.875 130.695  0.00  0.00    +0.174 C 
ATOM     41  C   LIG A   1      -4.278   7.620 130.362  0.00  0.00    +0.180 C 
ATOM     42  C   LIG A   1      -5.506   6.900 130.936  0.00  0.00    +0.214 C 
ATOM     43  C   LIG A   1      -2.815   5.046 128.931  0.00  0.00    +0.040 C 
BRANCH  42  44
ATOM     44  O   LIG A   1      -6.677   7.610 130.480  0.00  0.00    -0.383 OA
ATOM     45  H   LIG A   1      -6.992   7.135 129.689  0.00  0.00    +0.210 HD
ENDBRANCH  42  44
BRANCH  41  46
ATOM     46  O   LIG A   1      -4.421   7.769 128.942  0.00  0.00    -0.386 OA
ATOM     47  H   LIG A   1      -3.931   7.022 128.540  0.00  0.00    +0.210 HD
ENDBRANCH  41  46
BRANCH  40  48
ATOM     48  O   LIG A   1      -2.697   7.076 132.087  0.00  0.00    -0.387 OA
ATOM     49  H   LIG A   1      -2.694   6.198 132.511  0.00  0.00    +0.210 HD
ENDBRANCH  40  48
ENDBRANCH  36  37
ENDBRANCH   6  36
TORSDOF 13
ENDMDL
MODEL 5
REMARK VINA RESULT:      -8.4      3.816      6.342
REMARK  Name = NuBBE_56
REMARK  15 active torsions:
REMARK  status: ('A' for Active; 'I' for Inactive)
REMARK    1  A    between atoms: O_1  and  C_2
REMARK    2  A    between atoms: C_4  and  O_51
REMARK    3  A    between atoms: C_6  and  O_50
REMARK    4  A    between atoms: C_8  and  C_49
REMARK    5  A    between atoms: C_11  and  O_13
REMARK    6  A    between atoms: O_13  and  C_14
REMARK    7  A    between atoms: C_16  and  O_17
REMARK    8  A    between atoms: C_20  and  O_21
REMARK    9  A    between atoms: O_21  and  C_22
REMARK   10  A    between atoms: C_25  and  C_36
REMARK   11  A    between atoms: C_27  and  O_35
REMARK   12  A    between atoms: C_29  and  O_34
REMARK   13  A    between atoms: C_31  and  O_33
REMARK   14  A    between atoms: C_37  and  C_41
REMARK   15  A    between atoms: C_44  and  O_47
REMARK                            x       y       z     vdW  Elec       q    Type
REMARK                         _______ _______ _______ _____ _____    ______ ____
ROOT
ATOM      1  C   LIG A   1      -8.989   6.193 131.541  0.00  0.00    +0.131 A 
ATOM      2  C   LIG A   1      -9.277   5.805 132.856  0.00  0.00    +0.092 A 
ATOM      3  C   LIG A   1      -8.736   4.635 133.381  0.00  0.00    +0.135 A 
ATOM      4  C   LIG A   1      -7.932   3.843 132.579  0.00  0.00    +0.109 A 
ATOM      5  C   LIG A   1      -7.301   2.609 133.054  0.00  0.00    +0.238 A 
ATOM      6  C   LIG A   1      -7.275   1.510 132.048  0.00  0.00    +0.214 A 
ATOM      7  C   LIG A   1      -7.089   1.932 130.773  0.00  0.00    +0.181 A 
ATOM      8  O   LIG A   1      -7.029   3.300 130.432  0.00  0.00    -0.451 OA
ATOM      9  C   LIG A   1      -7.712   4.164 131.255  0.00  0.00    +0.146 A 
ATOM     10  C   LIG A   1      -8.203   5.359 130.733  0.00  0.00    +0.093 A 
ATOM     11  O   LIG A   1      -6.815   2.515 134.161  0.00  0.00    -0.283 OA
ENDROOT
BRANCH   7  12
ATOM     12  C   LIG A   1      -6.893   1.069 129.577  0.00  0.00    +0.021 A 
ATOM     13  C   LIG A   1      -5.593   0.788 129.102  0.00  0.00    +0.015 A 
ATOM     14  C   LIG A   1      -5.377  -0.077 128.020  0.00  0.00    +0.046 A 
ATOM     15  C   LIG A   1      -6.468  -0.670 127.400  0.00  0.00    +0.117 A 
ATOM     16  C   LIG A   1      -7.756  -0.419 127.852  0.00  0.00    +0.046 A 
ATOM     17  C   LIG A   1      -7.967   0.441 128.934  0.00  0.00    +0.015 A 
BRANCH  15  18
ATOM     18  O   LIG A   1      -6.323  -1.519 126.345  0.00  0.00    -0.507 OA
ATOM     19  H   LIG A   1      -6.414  -1.013 125.522  0.00  0.00    +0.292 HD
ENDBRANCH  15  18
ENDBRANCH   7  12
BRANCH   3  20
ATOM     20  O   LIG A   1      -9.057   4.244 134.647  0.00  0.00    -0.506 OA
ATOM     21  H   LIG A   1      -9.185   3.282 134.681  0.00  0.00    +0.292 HD
ENDBRANCH   3  20
BRANCH   1  22
ATOM     22  O   LIG A   1      -9.419   7.346 130.942  0.00  0.00    -0.461 OA
BRANCH  22  28
ATOM     23  C   LIG A   1     -11.744   7.377 130.341  0.00  0.00    +0.214 C 
ATOM     24  C   LIG A   1     -12.728   7.432 129.171  0.00  0.00    +0.180 C 
ATOM     25  C   LIG A   1     -12.295   8.478 128.143  0.00  0.00    +0.174 C 
ATOM     26  C   LIG A   1     -10.832   8.286 127.702  0.00  0.00    +0.150 C 
ATOM     27  O   LIG A   1      -9.971   8.237 128.850  0.00  0.00    -0.334 OA
ATOM     28  C   LIG A   1     -10.304   7.227 129.812  0.00  0.00    +0.339 C 
ATOM     29  C   LIG A   1     -10.586   7.120 126.749  0.00  0.00    +0.040 C 
BRANCH  23  30
ATOM     30  O   LIG A   1     -12.118   6.241 131.150  0.00  0.00    -0.383 OA
ATOM     31  H   LIG A   1     -11.359   6.044 131.728  0.00  0.00    +0.210 HD
ENDBRANCH  23  30
BRANCH  25  32
ATOM     32  O   LIG A   1     -12.432   9.777 128.744  0.00  0.00    -0.387 OA
ATOM     33  H   LIG A   1     -12.447   9.660 129.713  0.00  0.00    +0.210 HD
ENDBRANCH  25  32
BRANCH  24  34
ATOM     34  O   LIG A   1     -12.831   6.134 128.569  0.00  0.00    -0.386 OA
ATOM     35  H   LIG A   1     -12.621   5.504 129.291  0.00  0.00    +0.210 HD
ENDBRANCH  24  34
ENDBRANCH  22  28
ENDBRANCH   1  22
BRANCH   6  36
ATOM     36  O   LIG A   1      -7.389   0.185 132.456  0.00  0.00    -0.453 OA
BRANCH  36  37
ATOM     37  C   LIG A   1      -6.150  -0.539 132.677  0.00  0.00    +0.340 C 
ATOM     38  O   LIG A   1      -6.021  -1.568 131.677  0.00  0.00    -0.334 OA
ATOM     39  C   LIG A   1      -4.833  -2.372 131.778  0.00  0.00    +0.150 C 
ATOM     40  C   LIG A   1      -4.648  -2.998 133.176  0.00  0.00    +0.174 C 
ATOM     41  C   LIG A   1      -4.876  -1.986 134.300  0.00  0.00    +0.180 C 
ATOM     42  C   LIG A   1      -6.166  -1.183 134.083  0.00  0.00    +0.214 C 
ATOM     43  C   LIG A   1      -3.572  -1.654 131.299  0.00  0.00    +0.040 C 
BRANCH  42  44
ATOM     44  O   LIG A   1      -6.238  -0.186 135.124  0.00  0.00    -0.383 OA
ATOM     45  H   LIG A   1      -7.187  -0.028 135.284  0.00  0.00    +0.210 HD
ENDBRANCH  42  44
BRANCH  41  46
ATOM     46  O   LIG A   1      -3.759  -1.090 134.404  0.00  0.00    -0.386 OA
ATOM     47  H   LIG A   1      -3.401  -1.207 135.309  0.00  0.00    +0.210 HD
ENDBRANCH  41  46
BRANCH  40  48
ATOM     48  O   LIG A   1      -5.581  -4.075 133.349  0.00  0.00    -0.387 OA
ATOM     49  H   LIG A   1      -5.076  -4.845 133.668  0.00  0.00    +0.210 HD
ENDBRANCH  40  48
ENDBRANCH  36  37
ENDBRANCH   6  36
TORSDOF 13
ENDMDL
MODEL 6
REMARK VINA RESULT:      -8.4      3.422      9.394
REMARK  Name = NuBBE_56
REMARK  15 active torsions:
REMARK  status: ('A' for Active; 'I' for Inactive)
REMARK    1  A    between atoms: O_1  and  C_2
REMARK    2  A    between atoms: C_4  and  O_51
REMARK    3  A    between atoms: C_6  and  O_50
REMARK    4  A    between atoms: C_8  and  C_49
REMARK    5  A    between atoms: C_11  and  O_13
REMARK    6  A    between atoms: O_13  and  C_14
REMARK    7  A    between atoms: C_16  and  O_17
REMARK    8  A    between atoms: C_20  and  O_21
REMARK    9  A    between atoms: O_21  and  C_22
REMARK   10  A    between atoms: C_25  and  C_36
REMARK   11  A    between atoms: C_27  and  O_35
REMARK   12  A    between atoms: C_29  and  O_34
REMARK   13  A    between atoms: C_31  and  O_33
REMARK   14  A    between atoms: C_37  and  C_41
REMARK   15  A    between atoms: C_44  and  O_47
REMARK                            x       y       z     vdW  Elec       q    Type
REMARK                         _______ _______ _______ _____ _____    ______ ____
ROOT
ATOM      1  C   LIG A   1      -8.131   1.692 125.225  0.00  0.00    +0.131 A 
ATOM      2  C   LIG A   1      -6.972   2.207 124.630  0.00  0.00    +0.092 A 
ATOM      3  C   LIG A   1      -6.029   2.887 125.395  0.00  0.00    +0.135 A 
ATOM      4  C   LIG A   1      -6.263   3.075 126.747  0.00  0.00    +0.109 A 
ATOM      5  C   LIG A   1      -5.316   3.756 127.633  0.00  0.00    +0.238 A 
ATOM      6  C   LIG A   1      -5.958   4.628 128.657  0.00  0.00    +0.214 A 
ATOM      7  C   LIG A   1      -7.127   4.142 129.142  0.00  0.00    +0.181 A 
ATOM      8  O   LIG A   1      -7.723   2.966 128.638  0.00  0.00    -0.451 OA
ATOM      9  C   LIG A   1      -7.441   2.653 127.330  0.00  0.00    +0.146 A 
ATOM     10  C   LIG A   1      -8.368   1.924 126.588  0.00  0.00    +0.093 A 
ATOM     11  O   LIG A   1      -4.118   3.590 127.551  0.00  0.00    -0.283 OA
ENDROOT
BRANCH   7  12
ATOM     12  C   LIG A   1      -7.929   4.718 130.255  0.00  0.00    +0.021 A 
ATOM     13  C   LIG A   1      -7.794   4.216 131.568  0.00  0.00    +0.015 A 
ATOM     14  C   LIG A   1      -8.485   4.787 132.647  0.00  0.00    +0.046 A 
ATOM     15  C   LIG A   1      -9.323   5.870 132.417  0.00  0.00    +0.117 A 
ATOM     16  C   LIG A   1      -9.467   6.389 131.139  0.00  0.00    +0.046 A 
ATOM     17  C   LIG A   1      -8.773   5.820 130.066  0.00  0.00    +0.015 A 
BRANCH  15  18
ATOM     18  O   LIG A   1     -10.021   6.465 133.424  0.00  0.00    -0.507 OA
ATOM     19  H   LIG A   1     -10.779   5.905 133.652  0.00  0.00    +0.292 HD
ENDBRANCH  15  18
ENDBRANCH   7  12
BRANCH   3  20
ATOM     20  O   LIG A   1      -4.926   3.422 124.799  0.00  0.00    -0.506 OA
ATOM     21  H   LIG A   1      -4.941   3.250 123.844  0.00  0.00    +0.292 HD
ENDBRANCH   3  20
BRANCH   1  22
ATOM     22  O   LIG A   1      -9.095   0.962 124.583  0.00  0.00    -0.461 OA
BRANCH  22  28
ATOM     23  C   LIG A   1      -9.021  -1.013 123.221  0.00  0.00    +0.214 C 
ATOM     24  C   LIG A   1      -8.768  -2.523 123.226  0.00  0.00    +0.180 C 
ATOM     25  C   LIG A   1      -7.526  -2.864 124.051  0.00  0.00    +0.174 C 
ATOM     26  C   LIG A   1      -7.580  -2.249 125.462  0.00  0.00    +0.150 C 
ATOM     27  O   LIG A   1      -7.827  -0.837 125.377  0.00  0.00    -0.334 OA
ATOM     28  C   LIG A   1      -9.017  -0.473 124.664  0.00  0.00    +0.339 C 
ATOM     29  C   LIG A   1      -8.527  -2.940 126.438  0.00  0.00    +0.040 C 
BRANCH  23  30
ATOM     30  O   LIG A   1     -10.305  -0.807 122.594  0.00  0.00    -0.383 OA
ATOM     31  H   LIG A   1     -10.976  -1.171 123.200  0.00  0.00    +0.210 HD
ENDBRANCH  23  30
BRANCH  25  32
ATOM     32  O   LIG A   1      -6.376  -2.344 123.361  0.00  0.00    -0.387 OA
ATOM     33  H   LIG A   1      -6.687  -1.680 122.717  0.00  0.00    +0.210 HD
ENDBRANCH  25  32
BRANCH  24  34
ATOM     34  O   LIG A   1      -9.924  -3.201 123.735  0.00  0.00    -0.386 OA
ATOM     35  H   LIG A   1     -10.680  -2.623 123.498  0.00  0.00    +0.210 HD
ENDBRANCH  24  34
ENDBRANCH  22  28
ENDBRANCH   1  22
BRANCH   6  36
ATOM     36  O   LIG A   1      -5.333   5.801 129.070  0.00  0.00    -0.453 OA
BRANCH  36  37
ATOM     37  C   LIG A   1      -4.534   5.723 130.280  0.00  0.00    +0.340 C 
ATOM     38  O   LIG A   1      -5.147   6.534 131.300  0.00  0.00    -0.334 OA
ATOM     39  C   LIG A   1      -4.455   6.554 132.561  0.00  0.00    +0.150 C 
ATOM     40  C   LIG A   1      -2.970   6.948 132.425  0.00  0.00    +0.174 C 
ATOM     41  C   LIG A   1      -2.273   6.203 131.285  0.00  0.00    +0.180 C 
ATOM     42  C   LIG A   1      -3.105   6.242 129.995  0.00  0.00    +0.214 C 
ATOM     43  C   LIG A   1      -4.637   5.273 133.374  0.00  0.00    +0.040 C 
BRANCH  42  44
ATOM     44  O   LIG A   1      -2.427   5.426 129.016  0.00  0.00    -0.383 OA
ATOM     45  H   LIG A   1      -3.058   5.302 128.283  0.00  0.00    +0.210 HD
ENDBRANCH  42  44
BRANCH  41  46
ATOM     46  O   LIG A   1      -2.018   4.840 131.657  0.00  0.00    -0.386 OA
ATOM     47  H   LIG A   1      -1.731   4.864 132.593  0.00  0.00    +0.210 HD
ENDBRANCH  41  46
BRANCH  40  48
ATOM     48  O   LIG A   1      -2.866   8.357 132.168  0.00  0.00    -0.387 OA
ATOM     49  H   LIG A   1      -2.489   8.768 132.966  0.00  0.00    +0.210 HD
ENDBRANCH  40  48
ENDBRANCH  36  37
ENDBRANCH   6  36
TORSDOF 13
ENDMDL
MODEL 7
REMARK VINA RESULT:      -8.4      3.494      4.828
REMARK  Name = NuBBE_56
REMARK  15 active torsions:
REMARK  status: ('A' for Active; 'I' for Inactive)
REMARK    1  A    between atoms: O_1  and  C_2
REMARK    2  A    between atoms: C_4  and  O_51
REMARK    3  A    between atoms: C_6  and  O_50
REMARK    4  A    between atoms: C_8  and  C_49
REMARK    5  A    between atoms: C_11  and  O_13
REMARK    6  A    between atoms: O_13  and  C_14
REMARK    7  A    between atoms: C_16  and  O_17
REMARK    8  A    between atoms: C_20  and  O_21
REMARK    9  A    between atoms: O_21  and  C_22
REMARK   10  A    between atoms: C_25  and  C_36
REMARK   11  A    between atoms: C_27  and  O_35
REMARK   12  A    between atoms: C_29  and  O_34
REMARK   13  A    between atoms: C_31  and  O_33
REMARK   14  A    between atoms: C_37  and  C_41
REMARK   15  A    between atoms: C_44  and  O_47
REMARK                            x       y       z     vdW  Elec       q    Type
REMARK                         _______ _______ _______ _____ _____    ______ ____
ROOT
ATOM      1  C   LIG A   1      -6.185   3.418 130.880  0.00  0.00    +0.131 A 
ATOM      2  C   LIG A   1      -6.858   2.346 131.479  0.00  0.00    +0.092 A 
ATOM      3  C   LIG A   1      -7.253   1.248 130.720  0.00  0.00    +0.135 A 
ATOM      4  C   LIG A   1      -6.998   1.240 129.359  0.00  0.00    +0.109 A 
ATOM      5  C   LIG A   1      -7.355   0.118 128.488  0.00  0.00    +0.238 A 
ATOM      6  C   LIG A   1      -7.855   0.524 127.143  0.00  0.00    +0.214 A 
ATOM      7  C   LIG A   1      -7.244   1.623 126.636  0.00  0.00    +0.181 A 
ATOM      8  O   LIG A   1      -6.295   2.366 127.370  0.00  0.00    -0.451 OA
ATOM      9  C   LIG A   1      -6.416   2.327 128.738  0.00  0.00    +0.146 A 
ATOM     10  C   LIG A   1      -5.968   3.408 129.494  0.00  0.00    +0.093 A 
ATOM     11  O   LIG A   1      -7.219  -1.037 128.830  0.00  0.00    -0.283 OA
ENDROOT
BRANCH   7  12
ATOM     12  C   LIG A   1      -7.436   2.190 125.274  0.00  0.00    +0.021 A 
ATOM     13  C   LIG A   1      -6.329   2.390 124.420  0.00  0.00    +0.015 A 
ATOM     14  C   LIG A   1      -6.489   2.857 123.107  0.00  0.00    +0.046 A 
ATOM     15  C   LIG A   1      -7.767   3.130 122.637  0.00  0.00    +0.117 A 
ATOM     16  C   LIG A   1      -8.873   2.933 123.452  0.00  0.00    +0.046 A 
ATOM     17  C   LIG A   1      -8.710   2.463 124.759  0.00  0.00    +0.015 A 
BRANCH  15  18
ATOM     18  O   LIG A   1      -7.986   3.586 121.373  0.00  0.00    -0.507 OA
ATOM     19  H   LIG A   1      -7.172   3.479 120.856  0.00  0.00    +0.292 HD
ENDBRANCH  15  18
ENDBRANCH   7  12
BRANCH   3  20
ATOM     20  O   LIG A   1      -7.946   0.230 131.304  0.00  0.00    -0.506 OA
ATOM     21  H   LIG A   1      -8.154  -0.457 130.650  0.00  0.00    +0.292 HD
ENDBRANCH   3  20
BRANCH   1  22
ATOM     22  O   LIG A   1      -5.703   4.519 131.536  0.00  0.00    -0.461 OA
BRANCH  22  28
ATOM     23  C   LIG A   1      -5.287   6.855 131.171  0.00  0.00    +0.214 C 
ATOM     24  C   LIG A   1      -4.316   7.867 130.558  0.00  0.00    +0.180 C 
ATOM     25  C   LIG A   1      -2.869   7.509 130.899  0.00  0.00    +0.174 C 
ATOM     26  C   LIG A   1      -2.533   6.049 130.542  0.00  0.00    +0.150 C 
ATOM     27  O   LIG A   1      -3.488   5.161 131.145  0.00  0.00    -0.334 OA
ATOM     28  C   LIG A   1      -4.856   5.422 130.802  0.00  0.00    +0.339 C 
ATOM     29  C   LIG A   1      -2.346   5.767 129.055  0.00  0.00    +0.040 C 
BRANCH  23  30
ATOM     30  O   LIG A   1      -6.595   7.155 130.638  0.00  0.00    -0.383 OA
ATOM     31  H   LIG A   1      -6.512   7.153 129.667  0.00  0.00    +0.210 HD
ENDBRANCH  23  30
BRANCH  25  32
ATOM     32  O   LIG A   1      -2.684   7.697 132.313  0.00  0.00    -0.387 OA
ATOM     33  H   LIG A   1      -2.503   8.643 132.469  0.00  0.00    +0.210 HD
ENDBRANCH  25  32
BRANCH  24  34
ATOM     34  O   LIG A   1      -4.511   7.920 129.138  0.00  0.00    -0.386 OA
ATOM     35  H   LIG A   1      -4.436   6.989 128.838  0.00  0.00    +0.210 HD
ENDBRANCH  24  34
ENDBRANCH  22  28
ENDBRANCH   1  22
BRANCH   6  36
ATOM     36  O   LIG A   1      -8.830  -0.233 126.501  0.00  0.00    -0.453 OA
BRANCH  36  37
ATOM     37  C   LIG A   1      -8.368  -1.180 125.503  0.00  0.00    +0.340 C 
ATOM     38  O   LIG A   1      -8.894  -0.802 124.217  0.00  0.00    -0.334 OA
ATOM     39  C   LIG A   1      -8.518  -1.662 123.127  0.00  0.00    +0.150 C 
ATOM     40  C   LIG A   1      -8.845  -3.146 123.391  0.00  0.00    +0.174 C 
ATOM     41  C   LIG A   1      -8.411  -3.596 124.788  0.00  0.00    +0.180 C 
ATOM     42  C   LIG A   1      -8.860  -2.601 125.866  0.00  0.00    +0.214 C 
ATOM     43  C   LIG A   1      -7.074  -1.465 122.669  0.00  0.00    +0.040 C 
BRANCH  42  44
ATOM     44  O   LIG A   1      -8.313  -3.048 127.125  0.00  0.00    -0.383 OA
ATOM     45  H   LIG A   1      -7.375  -3.254 126.955  0.00  0.00    +0.210 HD
ENDBRANCH  42  44
BRANCH  41  46
ATOM     46  O   LIG A   1      -6.986  -3.760 124.841  0.00  0.00    -0.386 OA
ATOM     47  H   LIG A   1      -6.666  -3.135 125.526  0.00  0.00    +0.210 HD
ENDBRANCH  41  46
BRANCH  40  48
ATOM     48  O   LIG A   1     -10.261  -3.356 123.275  0.00  0.00    -0.387 OA
ATOM     49  H   LIG A   1     -10.693  -2.495 123.421  0.00  0.00    +0.210 HD
ENDBRANCH  40  48
ENDBRANCH  36  37
ENDBRANCH   6  36
TORSDOF 13
ENDMDL
MODEL 8
REMARK VINA RESULT:      -8.4      2.792      4.598
REMARK  Name = NuBBE_56
REMARK  15 active torsions:
REMARK  status: ('A' for Active; 'I' for Inactive)
REMARK    1  A    between atoms: O_1  and  C_2
REMARK    2  A    between atoms: C_4  and  O_51
REMARK    3  A    between atoms: C_6  and  O_50
REMARK    4  A    between atoms: C_8  and  C_49
REMARK    5  A    between atoms: C_11  and  O_13
REMARK    6  A    between atoms: O_13  and  C_14
REMARK    7  A    between atoms: C_16  and  O_17
REMARK    8  A    between atoms: C_20  and  O_21
REMARK    9  A    between atoms: O_21  and  C_22
REMARK   10  A    between atoms: C_25  and  C_36
REMARK   11  A    between atoms: C_27  and  O_35
REMARK   12  A    between atoms: C_29  and  O_34
REMARK   13  A    between atoms: C_31  and  O_33
REMARK   14  A    between atoms: C_37  and  C_41
REMARK   15  A    between atoms: C_44  and  O_47
REMARK                            x       y       z     vdW  Elec       q    Type
REMARK                         _______ _______ _______ _____ _____    ______ ____
ROOT
ATOM      1  C   LIG A   1      -9.180   5.897 131.143  0.00  0.00    +0.131 A 
ATOM      2  C   LIG A   1      -9.254   5.256 132.386  0.00  0.00    +0.092 A 
ATOM      3  C   LIG A   1      -8.631   4.027 132.585  0.00  0.00    +0.135 A 
ATOM      4  C   LIG A   1      -7.959   3.432 131.532  0.00  0.00    +0.109 A 
ATOM      5  C   LIG A   1      -7.254   2.154 131.656  0.00  0.00    +0.238 A 
ATOM      6  C   LIG A   1      -7.380   1.268 130.465  0.00  0.00    +0.214 A 
ATOM      7  C   LIG A   1      -7.400   1.931 129.283  0.00  0.00    +0.181 A 
ATOM      8  O   LIG A   1      -7.402   3.341 129.208  0.00  0.00    -0.451 OA
ATOM      9  C   LIG A   1      -7.952   4.007 130.277  0.00  0.00    +0.146 A 
ATOM     10  C   LIG A   1      -8.525   5.261 130.078  0.00  0.00    +0.093 A 
ATOM     11  O   LIG A   1      -6.599   1.868 132.636  0.00  0.00    -0.283 OA
ENDROOT
BRANCH   7  12
ATOM     12  C   LIG A   1      -7.390   1.320 127.926  0.00  0.00    +0.021 A 
ATOM     13  C   LIG A   1      -8.534   0.656 127.432  0.00  0.00    +0.015 A 
ATOM     14  C   LIG A   1      -8.575   0.132 126.132  0.00  0.00    +0.046 A 
ATOM     15  C   LIG A   1      -7.463   0.269 125.312  0.00  0.00    +0.117 A 
ATOM     16  C   LIG A   1      -6.328   0.924 125.769  0.00  0.00    +0.046 A 
ATOM     17  C   LIG A   1      -6.293   1.449 127.064  0.00  0.00    +0.015 A 
BRANCH  15  18
ATOM     18  O   LIG A   1      -7.442  -0.220 124.041  0.00  0.00    -0.507 OA
ATOM     19  H   LIG A   1      -8.349  -0.239 123.698  0.00  0.00    +0.292 HD
ENDBRANCH  15  18
ENDBRANCH   7  12
BRANCH   3  20
ATOM     20  O   LIG A   1      -8.747   3.391 133.785  0.00  0.00    -0.506 OA
ATOM     21  H   LIG A   1      -9.458   3.790 134.312  0.00  0.00    +0.292 HD
ENDBRANCH   3  20
BRANCH   1  22
ATOM     22  O   LIG A   1      -9.705   7.127 130.851  0.00  0.00    -0.461 OA
BRANCH  22  28
ATOM     23  C   LIG A   1     -12.061   7.410 130.488  0.00  0.00    +0.214 C 
ATOM     24  C   LIG A   1     -13.137   7.674 129.432  0.00  0.00    +0.180 C 
ATOM     25  C   LIG A   1     -12.705   8.789 128.480  0.00  0.00    +0.174 C 
ATOM     26  C   LIG A   1     -11.310   8.531 127.880  0.00  0.00    +0.150 C 
ATOM     27  O   LIG A   1     -10.358   8.286 128.927  0.00  0.00    -0.334 OA
ATOM     28  C   LIG A   1     -10.694   7.205 129.808  0.00  0.00    +0.339 C 
ATOM     29  C   LIG A   1     -11.256   7.461 126.793  0.00  0.00    +0.040 C 
BRANCH  23  30
ATOM     30  O   LIG A   1     -12.464   6.226 131.209  0.00  0.00    -0.383 OA
ATOM     31  H   LIG A   1     -13.155   6.500 131.839  0.00  0.00    +0.210 HD
ENDBRANCH  23  30
BRANCH  25  32
ATOM     32  O   LIG A   1     -12.670  10.021 129.222  0.00  0.00    -0.387 OA
ATOM     33  H   LIG A   1     -12.277   9.833 130.096  0.00  0.00    +0.210 HD
ENDBRANCH  25  32
BRANCH  24  34
ATOM     34  O   LIG A   1     -13.410   6.463 128.714  0.00  0.00    -0.386 OA
ATOM     35  H   LIG A   1     -13.603   6.751 127.797  0.00  0.00    +0.210 HD
ENDBRANCH  24  34
ENDBRANCH  22  28
ENDBRANCH   1  22
BRANCH   6  36
ATOM     36  O   LIG A   1      -7.422  -0.114 130.621  0.00  0.00    -0.453 OA
BRANCH  36  37
ATOM     37  C   LIG A   1      -6.331  -0.870 130.031  0.00  0.00    +0.340 C 
ATOM     38  O   LIG A   1      -6.876  -1.957 129.260  0.00  0.00    -0.334 OA
ATOM     39  C   LIG A   1      -5.902  -2.798 128.618  0.00  0.00    +0.150 C 
ATOM     40  C   LIG A   1      -4.846  -3.352 129.598  0.00  0.00    +0.174 C 
ATOM     41  C   LIG A   1      -4.296  -2.270 130.529  0.00  0.00    +0.180 C 
ATOM     42  C   LIG A   1      -5.423  -1.433 131.149  0.00  0.00    +0.214 C 
ATOM     43  C   LIG A   1      -5.263  -2.156 127.388  0.00  0.00    +0.040 C 
BRANCH  42  44
ATOM     44  O   LIG A   1      -4.808  -0.377 131.918  0.00  0.00    -0.383 OA
ATOM     45  H   LIG A   1      -5.228   0.453 131.624  0.00  0.00    +0.210 HD
ENDBRANCH  42  44
BRANCH  41  46
ATOM     46  O   LIG A   1      -3.388  -1.413 129.822  0.00  0.00    -0.386 OA
ATOM     47  H   LIG A   1      -2.486  -1.704 130.074  0.00  0.00    +0.210 HD
ENDBRANCH  41  46
BRANCH  40  48
ATOM     48  O   LIG A   1      -5.433  -4.382 130.407  0.00  0.00    -0.387 OA
ATOM     49  H   LIG A   1      -4.720  -4.760 130.953  0.00  0.00    +0.210 HD
ENDBRANCH  40  48
ENDBRANCH  36  37
ENDBRANCH   6  36
TORSDOF 13
ENDMDL
MODEL 9
REMARK VINA RESULT:      -8.1      3.520      9.032
REMARK  Name = NuBBE_56
REMARK  15 active torsions:
REMARK  status: ('A' for Active; 'I' for Inactive)
REMARK    1  A    between atoms: O_1  and  C_2
REMARK    2  A    between atoms: C_4  and  O_51
REMARK    3  A    between atoms: C_6  and  O_50
REMARK    4  A    between atoms: C_8  and  C_49
REMARK    5  A    between atoms: C_11  and  O_13
REMARK    6  A    between atoms: O_13  and  C_14
REMARK    7  A    between atoms: C_16  and  O_17
REMARK    8  A    between atoms: C_20  and  O_21
REMARK    9  A    between atoms: O_21  and  C_22
REMARK   10  A    between atoms: C_25  and  C_36
REMARK   11  A    between atoms: C_27  and  O_35
REMARK   12  A    between atoms: C_29  and  O_34
REMARK   13  A    between atoms: C_31  and  O_33
REMARK   14  A    between atoms: C_37  and  C_41
REMARK   15  A    between atoms: C_44  and  O_47
REMARK                            x       y       z     vdW  Elec       q    Type
REMARK                         _______ _______ _______ _____ _____    ______ ____
ROOT
ATOM      1  C   LIG A   1      -6.537   0.070 128.016  0.00  0.00    +0.131 A 
ATOM      2  C   LIG A   1      -7.849   0.544 128.139  0.00  0.00    +0.092 A 
ATOM      3  C   LIG A   1      -8.093   1.897 128.358  0.00  0.00    +0.135 A 
ATOM      4  C   LIG A   1      -7.022   2.765 128.481  0.00  0.00    +0.109 A 
ATOM      5  C   LIG A   1      -7.184   4.207 128.686  0.00  0.00    +0.238 A 
ATOM      6  C   LIG A   1      -6.190   4.805 129.623  0.00  0.00    +0.214 A 
ATOM      7  C   LIG A   1      -4.954   4.255 129.541  0.00  0.00    +0.181 A 
ATOM      8  O   LIG A   1      -4.673   3.149 128.712  0.00  0.00    -0.451 OA
ATOM      9  C   LIG A   1      -5.723   2.301 128.451  0.00  0.00    +0.146 A 
ATOM     10  C   LIG A   1      -5.465   0.959 128.179  0.00  0.00    +0.093 A 
ATOM     11  O   LIG A   1      -8.035   4.852 128.113  0.00  0.00    -0.283 OA
ENDROOT
BRANCH   7  12
ATOM     12  C   LIG A   1      -3.732   4.721 130.251  0.00  0.00    +0.021 A 
ATOM     13  C   LIG A   1      -2.981   5.806 129.747  0.00  0.00    +0.015 A 
ATOM     14  C   LIG A   1      -1.866   6.310 130.433  0.00  0.00    +0.046 A 
ATOM     15  C   LIG A   1      -1.492   5.725 131.636  0.00  0.00    +0.117 A 
ATOM     16  C   LIG A   1      -2.216   4.664 132.158  0.00  0.00    +0.046 A 
ATOM     17  C   LIG A   1      -3.330   4.168 131.474  0.00  0.00    +0.015 A 
BRANCH  15  18
ATOM     18  O   LIG A   1      -0.418   6.169 132.347  0.00  0.00    -0.507 OA
ATOM     19  H   LIG A   1      -0.066   5.434 132.873  0.00  0.00    +0.292 HD
ENDBRANCH  15  18
ENDBRANCH   7  12
BRANCH   3  20
ATOM     20  O   LIG A   1      -9.371   2.341 128.520  0.00  0.00    -0.506 OA
ATOM     21  H   LIG A   1      -9.432   3.285 128.301  0.00  0.00    +0.292 HD
ENDBRANCH   3  20
BRANCH   1  22
ATOM     22  O   LIG A   1      -6.183  -1.225 127.746  0.00  0.00    -0.461 OA
BRANCH  22  28
ATOM     23  C   LIG A   1      -8.144  -2.281 126.850  0.00  0.00    +0.214 C 
ATOM     24  C   LIG A   1      -8.817  -2.778 125.568  0.00  0.00    +0.180 C 
ATOM     25  C   LIG A   1      -8.675  -1.750 124.445  0.00  0.00    +0.174 C 
ATOM     26  C   LIG A   1      -7.212  -1.316 124.237  0.00  0.00    +0.150 C 
ATOM     27  O   LIG A   1      -6.647  -0.871 125.480  0.00  0.00    -0.334 OA
ATOM     28  C   LIG A   1      -6.702  -1.828 126.547  0.00  0.00    +0.339 C 
ATOM     29  C   LIG A   1      -6.322  -2.338 123.536  0.00  0.00    +0.040 C 
BRANCH  23  30
ATOM     30  O   LIG A   1      -8.154  -3.384 127.782  0.00  0.00    -0.383 OA
ATOM     31  H   LIG A   1      -8.203  -2.997 128.676  0.00  0.00    +0.210 HD
ENDBRANCH  23  30
BRANCH  25  32
ATOM     32  O   LIG A   1      -9.457  -0.595 124.796  0.00  0.00    -0.387 OA
ATOM     33  H   LIG A   1      -8.932   0.199 124.578  0.00  0.00    +0.210 HD
ENDBRANCH  25  32
BRANCH  24  34
ATOM     34  O   LIG A   1      -8.249  -4.038 125.186  0.00  0.00    -0.386 OA
ATOM     35  H   LIG A   1      -8.288  -4.046 124.206  0.00  0.00    +0.210 HD
ENDBRANCH  24  34
ENDBRANCH  22  28
ENDBRANCH   1  22
BRANCH   6  36
ATOM     36  O   LIG A   1      -6.555   5.865 130.447  0.00  0.00    -0.453 OA
BRANCH  36  37
ATOM     37  C   LIG A   1      -7.283   5.529 131.658  0.00  0.00    +0.340 C 
ATOM     38  O   LIG A   1      -7.015   4.157 132.002  0.00  0.00    -0.334 OA
ATOM     39  C   LIG A   1      -7.679   3.684 133.187  0.00  0.00    +0.150 C 
ATOM     40  C   LIG A   1      -9.205   3.909 133.151  0.00  0.00    +0.174 C 
ATOM     41  C   LIG A   1      -9.573   5.321 132.688  0.00  0.00    +0.180 C 
ATOM     42  C   LIG A   1      -8.800   5.718 131.423  0.00  0.00    +0.214 C 
ATOM     43  C   LIG A   1      -7.053   4.202 134.481  0.00  0.00    +0.040 C 
BRANCH  42  44
ATOM     44  O   LIG A   1      -9.126   7.093 131.129  0.00  0.00    -0.383 OA
ATOM     45  H   LIG A   1      -9.891   7.317 131.691  0.00  0.00    +0.210 HD
ENDBRANCH  42  44
BRANCH  41  46
ATOM     46  O   LIG A   1      -9.320   6.273 133.731  0.00  0.00    -0.386 OA
ATOM     47  H   LIG A   1      -9.465   5.797 134.575  0.00  0.00    +0.210 HD
ENDBRANCH  41  46
BRANCH  40  48
ATOM     48  O   LIG A   1      -9.810   2.971 132.249  0.00  0.00    -0.387 OA
ATOM     49  H   LIG A   1      -9.113   2.351 131.968  0.00  0.00    +0.210 HD
ENDBRANCH  40  48
ENDBRANCH  36  37
ENDBRANCH   6  36
TORSDOF 13
ENDMDL
