MODEL 1
REMARK VINA RESULT:      -6.2      0.000      0.000
REMARK  Name = NuBBE_218
REMARK  8 active torsions:
REMARK  status: ('A' for Active; 'I' for Inactive)
REMARK    1  A    between atoms: O_1  and  C_2
REMARK    2  A    between atoms: C_7  and  C_8
REMARK    3  A    between atoms: C_9  and  C_18
REMARK    4  A    between atoms: C_12  and  O_17
REMARK    5  A    between atoms: C_14  and  C_16
REMARK    6  A    between atoms: C_18  and  C_20
REMARK    7  A    between atoms: C_18  and  C_22
REMARK    8  A    between atoms: C_20  and  O_21
REMARK                            x       y       z     vdW  Elec       q    Type
REMARK                         _______ _______ _______ _____ _____    ______ ____
ROOT
ATOM      1  C   LIG A   1      -6.046  -1.970 123.047  0.00  0.00    +0.120 A 
ATOM      2  C   LIG A   1      -6.937  -0.959 123.411  0.00  0.00    +0.050 A 
ATOM      3  C   LIG A   1      -7.344  -0.806 124.751  0.00  0.00    -0.035 A 
ATOM      4  C   LIG A   1      -6.832  -1.687 125.718  0.00  0.00    -0.040 A 
ATOM      5  C   LIG A   1      -5.898  -2.670 125.334  0.00  0.00    +0.011 A 
ATOM      6  C   LIG A   1      -5.503  -2.824 124.000  0.00  0.00    -0.009 A 
ATOM      7  C   LIG A   1      -4.534  -3.905 123.616  0.00  0.00    +0.048 C 
ATOM      8  C   LIG A   1      -7.258  -1.611 127.178  0.00  0.00    +0.027 C 
ATOM      9  C   LIG A   1      -7.471  -0.125 127.519  0.00  0.00    +0.040 C 
ATOM     10  C   LIG A   1      -8.528   0.527 126.632  0.00  0.00    +0.122 C 
ATOM     11  C   LIG A   1      -8.240   0.368 125.120  0.00  0.00    +0.045 C 
ATOM     12  C   LIG A   1      -9.573   0.343 124.356  0.00  0.00    +0.015 C 
ENDROOT
BRANCH   1  13
ATOM     13  O   LIG A   1      -5.683  -2.127 121.739  0.00  0.00    -0.506 OA
ATOM     14  H   LIG A   1      -6.484  -2.151 121.194  0.00  0.00    +0.292 HD
ENDBRANCH   1  13
BRANCH  10  15
ATOM     15  O   LIG A   1      -8.586   1.928 126.932  0.00  0.00    -0.391 OA
ATOM     16  H   LIG A   1      -8.968   2.029 127.819  0.00  0.00    +0.210 HD
ENDBRANCH  10  15
BRANCH   8  17
ATOM     17  C   LIG A   1      -8.488  -2.536 127.470  0.00  0.00    +0.019 C 
ATOM     18  C   LIG A   1      -8.217  -3.500 128.636  0.00  0.00    +0.010 C 
BRANCH  17  19
ATOM     19  C   LIG A   1      -8.914  -3.377 126.248  0.00  0.00    +0.159 C 
BRANCH  19  20
ATOM     20  O   LIG A   1     -10.132  -2.884 125.700  0.00  0.00    -0.395 OA
ATOM     21  H   LIG A   1     -10.796  -2.914 126.410  0.00  0.00    +0.209 HD
ENDBRANCH  19  20
ENDBRANCH  17  19
ENDBRANCH   8  17
TORSDOF 5
ENDMDL
MODEL 2
REMARK VINA RESULT:      -6.2      2.213      4.406
REMARK  Name = NuBBE_218
REMARK  8 active torsions:
REMARK  status: ('A' for Active; 'I' for Inactive)
REMARK    1  A    between atoms: O_1  and  C_2
REMARK    2  A    between atoms: C_7  and  C_8
REMARK    3  A    between atoms: C_9  and  C_18
REMARK    4  A    between atoms: C_12  and  O_17
REMARK    5  A    between atoms: C_14  and  C_16
REMARK    6  A    between atoms: C_18  and  C_20
REMARK    7  A    between atoms: C_18  and  C_22
REMARK    8  A    between atoms: C_20  and  O_21
REMARK                            x       y       z     vdW  Elec       q    Type
REMARK                         _______ _______ _______ _____ _____    ______ ____
ROOT
ATOM      1  C   LIG A   1      -8.406   2.627 124.823  0.00  0.00    +0.120 A 
ATOM      2  C   LIG A   1      -7.914   1.944 125.937  0.00  0.00    +0.050 A 
ATOM      3  C   LIG A   1      -7.357   0.656 125.804  0.00  0.00    -0.035 A 
ATOM      4  C   LIG A   1      -7.302   0.073 124.527  0.00  0.00    -0.040 A 
ATOM      5  C   LIG A   1      -7.762   0.800 123.412  0.00  0.00    +0.011 A 
ATOM      6  C   LIG A   1      -8.322   2.076 123.550  0.00  0.00    -0.009 A 
ATOM      7  C   LIG A   1      -8.839   2.811 122.347  0.00  0.00    +0.048 C 
ATOM      8  C   LIG A   1      -6.753  -1.331 124.312  0.00  0.00    +0.027 C 
ATOM      9  C   LIG A   1      -5.597  -1.533 125.307  0.00  0.00    +0.040 C 
ATOM     10  C   LIG A   1      -6.044  -1.365 126.756  0.00  0.00    +0.122 C 
ATOM     11  C   LIG A   1      -6.744  -0.012 127.027  0.00  0.00    +0.045 C 
ATOM     12  C   LIG A   1      -7.764  -0.193 128.161  0.00  0.00    +0.015 C 
ENDROOT
BRANCH   1  13
ATOM     13  O   LIG A   1      -8.972   3.862 124.970  0.00  0.00    -0.506 OA
ATOM     14  H   LIG A   1      -8.943   4.108 125.907  0.00  0.00    +0.292 HD
ENDBRANCH   1  13
BRANCH  10  15
ATOM     15  O   LIG A   1      -4.895  -1.453 127.610  0.00  0.00    -0.391 OA
ATOM     16  H   LIG A   1      -5.135  -1.079 128.475  0.00  0.00    +0.210 HD
ENDBRANCH  10  15
BRANCH   8  17
ATOM     17  C   LIG A   1      -7.885  -2.412 124.389  0.00  0.00    +0.019 C 
ATOM     18  C   LIG A   1      -7.315  -3.837 124.454  0.00  0.00    +0.010 C 
BRANCH  17  19
ATOM     19  C   LIG A   1      -8.864  -2.346 123.198  0.00  0.00    +0.159 C 
BRANCH  19  20
ATOM     20  O   LIG A   1     -10.014  -3.146 123.450  0.00  0.00    -0.395 OA
ATOM     21  H   LIG A   1     -10.746  -2.537 123.649  0.00  0.00    +0.209 HD
ENDBRANCH  19  20
ENDBRANCH  17  19
ENDBRANCH   8  17
TORSDOF 5
ENDMDL
MODEL 3
REMARK VINA RESULT:      -6.1      8.170     10.172
REMARK  Name = NuBBE_218
REMARK  8 active torsions:
REMARK  status: ('A' for Active; 'I' for Inactive)
REMARK    1  A    between atoms: O_1  and  C_2
REMARK    2  A    between atoms: C_7  and  C_8
REMARK    3  A    between atoms: C_9  and  C_18
REMARK    4  A    between atoms: C_12  and  O_17
REMARK    5  A    between atoms: C_14  and  C_16
REMARK    6  A    between atoms: C_18  and  C_20
REMARK    7  A    between atoms: C_18  and  C_22
REMARK    8  A    between atoms: C_20  and  O_21
REMARK                            x       y       z     vdW  Elec       q    Type
REMARK                         _______ _______ _______ _____ _____    ______ ____
ROOT
ATOM      1  C   LIG A   1     -11.317   6.400 129.029  0.00  0.00    +0.120 A 
ATOM      2  C   LIG A   1     -11.196   5.353 129.945  0.00  0.00    +0.050 A 
ATOM      3  C   LIG A   1     -10.164   5.353 130.905  0.00  0.00    -0.035 A 
ATOM      4  C   LIG A   1      -9.260   6.428 130.926  0.00  0.00    -0.040 A 
ATOM      5  C   LIG A   1      -9.431   7.495 130.022  0.00  0.00    +0.011 A 
ATOM      6  C   LIG A   1     -10.452   7.487 129.065  0.00  0.00    -0.009 A 
ATOM      7  C   LIG A   1     -10.585   8.620 128.089  0.00  0.00    +0.048 C 
ATOM      8  C   LIG A   1      -8.095   6.476 131.906  0.00  0.00    +0.027 C 
ATOM      9  C   LIG A   1      -8.573   5.840 133.223  0.00  0.00    +0.040 C 
ATOM     10  C   LIG A   1      -9.037   4.398 133.034  0.00  0.00    +0.122 C 
ATOM     11  C   LIG A   1     -10.127   4.243 131.947  0.00  0.00    +0.045 C 
ATOM     12  C   LIG A   1     -10.004   2.851 131.308  0.00  0.00    +0.015 C 
ENDROOT
BRANCH   1  13
ATOM     13  O   LIG A   1     -12.303   6.373 128.083  0.00  0.00    -0.506 OA
ATOM     14  H   LIG A   1     -12.948   5.691 128.325  0.00  0.00    +0.292 HD
ENDBRANCH   1  13
BRANCH  10  15
ATOM     15  O   LIG A   1      -9.571   3.915 134.275  0.00  0.00    -0.391 OA
ATOM     16  H   LIG A   1      -9.597   2.945 134.233  0.00  0.00    +0.210 HD
ENDBRANCH  10  15
BRANCH   8  17
ATOM     17  C   LIG A   1      -6.802   5.837 131.296  0.00  0.00    +0.019 C 
ATOM     18  C   LIG A   1      -5.744   6.897 130.952  0.00  0.00    +0.010 C 
BRANCH  17  19
ATOM     19  C   LIG A   1      -7.079   5.011 130.022  0.00  0.00    +0.159 C 
BRANCH  19  20
ATOM     20  O   LIG A   1      -6.055   5.221 129.056  0.00  0.00    -0.395 OA
ATOM     21  H   LIG A   1      -5.651   4.354 128.876  0.00  0.00    +0.209 HD
ENDBRANCH  19  20
ENDBRANCH  17  19
ENDBRANCH   8  17
TORSDOF 5
ENDMDL
MODEL 4
REMARK VINA RESULT:      -6.1      7.481     10.639
REMARK  Name = NuBBE_218
REMARK  8 active torsions:
REMARK  status: ('A' for Active; 'I' for Inactive)
REMARK    1  A    between atoms: O_1  and  C_2
REMARK    2  A    between atoms: C_7  and  C_8
REMARK    3  A    between atoms: C_9  and  C_18
REMARK    4  A    between atoms: C_12  and  O_17
REMARK    5  A    between atoms: C_14  and  C_16
REMARK    6  A    between atoms: C_18  and  C_20
REMARK    7  A    between atoms: C_18  and  C_22
REMARK    8  A    between atoms: C_20  and  O_21
REMARK                            x       y       z     vdW  Elec       q    Type
REMARK                         _______ _______ _______ _____ _____    ______ ____
ROOT
ATOM      1  C   LIG A   1     -11.684   6.815 131.420  0.00  0.00    +0.120 A 
ATOM      2  C   LIG A   1     -10.903   6.237 132.423  0.00  0.00    +0.050 A 
ATOM      3  C   LIG A   1      -9.526   6.014 132.225  0.00  0.00    -0.035 A 
ATOM      4  C   LIG A   1      -8.951   6.388 130.999  0.00  0.00    -0.040 A 
ATOM      5  C   LIG A   1      -9.749   7.012 130.020  0.00  0.00    +0.011 A 
ATOM      6  C   LIG A   1     -11.119   7.224 130.218  0.00  0.00    -0.009 A 
ATOM      7  C   LIG A   1     -11.951   7.857 129.141  0.00  0.00    +0.048 C 
ATOM      8  C   LIG A   1      -7.479   6.140 130.696  0.00  0.00    +0.027 C 
ATOM      9  C   LIG A   1      -6.699   6.330 132.009  0.00  0.00    +0.040 C 
ATOM     10  C   LIG A   1      -7.173   5.382 133.107  0.00  0.00    +0.122 C 
ATOM     11  C   LIG A   1      -8.694   5.472 133.378  0.00  0.00    +0.045 C 
ATOM     12  C   LIG A   1      -9.197   4.104 133.866  0.00  0.00    +0.015 C 
ENDROOT
BRANCH   1  13
ATOM     13  O   LIG A   1     -13.025   6.997 131.614  0.00  0.00    -0.506 OA
ATOM     14  H   LIG A   1     -13.182   7.178 132.553  0.00  0.00    +0.292 HD
ENDBRANCH   1  13
BRANCH  10  15
ATOM     15  O   LIG A   1      -6.482   5.698 134.323  0.00  0.00    -0.391 OA
ATOM     16  H   LIG A   1      -7.112   5.609 135.058  0.00  0.00    +0.210 HD
ENDBRANCH  10  15
BRANCH   8  17
ATOM     17  C   LIG A   1      -7.260   4.756 129.994  0.00  0.00    +0.019 C 
ATOM     18  C   LIG A   1      -5.976   4.738 129.150  0.00  0.00    +0.010 C 
BRANCH  17  19
ATOM     19  C   LIG A   1      -8.435   4.349 129.080  0.00  0.00    +0.159 C 
BRANCH  19  20
ATOM     20  O   LIG A   1      -8.256   4.874 127.769  0.00  0.00    -0.395 OA
ATOM     21  H   LIG A   1      -8.666   5.756 127.758  0.00  0.00    +0.209 HD
ENDBRANCH  19  20
ENDBRANCH  17  19
ENDBRANCH   8  17
TORSDOF 5
ENDMDL
MODEL 5
REMARK VINA RESULT:      -6.0      2.393      4.993
REMARK  Name = NuBBE_218
REMARK  8 active torsions:
REMARK  status: ('A' for Active; 'I' for Inactive)
REMARK    1  A    between atoms: O_1  and  C_2
REMARK    2  A    between atoms: C_7  and  C_8
REMARK    3  A    between atoms: C_9  and  C_18
REMARK    4  A    between atoms: C_12  and  O_17
REMARK    5  A    between atoms: C_14  and  C_16
REMARK    6  A    between atoms: C_18  and  C_20
REMARK    7  A    between atoms: C_18  and  C_22
REMARK    8  A    between atoms: C_20  and  O_21
REMARK                            x       y       z     vdW  Elec       q    Type
REMARK                         _______ _______ _______ _____ _____    ______ ____
ROOT
ATOM      1  C   LIG A   1      -5.829   2.060 125.732  0.00  0.00    +0.120 A 
ATOM      2  C   LIG A   1      -5.571   0.718 126.019  0.00  0.00    +0.050 A 
ATOM      3  C   LIG A   1      -6.020  -0.302 125.157  0.00  0.00    -0.035 A 
ATOM      4  C   LIG A   1      -6.730   0.057 123.999  0.00  0.00    -0.040 A 
ATOM      5  C   LIG A   1      -6.937   1.419 123.706  0.00  0.00    +0.011 A 
ATOM      6  C   LIG A   1      -6.496   2.429 124.570  0.00  0.00    -0.009 A 
ATOM      7  C   LIG A   1      -6.765   3.871 124.251  0.00  0.00    +0.048 C 
ATOM      8  C   LIG A   1      -7.283  -0.991 123.042  0.00  0.00    +0.027 C 
ATOM      9  C   LIG A   1      -6.282  -2.159 123.007  0.00  0.00    +0.040 C 
ATOM     10  C   LIG A   1      -6.063  -2.775 124.386  0.00  0.00    +0.122 C 
ATOM     11  C   LIG A   1      -5.634  -1.743 125.456  0.00  0.00    +0.045 C 
ATOM     12  C   LIG A   1      -6.140  -2.207 126.831  0.00  0.00    +0.015 C 
ENDROOT
BRANCH   1  13
ATOM     13  O   LIG A   1      -5.414   3.038 126.593  0.00  0.00    -0.506 OA
ATOM     14  H   LIG A   1      -5.286   2.646 127.470  0.00  0.00    +0.292 HD
ENDBRANCH   1  13
BRANCH  10  15
ATOM     15  O   LIG A   1      -5.038  -3.774 124.291  0.00  0.00    -0.391 OA
ATOM     16  H   LIG A   1      -5.010  -4.256 125.135  0.00  0.00    +0.210 HD
ENDBRANCH  10  15
BRANCH   8  17
ATOM     17  C   LIG A   1      -8.751  -1.393 123.412  0.00  0.00    +0.019 C 
ATOM     18  C   LIG A   1      -9.018  -2.886 123.165  0.00  0.00    +0.010 C 
BRANCH  17  19
ATOM     19  C   LIG A   1      -9.813  -0.586 122.635  0.00  0.00    +0.159 C 
BRANCH  19  20
ATOM     20  O   LIG A   1     -10.343   0.457 123.446  0.00  0.00    -0.395 OA
ATOM     21  H   LIG A   1     -11.231   0.658 123.105  0.00  0.00    +0.209 HD
ENDBRANCH  19  20
ENDBRANCH  17  19
ENDBRANCH   8  17
TORSDOF 5
ENDMDL
MODEL 6
REMARK VINA RESULT:      -6.0      1.822      4.501
REMARK  Name = NuBBE_218
REMARK  8 active torsions:
REMARK  status: ('A' for Active; 'I' for Inactive)
REMARK    1  A    between atoms: O_1  and  C_2
REMARK    2  A    between atoms: C_7  and  C_8
REMARK    3  A    between atoms: C_9  and  C_18
REMARK    4  A    between atoms: C_12  and  O_17
REMARK    5  A    between atoms: C_14  and  C_16
REMARK    6  A    between atoms: C_18  and  C_20
REMARK    7  A    between atoms: C_18  and  C_22
REMARK    8  A    between atoms: C_20  and  O_21
REMARK                            x       y       z     vdW  Elec       q    Type
REMARK                         _______ _______ _______ _____ _____    ______ ____
ROOT
ATOM      1  C   LIG A   1      -9.383   1.217 124.526  0.00  0.00    +0.120 A 
ATOM      2  C   LIG A   1      -9.358   0.155 125.433  0.00  0.00    +0.050 A 
ATOM      3  C   LIG A   1      -8.215  -0.661 125.555  0.00  0.00    -0.035 A 
ATOM      4  C   LIG A   1      -7.098  -0.384 124.749  0.00  0.00    -0.040 A 
ATOM      5  C   LIG A   1      -7.130   0.721 123.876  0.00  0.00    +0.011 A 
ATOM      6  C   LIG A   1      -8.270   1.524 123.752  0.00  0.00    -0.009 A 
ATOM      7  C   LIG A   1      -8.288   2.671 122.784  0.00  0.00    +0.048 C 
ATOM      8  C   LIG A   1      -5.845  -1.247 124.795  0.00  0.00    +0.027 C 
ATOM      9  C   LIG A   1      -5.655  -1.710 126.250  0.00  0.00    +0.040 C 
ATOM     10  C   LIG A   1      -6.853  -2.502 126.766  0.00  0.00    +0.122 C 
ATOM     11  C   LIG A   1      -8.195  -1.746 126.623  0.00  0.00    +0.045 C 
ATOM     12  C   LIG A   1      -9.328  -2.766 126.436  0.00  0.00    +0.015 C 
ENDROOT
BRANCH   1  13
ATOM     13  O   LIG A   1     -10.508   1.981 124.396  0.00  0.00    -0.506 OA
ATOM     14  H   LIG A   1     -10.396   2.792 124.915  0.00  0.00    +0.292 HD
ENDBRANCH   1  13
BRANCH  10  15
ATOM     15  O   LIG A   1      -6.651  -2.797 128.155  0.00  0.00    -0.391 OA
ATOM     16  H   LIG A   1      -7.498  -2.667 128.615  0.00  0.00    +0.210 HD
ENDBRANCH  10  15
BRANCH   8  17
ATOM     17  C   LIG A   1      -5.900  -2.402 123.738  0.00  0.00    +0.019 C 
ATOM     18  C   LIG A   1      -4.554  -3.132 123.613  0.00  0.00    +0.010 C 
BRANCH  17  19
ATOM     19  C   LIG A   1      -6.308  -1.915 122.331  0.00  0.00    +0.159 C 
BRANCH  19  20
ATOM     20  O   LIG A   1      -7.676  -2.212 122.075  0.00  0.00    -0.395 OA
ATOM     21  H   LIG A   1      -7.974  -2.811 122.782  0.00  0.00    +0.209 HD
ENDBRANCH  19  20
ENDBRANCH  17  19
ENDBRANCH   8  17
TORSDOF 5
ENDMDL
MODEL 7
REMARK VINA RESULT:      -5.9      1.583      4.679
REMARK  Name = NuBBE_218
REMARK  8 active torsions:
REMARK  status: ('A' for Active; 'I' for Inactive)
REMARK    1  A    between atoms: O_1  and  C_2
REMARK    2  A    between atoms: C_7  and  C_8
REMARK    3  A    between atoms: C_9  and  C_18
REMARK    4  A    between atoms: C_12  and  O_17
REMARK    5  A    between atoms: C_14  and  C_16
REMARK    6  A    between atoms: C_18  and  C_20
REMARK    7  A    between atoms: C_18  and  C_22
REMARK    8  A    between atoms: C_20  and  O_21
REMARK                            x       y       z     vdW  Elec       q    Type
REMARK                         _______ _______ _______ _____ _____    ______ ____
ROOT
ATOM      1  C   LIG A   1      -8.768  -3.616 127.542  0.00  0.00    +0.120 A 
ATOM      2  C   LIG A   1      -8.713  -3.481 126.153  0.00  0.00    +0.050 A 
ATOM      3  C   LIG A   1      -7.698  -2.716 125.544  0.00  0.00    -0.035 A 
ATOM      4  C   LIG A   1      -6.738  -2.095 126.360  0.00  0.00    -0.040 A 
ATOM      5  C   LIG A   1      -6.787  -2.285 127.755  0.00  0.00    +0.011 A 
ATOM      6  C   LIG A   1      -7.802  -3.038 128.357  0.00  0.00    -0.009 A 
ATOM      7  C   LIG A   1      -7.850  -3.191 129.849  0.00  0.00    +0.048 C 
ATOM      8  C   LIG A   1      -5.638  -1.219 125.777  0.00  0.00    +0.027 C 
ATOM      9  C   LIG A   1      -5.227  -1.831 124.426  0.00  0.00    +0.040 C 
ATOM     10  C   LIG A   1      -6.397  -1.917 123.450  0.00  0.00    +0.122 C 
ATOM     11  C   LIG A   1      -7.618  -2.675 124.024  0.00  0.00    +0.045 C 
ATOM     12  C   LIG A   1      -8.900  -2.113 123.390  0.00  0.00    +0.015 C 
ENDROOT
BRANCH   1  13
ATOM     13  O   LIG A   1      -9.776  -4.335 128.121  0.00  0.00    -0.506 OA
ATOM     14  H   LIG A   1      -9.581  -4.440 129.065  0.00  0.00    +0.292 HD
ENDBRANCH   1  13
BRANCH  10  15
ATOM     15  O   LIG A   1      -5.965  -2.599 122.265  0.00  0.00    -0.391 OA
ATOM     16  H   LIG A   1      -6.693  -3.166 121.962  0.00  0.00    +0.210 HD
ENDBRANCH  10  15
BRANCH   8  17
ATOM     17  C   LIG A   1      -6.070   0.286 125.714  0.00  0.00    +0.019 C 
ATOM     18  C   LIG A   1      -5.196   1.173 126.615  0.00  0.00    +0.010 C 
BRANCH  17  19
ATOM     19  C   LIG A   1      -7.544   0.508 126.115  0.00  0.00    +0.159 C 
BRANCH  19  20
ATOM     20  O   LIG A   1      -8.302   0.968 125.002  0.00  0.00    -0.395 OA
ATOM     21  H   LIG A   1      -8.194   1.934 124.964  0.00  0.00    +0.209 HD
ENDBRANCH  19  20
ENDBRANCH  17  19
ENDBRANCH   8  17
TORSDOF 5
ENDMDL
MODEL 8
REMARK VINA RESULT:      -5.7      1.866      5.089
REMARK  Name = NuBBE_218
REMARK  8 active torsions:
REMARK  status: ('A' for Active; 'I' for Inactive)
REMARK    1  A    between atoms: O_1  and  C_2
REMARK    2  A    between atoms: C_7  and  C_8
REMARK    3  A    between atoms: C_9  and  C_18
REMARK    4  A    between atoms: C_12  and  O_17
REMARK    5  A    between atoms: C_14  and  C_16
REMARK    6  A    between atoms: C_18  and  C_20
REMARK    7  A    between atoms: C_18  and  C_22
REMARK    8  A    between atoms: C_20  and  O_21
REMARK                            x       y       z     vdW  Elec       q    Type
REMARK                         _______ _______ _______ _____ _____    ______ ____
ROOT
ATOM      1  C   LIG A   1      -8.283  -2.758 127.917  0.00  0.00    +0.120 A 
ATOM      2  C   LIG A   1      -8.377  -3.116 126.571  0.00  0.00    +0.050 A 
ATOM      3  C   LIG A   1      -8.118  -2.172 125.556  0.00  0.00    -0.035 A 
ATOM      4  C   LIG A   1      -7.760  -0.865 125.925  0.00  0.00    -0.040 A 
ATOM      5  C   LIG A   1      -7.627  -0.541 127.289  0.00  0.00    +0.011 A 
ATOM      6  C   LIG A   1      -7.893  -1.479 128.294  0.00  0.00    -0.009 A 
ATOM      7  C   LIG A   1      -7.780  -1.093 129.740  0.00  0.00    +0.048 C 
ATOM      8  C   LIG A   1      -7.508   0.219 124.886  0.00  0.00    +0.027 C 
ATOM      9  C   LIG A   1      -6.845  -0.452 123.670  0.00  0.00    +0.040 C 
ATOM     10  C   LIG A   1      -7.715  -1.555 123.072  0.00  0.00    +0.122 C 
ATOM     11  C   LIG A   1      -8.136  -2.628 124.104  0.00  0.00    +0.045 C 
ATOM     12  C   LIG A   1      -9.498  -3.210 123.694  0.00  0.00    +0.015 C 
ENDROOT
BRANCH   1  13
ATOM     13  O   LIG A   1      -8.567  -3.675 128.891  0.00  0.00    -0.506 OA
ATOM     14  H   LIG A   1      -8.596  -4.556 128.490  0.00  0.00    +0.292 HD
ENDBRANCH   1  13
BRANCH  10  15
ATOM     15  O   LIG A   1      -6.984  -2.205 122.023  0.00  0.00    -0.391 OA
ATOM     16  H   LIG A   1      -6.093  -1.819 121.995  0.00  0.00    +0.210 HD
ENDBRANCH  10  15
BRANCH   8  17
ATOM     17  C   LIG A   1      -8.812   1.026 124.564  0.00  0.00    +0.019 C 
ATOM     18  C   LIG A   1      -8.825   1.544 123.117  0.00  0.00    +0.010 C 
BRANCH  17  19
ATOM     19  C   LIG A   1      -9.022   2.233 125.503  0.00  0.00    +0.159 C 
BRANCH  19  20
ATOM     20  O   LIG A   1      -9.019   3.449 124.764  0.00  0.00    -0.395 OA
ATOM     21  H   LIG A   1      -9.648   3.338 124.030  0.00  0.00    +0.209 HD
ENDBRANCH  19  20
ENDBRANCH  17  19
ENDBRANCH   8  17
TORSDOF 5
ENDMDL
MODEL 9
REMARK VINA RESULT:      -5.7      2.023      4.383
REMARK  Name = NuBBE_218
REMARK  8 active torsions:
REMARK  status: ('A' for Active; 'I' for Inactive)
REMARK    1  A    between atoms: O_1  and  C_2
REMARK    2  A    between atoms: C_7  and  C_8
REMARK    3  A    between atoms: C_9  and  C_18
REMARK    4  A    between atoms: C_12  and  O_17
REMARK    5  A    between atoms: C_14  and  C_16
REMARK    6  A    between atoms: C_18  and  C_20
REMARK    7  A    between atoms: C_18  and  C_22
REMARK    8  A    between atoms: C_20  and  O_21
REMARK                            x       y       z     vdW  Elec       q    Type
REMARK                         _______ _______ _______ _____ _____    ______ ____
ROOT
ATOM      1  C   LIG A   1      -8.354   2.181 124.066  0.00  0.00    +0.120 A 
ATOM      2  C   LIG A   1      -8.590   0.971 123.411  0.00  0.00    +0.050 A 
ATOM      3  C   LIG A   1      -8.590  -0.245 124.123  0.00  0.00    -0.035 A 
ATOM      4  C   LIG A   1      -8.354  -0.217 125.508  0.00  0.00    -0.040 A 
ATOM      5  C   LIG A   1      -8.166   1.021 126.154  0.00  0.00    +0.011 A 
ATOM      6  C   LIG A   1      -8.158   2.225 125.441  0.00  0.00    -0.009 A 
ATOM      7  C   LIG A   1      -7.917   3.525 126.152  0.00  0.00    +0.048 C 
ATOM      8  C   LIG A   1      -8.298  -1.493 126.336  0.00  0.00    +0.027 C 
ATOM      9  C   LIG A   1      -9.326  -2.473 125.746  0.00  0.00    +0.040 C 
ATOM     10  C   LIG A   1      -9.047  -2.791 124.279  0.00  0.00    +0.122 C 
ATOM     11  C   LIG A   1      -8.947  -1.530 123.389  0.00  0.00    +0.045 C 
ATOM     12  C   LIG A   1      -7.990  -1.816 122.221  0.00  0.00    +0.015 C 
ENDROOT
BRANCH   1  13
ATOM     13  O   LIG A   1      -8.326   3.350 123.358  0.00  0.00    -0.506 OA
ATOM     14  H   LIG A   1      -9.145   3.423 122.845  0.00  0.00    +0.292 HD
ENDBRANCH   1  13
BRANCH  10  15
ATOM     15  O   LIG A   1     -10.107  -3.614 123.772  0.00  0.00    -0.391 OA
ATOM     16  H   LIG A   1     -10.910  -3.069 123.718  0.00  0.00    +0.210 HD
ENDBRANCH  10  15
BRANCH   8  17
ATOM     17  C   LIG A   1      -6.838  -2.052 126.438  0.00  0.00    +0.019 C 
ATOM     18  C   LIG A   1      -6.321  -2.052 127.885  0.00  0.00    +0.010 C 
BRANCH  17  19
ATOM     19  C   LIG A   1      -5.829  -1.266 125.574  0.00  0.00    +0.159 C 
BRANCH  19  20
ATOM     20  O   LIG A   1      -5.350  -2.072 124.503  0.00  0.00    -0.395 OA
ATOM     21  H   LIG A   1      -6.113  -2.275 123.936  0.00  0.00    +0.209 HD
ENDBRANCH  19  20
ENDBRANCH  17  19
ENDBRANCH   8  17
TORSDOF 5
ENDMDL
