MODEL 1
REMARK VINA RESULT:      -9.4      0.000      0.000
REMARK  Name = NuBBE_507
REMARK  10 active torsions:
REMARK  status: ('A' for Active; 'I' for Inactive)
REMARK    1  A    between atoms: C_1  and  C_2
REMARK    2  A    between atoms: C_6  and  O_7
REMARK    3  A    between atoms: C_8  and  C_9
REMARK    4  A    between atoms: C_9  and  C_10
REMARK    5  A    between atoms: C_12  and  O_13
REMARK    6  A    between atoms: C_12  and  C_14
REMARK    7  A    between atoms: C_15  and  O_17
REMARK    8  A    between atoms: C_23  and  C_24
REMARK    9  A    between atoms: C_26  and  O_27
REMARK   10  A    between atoms: C_28  and  C_29
REMARK                            x       y       z     vdW  Elec       q    Type
REMARK                         _______ _______ _______ _____ _____    ______ ____
ROOT
ATOM      1  C   LIG A   1      -8.938   1.314 126.159  0.00  0.00    +0.081 C 
ENDROOT
BRANCH   1   8
ATOM      2  C   LIG A   1      -4.927   4.799 120.162  0.00  0.00    +0.052 C 
ATOM      3  C   LIG A   1      -5.679   3.926 121.156  0.00  0.00    +0.178 C 
ATOM      4  O   LIG A   1      -7.080   4.030 120.850  0.00  0.00    -0.458 OA
ATOM      5  C   LIG A   1      -7.971   3.453 121.684  0.00  0.00    +0.343 C 
ATOM      6  C   LIG A   1      -7.527   3.139 123.070  0.00  0.00    +0.104 A 
ATOM      7  C   LIG A   1      -8.389   2.448 123.945  0.00  0.00    +0.138 A 
ATOM      8  C   LIG A   1      -7.995   2.093 125.250  0.00  0.00    +0.041 A 
ATOM      9  C   LIG A   1      -6.734   2.549 125.678  0.00  0.00    +0.127 A 
ATOM     10  C   LIG A   1      -5.888   3.319 124.853  0.00  0.00    -0.004 A 
ATOM     11  C   LIG A   1      -4.566   3.815 125.387  0.00  0.00    +0.048 C 
ATOM     12  C   LIG A   1      -6.270   3.574 123.522  0.00  0.00    -0.020 A 
ATOM     13  C   LIG A   1      -5.416   4.379 122.585  0.00  0.00    +0.080 C 
ATOM     14  O   LIG A   1      -9.126   3.201 121.324  0.00  0.00    -0.245 OA
BRANCH   7  15
ATOM     15  O   LIG A   1      -9.677   2.156 123.565  0.00  0.00    -0.505 OA
ATOM     16  H   LIG A   1      -9.685   1.844 122.632  0.00  0.00    +0.292 HD
ENDBRANCH   7  15
BRANCH   9  17
ATOM     17  O   LIG A   1      -6.268   2.330 126.945  0.00  0.00    -0.506 OA
ATOM     18  H   LIG A   1      -6.503   3.076 127.535  0.00  0.00    +0.292 HD
ENDBRANCH   9  17
ENDBRANCH   1   8
BRANCH   1  19
ATOM     19  C   LIG A   1      -8.657  -0.180 126.297  0.00  0.00    +0.010 C 
ATOM     20  C   LIG A   1      -9.112  -1.013 125.130  0.00  0.00    +0.194 C 
ATOM     21  C   LIG A   1      -8.919  -2.533 125.113  0.00  0.00    +0.155 C 
ATOM     22  C   LIG A   1      -8.722  -3.028 123.673  0.00  0.00    +0.053 C 
ATOM     23  C   LIG A   1      -7.749  -2.958 126.004  0.00  0.00    +0.187 C 
ATOM     24  O   LIG A   1      -9.793  -0.480 124.244  0.00  0.00    -0.289 OA
ATOM     25  C   LIG A   1      -8.053  -0.804 127.337  0.00  0.00    -0.006 C 
ATOM     26  C   LIG A   1      -7.763  -2.239 127.314  0.00  0.00    +0.026 C 
ATOM     27  C   LIG A   1      -7.493  -2.846 128.483  0.00  0.00    +0.202 C 
ATOM     28  O   LIG A   1      -7.425  -2.190 129.698  0.00  0.00    -0.468 OA
ATOM     29  C   LIG A   1      -7.411  -0.797 129.677  0.00  0.00    +0.102 C 
ATOM     30  C   LIG A   1      -7.103  -0.159 130.993  0.00  0.00    +0.086 C 
ATOM     31  C   LIG A   1      -7.653  -0.100 128.552  0.00  0.00    +0.050 C 
BRANCH  21  32
ATOM     32  O   LIG A   1     -10.143  -3.117 125.594  0.00  0.00    -0.378 OA
ATOM     33  H   LIG A   1     -10.815  -2.969 124.901  0.00  0.00    +0.211 HD
ENDBRANCH  21  32
BRANCH  23  34
ATOM     34  O   LIG A   1      -6.491  -2.684 125.379  0.00  0.00    -0.384 OA
ATOM     35  H   LIG A   1      -5.821  -2.643 126.084  0.00  0.00    +0.210 HD
ENDBRANCH  23  34
ENDBRANCH   1  19
TORSDOF 6
ENDMDL
MODEL 2
REMARK VINA RESULT:      -8.5      6.599      8.956
REMARK  Name = NuBBE_507
REMARK  10 active torsions:
REMARK  status: ('A' for Active; 'I' for Inactive)
REMARK    1  A    between atoms: C_1  and  C_2
REMARK    2  A    between atoms: C_6  and  O_7
REMARK    3  A    between atoms: C_8  and  C_9
REMARK    4  A    between atoms: C_9  and  C_10
REMARK    5  A    between atoms: C_12  and  O_13
REMARK    6  A    between atoms: C_12  and  C_14
REMARK    7  A    between atoms: C_15  and  O_17
REMARK    8  A    between atoms: C_23  and  C_24
REMARK    9  A    between atoms: C_26  and  O_27
REMARK   10  A    between atoms: C_28  and  C_29
REMARK                            x       y       z     vdW  Elec       q    Type
REMARK                         _______ _______ _______ _____ _____    ______ ____
ROOT
ATOM      1  C   LIG A   1      -7.651   4.400 130.292  0.00  0.00    +0.081 C 
ENDROOT
BRANCH   1   8
ATOM      2  C   LIG A   1     -13.508   9.494 128.306  0.00  0.00    +0.052 C 
ATOM      3  C   LIG A   1     -12.237   8.715 128.613  0.00  0.00    +0.178 C 
ATOM      4  O   LIG A   1     -11.870   8.002 127.420  0.00  0.00    -0.458 OA
ATOM      5  C   LIG A   1     -10.847   7.123 127.479  0.00  0.00    +0.343 C 
ATOM      6  C   LIG A   1     -10.450   6.603 128.816  0.00  0.00    +0.104 A 
ATOM      7  C   LIG A   1      -9.327   5.761 128.939  0.00  0.00    +0.138 A 
ATOM      8  C   LIG A   1      -8.891   5.280 130.189  0.00  0.00    +0.041 A 
ATOM      9  C   LIG A   1      -9.689   5.598 131.304  0.00  0.00    +0.127 A 
ATOM     10  C   LIG A   1     -10.868   6.365 131.198  0.00  0.00    -0.004 A 
ATOM     11  C   LIG A   1     -11.703   6.634 132.425  0.00  0.00    +0.048 C 
ATOM     12  C   LIG A   1     -11.222   6.910 129.949  0.00  0.00    -0.020 A 
ATOM     13  C   LIG A   1     -12.459   7.743 129.762  0.00  0.00    +0.080 C 
ATOM     14  O   LIG A   1     -10.259   6.743 126.460  0.00  0.00    -0.245 OA
BRANCH   7  15
ATOM     15  O   LIG A   1      -8.658   5.327 127.820  0.00  0.00    -0.505 OA
ATOM     16  H   LIG A   1      -9.305   5.022 127.144  0.00  0.00    +0.292 HD
ENDBRANCH   7  15
BRANCH   9  17
ATOM     17  O   LIG A   1      -9.410   5.133 132.560  0.00  0.00    -0.506 OA
ATOM     18  H   LIG A   1      -9.470   4.156 132.589  0.00  0.00    +0.292 HD
ENDBRANCH   9  17
ENDBRANCH   1   8
BRANCH   1  19
ATOM     19  C   LIG A   1      -6.316   5.131 130.417  0.00  0.00    +0.010 C 
ATOM     20  C   LIG A   1      -5.510   5.186 129.149  0.00  0.00    +0.194 C 
ATOM     21  C   LIG A   1      -4.140   5.870 129.104  0.00  0.00    +0.155 C 
ATOM     22  C   LIG A   1      -3.888   6.465 127.712  0.00  0.00    +0.053 C 
ATOM     23  C   LIG A   1      -4.016   6.943 130.190  0.00  0.00    +0.187 C 
ATOM     24  O   LIG A   1      -5.890   4.530 128.170  0.00  0.00    -0.289 OA
ATOM     25  C   LIG A   1      -5.810   5.718 131.528  0.00  0.00    -0.006 C 
ATOM     26  C   LIG A   1      -4.551   6.467 131.501  0.00  0.00    +0.026 C 
ATOM     27  C   LIG A   1      -3.942   6.716 132.674  0.00  0.00    +0.202 C 
ATOM     28  O   LIG A   1      -4.453   6.352 133.905  0.00  0.00    -0.468 OA
ATOM     29  C   LIG A   1      -5.773   5.908 133.947  0.00  0.00    +0.102 C 
ATOM     30  C   LIG A   1      -6.333   5.756 135.324  0.00  0.00    +0.086 C 
ATOM     31  C   LIG A   1      -6.472   5.647 132.827  0.00  0.00    +0.050 C 
BRANCH  21  32
ATOM     32  O   LIG A   1      -3.151   4.845 129.309  0.00  0.00    -0.378 OA
ATOM     33  H   LIG A   1      -2.810   4.963 130.216  0.00  0.00    +0.211 HD
ENDBRANCH  21  32
BRANCH  23  34
ATOM     34  O   LIG A   1      -4.738   8.128 129.838  0.00  0.00    -0.384 OA
ATOM     35  H   LIG A   1      -4.393   8.433 128.981  0.00  0.00    +0.210 HD
ENDBRANCH  23  34
ENDBRANCH   1  19
TORSDOF 6
ENDMDL
MODEL 3
REMARK VINA RESULT:      -8.2      5.890      8.793
REMARK  Name = NuBBE_507
REMARK  10 active torsions:
REMARK  status: ('A' for Active; 'I' for Inactive)
REMARK    1  A    between atoms: C_1  and  C_2
REMARK    2  A    between atoms: C_6  and  O_7
REMARK    3  A    between atoms: C_8  and  C_9
REMARK    4  A    between atoms: C_9  and  C_10
REMARK    5  A    between atoms: C_12  and  O_13
REMARK    6  A    between atoms: C_12  and  C_14
REMARK    7  A    between atoms: C_15  and  O_17
REMARK    8  A    between atoms: C_23  and  C_24
REMARK    9  A    between atoms: C_26  and  O_27
REMARK   10  A    between atoms: C_28  and  C_29
REMARK                            x       y       z     vdW  Elec       q    Type
REMARK                         _______ _______ _______ _____ _____    ______ ____
ROOT
ATOM      1  C   LIG A   1      -7.672   4.266 130.131  0.00  0.00    +0.081 C 
ENDROOT
BRANCH   1   8
ATOM      2  C   LIG A   1     -13.399   9.625 128.491  0.00  0.00    +0.052 C 
ATOM      3  C   LIG A   1     -12.149   8.790 128.729  0.00  0.00    +0.178 C 
ATOM      4  O   LIG A   1     -11.861   8.086 127.508  0.00  0.00    -0.458 OA
ATOM      5  C   LIG A   1     -10.873   7.167 127.508  0.00  0.00    +0.343 C 
ATOM      6  C   LIG A   1     -10.441   6.606 128.817  0.00  0.00    +0.104 A 
ATOM      7  C   LIG A   1      -9.348   5.718 128.876  0.00  0.00    +0.138 A 
ATOM      8  C   LIG A   1      -8.878   5.197 130.098  0.00  0.00    +0.041 A 
ATOM      9  C   LIG A   1      -9.615   5.525 131.252  0.00  0.00    +0.127 A 
ATOM     10  C   LIG A   1     -10.765   6.339 131.210  0.00  0.00    -0.004 A 
ATOM     11  C   LIG A   1     -11.536   6.617 132.477  0.00  0.00    +0.048 C 
ATOM     12  C   LIG A   1     -11.151   6.921 129.987  0.00  0.00    -0.020 A 
ATOM     13  C   LIG A   1     -12.360   7.806 129.869  0.00  0.00    +0.080 C 
ATOM     14  O   LIG A   1     -10.345   6.783 126.458  0.00  0.00    -0.245 OA
BRANCH   7  15
ATOM     15  O   LIG A   1      -8.745   5.280 127.722  0.00  0.00    -0.505 OA
ATOM     16  H   LIG A   1      -8.315   6.038 127.264  0.00  0.00    +0.292 HD
ENDBRANCH   7  15
BRANCH   9  17
ATOM     17  O   LIG A   1      -9.302   5.024 132.485  0.00  0.00    -0.506 OA
ATOM     18  H   LIG A   1      -8.431   4.577 132.468  0.00  0.00    +0.292 HD
ENDBRANCH   9  17
ENDBRANCH   1   8
BRANCH   1  19
ATOM     19  C   LIG A   1      -6.328   4.897 129.772  0.00  0.00    +0.010 C 
ATOM     20  C   LIG A   1      -5.882   5.994 130.700  0.00  0.00    +0.194 C 
ATOM     21  C   LIG A   1      -4.565   6.741 130.475  0.00  0.00    +0.155 C 
ATOM     22  C   LIG A   1      -3.971   7.190 131.817  0.00  0.00    +0.053 C 
ATOM     23  C   LIG A   1      -3.564   5.886 129.692  0.00  0.00    +0.187 C 
ATOM     24  O   LIG A   1      -6.669   6.403 131.563  0.00  0.00    -0.289 OA
ATOM     25  C   LIG A   1      -5.525   4.568 128.731  0.00  0.00    -0.006 C 
ATOM     26  C   LIG A   1      -4.213   5.191 128.540  0.00  0.00    +0.026 C 
ATOM     27  C   LIG A   1      -3.636   5.084 127.330  0.00  0.00    +0.202 C 
ATOM     28  O   LIG A   1      -4.181   4.383 126.272  0.00  0.00    -0.468 OA
ATOM     29  C   LIG A   1      -5.271   3.557 126.540  0.00  0.00    +0.102 C 
ATOM     30  C   LIG A   1      -5.660   2.657 125.413  0.00  0.00    +0.086 C 
ATOM     31  C   LIG A   1      -5.905   3.579 127.726  0.00  0.00    +0.050 C 
BRANCH  21  32
ATOM     32  O   LIG A   1      -4.879   7.934 129.734  0.00  0.00    -0.378 OA
ATOM     33  H   LIG A   1      -5.117   7.648 128.831  0.00  0.00    +0.211 HD
ENDBRANCH  21  32
BRANCH  23  34
ATOM     34  O   LIG A   1      -2.975   4.880 130.522  0.00  0.00    -0.384 OA
ATOM     35  H   LIG A   1      -2.371   5.330 131.137  0.00  0.00    +0.210 HD
ENDBRANCH  23  34
ENDBRANCH   1  19
TORSDOF 6
ENDMDL
MODEL 4
REMARK VINA RESULT:      -8.2      2.330      7.697
REMARK  Name = NuBBE_507
REMARK  10 active torsions:
REMARK  status: ('A' for Active; 'I' for Inactive)
REMARK    1  A    between atoms: C_1  and  C_2
REMARK    2  A    between atoms: C_6  and  O_7
REMARK    3  A    between atoms: C_8  and  C_9
REMARK    4  A    between atoms: C_9  and  C_10
REMARK    5  A    between atoms: C_12  and  O_13
REMARK    6  A    between atoms: C_12  and  C_14
REMARK    7  A    between atoms: C_15  and  O_17
REMARK    8  A    between atoms: C_23  and  C_24
REMARK    9  A    between atoms: C_26  and  O_27
REMARK   10  A    between atoms: C_28  and  C_29
REMARK                            x       y       z     vdW  Elec       q    Type
REMARK                         _______ _______ _______ _____ _____    ______ ____
ROOT
ATOM      1  C   LIG A   1      -5.738  -0.818 125.633  0.00  0.00    +0.081 C 
ENDROOT
BRANCH   1   8
ATOM      2  C   LIG A   1      -6.680  -3.824 133.000  0.00  0.00    +0.052 C 
ATOM      3  C   LIG A   1      -6.272  -3.367 131.607  0.00  0.00    +0.178 C 
ATOM      4  O   LIG A   1      -5.613  -2.097 131.746  0.00  0.00    -0.458 OA
ATOM      5  C   LIG A   1      -5.278  -1.415 130.630  0.00  0.00    +0.343 C 
ATOM      6  C   LIG A   1      -5.979  -1.762 129.364  0.00  0.00    +0.104 A 
ATOM      7  C   LIG A   1      -5.595  -1.147 128.156  0.00  0.00    +0.138 A 
ATOM      8  C   LIG A   1      -6.201  -1.476 126.927  0.00  0.00    +0.041 A 
ATOM      9  C   LIG A   1      -7.281  -2.377 126.975  0.00  0.00    +0.127 A 
ATOM     10  C   LIG A   1      -7.745  -2.940 128.182  0.00  0.00    -0.004 A 
ATOM     11  C   LIG A   1      -8.936  -3.866 128.172  0.00  0.00    +0.048 C 
ATOM     12  C   LIG A   1      -7.055  -2.665 129.379  0.00  0.00    -0.020 A 
ATOM     13  C   LIG A   1      -7.486  -3.235 130.700  0.00  0.00    +0.080 C 
ATOM     14  O   LIG A   1      -4.427  -0.518 130.649  0.00  0.00    -0.245 OA
BRANCH   7  15
ATOM     15  O   LIG A   1      -4.650  -0.149 128.153  0.00  0.00    -0.505 OA
ATOM     16  H   LIG A   1      -4.545   0.206 127.241  0.00  0.00    +0.292 HD
ENDBRANCH   7  15
BRANCH   9  17
ATOM     17  O   LIG A   1      -7.997  -2.722 125.862  0.00  0.00    -0.506 OA
ATOM     18  H   LIG A   1      -7.535  -3.420 125.355  0.00  0.00    +0.292 HD
ENDBRANCH   9  17
ENDBRANCH   1   8
BRANCH   1  19
ATOM     19  C   LIG A   1      -6.342   0.549 125.321  0.00  0.00    +0.010 C 
ATOM     20  C   LIG A   1      -7.650   0.501 124.579  0.00  0.00    +0.194 C 
ATOM     21  C   LIG A   1      -8.384   1.784 124.175  0.00  0.00    +0.155 C 
ATOM     22  C   LIG A   1      -9.901   1.548 124.165  0.00  0.00    +0.053 C 
ATOM     23  C   LIG A   1      -8.017   2.951 125.096  0.00  0.00    +0.187 C 
ATOM     24  O   LIG A   1      -8.056  -0.587 124.152  0.00  0.00    -0.289 OA
ATOM     25  C   LIG A   1      -5.828   1.760 125.642  0.00  0.00    -0.006 C 
ATOM     26  C   LIG A   1      -6.548   3.005 125.362  0.00  0.00    +0.026 C 
ATOM     27  C   LIG A   1      -5.849   4.154 125.382  0.00  0.00    +0.202 C 
ATOM     28  O   LIG A   1      -4.507   4.239 125.698  0.00  0.00    -0.468 OA
ATOM     29  C   LIG A   1      -3.902   3.109 126.244  0.00  0.00    +0.102 C 
ATOM     30  C   LIG A   1      -2.524   3.337 126.776  0.00  0.00    +0.086 C 
ATOM     31  C   LIG A   1      -4.526   1.918 126.284  0.00  0.00    +0.050 C 
BRANCH  21  32
ATOM     32  O   LIG A   1      -7.995   2.082 122.822  0.00  0.00    -0.378 OA
ATOM     33  H   LIG A   1      -7.320   1.423 122.573  0.00  0.00    +0.211 HD
ENDBRANCH  21  32
BRANCH  23  34
ATOM     34  O   LIG A   1      -8.677   2.845 126.362  0.00  0.00    -0.384 OA
ATOM     35  H   LIG A   1      -7.985   2.797 127.045  0.00  0.00    +0.210 HD
ENDBRANCH  23  34
ENDBRANCH   1  19
TORSDOF 6
ENDMDL
MODEL 5
REMARK VINA RESULT:      -7.9      6.500      8.948
REMARK  Name = NuBBE_507
REMARK  10 active torsions:
REMARK  status: ('A' for Active; 'I' for Inactive)
REMARK    1  A    between atoms: C_1  and  C_2
REMARK    2  A    between atoms: C_6  and  O_7
REMARK    3  A    between atoms: C_8  and  C_9
REMARK    4  A    between atoms: C_9  and  C_10
REMARK    5  A    between atoms: C_12  and  O_13
REMARK    6  A    between atoms: C_12  and  C_14
REMARK    7  A    between atoms: C_15  and  O_17
REMARK    8  A    between atoms: C_23  and  C_24
REMARK    9  A    between atoms: C_26  and  O_27
REMARK   10  A    between atoms: C_28  and  C_29
REMARK                            x       y       z     vdW  Elec       q    Type
REMARK                         _______ _______ _______ _____ _____    ______ ____
ROOT
ATOM      1  C   LIG A   1      -5.965   3.513 129.687  0.00  0.00    +0.081 C 
ENDROOT
BRANCH   1   8
ATOM      2  C   LIG A   1     -12.756   7.476 131.226  0.00  0.00    +0.052 C 
ATOM      3  C   LIG A   1     -11.361   6.956 130.911  0.00  0.00    +0.178 C 
ATOM      4  O   LIG A   1     -11.268   6.806 129.484  0.00  0.00    -0.458 OA
ATOM      5  C   LIG A   1     -10.168   6.224 128.963  0.00  0.00    +0.343 C 
ATOM      6  C   LIG A   1      -9.334   5.379 129.861  0.00  0.00    +0.104 A 
ATOM      7  C   LIG A   1      -8.125   4.831 129.390  0.00  0.00    +0.138 A 
ATOM      8  C   LIG A   1      -7.284   4.061 130.218  0.00  0.00    +0.041 A 
ATOM      9  C   LIG A   1      -7.756   3.779 131.514  0.00  0.00    +0.127 A 
ATOM     10  C   LIG A   1      -9.004   4.239 131.981  0.00  0.00    -0.004 A 
ATOM     11  C   LIG A   1      -9.473   3.865 133.366  0.00  0.00    +0.048 C 
ATOM     12  C   LIG A   1      -9.775   5.086 131.163  0.00  0.00    -0.020 A 
ATOM     13  C   LIG A   1     -11.110   5.622 131.598  0.00  0.00    +0.080 C 
ATOM     14  O   LIG A   1      -9.858   6.368 127.775  0.00  0.00    -0.245 OA
BRANCH   7  15
ATOM     15  O   LIG A   1      -7.760   4.980 128.074  0.00  0.00    -0.505 OA
ATOM     16  H   LIG A   1      -8.320   4.402 127.507  0.00  0.00    +0.292 HD
ENDBRANCH   7  15
BRANCH   9  17
ATOM     17  O   LIG A   1      -7.066   2.984 132.387  0.00  0.00    -0.506 OA
ATOM     18  H   LIG A   1      -7.148   3.321 133.302  0.00  0.00    +0.292 HD
ENDBRANCH   9  17
ENDBRANCH   1   8
BRANCH   1  19
ATOM     19  C   LIG A   1      -4.715   4.322 130.028  0.00  0.00    +0.010 C 
ATOM     20  C   LIG A   1      -4.385   5.408 129.041  0.00  0.00    +0.194 C 
ATOM     21  C   LIG A   1      -3.156   6.304 129.225  0.00  0.00    +0.155 C 
ATOM     22  C   LIG A   1      -3.422   7.699 128.642  0.00  0.00    +0.053 C 
ATOM     23  C   LIG A   1      -2.746   6.395 130.698  0.00  0.00    +0.187 C 
ATOM     24  O   LIG A   1      -5.026   5.472 127.985  0.00  0.00    -0.289 OA
ATOM     25  C   LIG A   1      -3.906   4.159 131.102  0.00  0.00    -0.006 C 
ATOM     26  C   LIG A   1      -2.780   5.058 131.364  0.00  0.00    +0.026 C 
ATOM     27  C   LIG A   1      -1.832   4.645 132.223  0.00  0.00    +0.202 C 
ATOM     28  O   LIG A   1      -1.878   3.447 132.910  0.00  0.00    -0.468 OA
ATOM     29  C   LIG A   1      -3.075   2.736 132.883  0.00  0.00    +0.102 C 
ATOM     30  C   LIG A   1      -3.133   1.579 133.828  0.00  0.00    +0.086 C 
ATOM     31  C   LIG A   1      -4.090   3.082 132.070  0.00  0.00    +0.050 C 
BRANCH  21  32
ATOM     32  O   LIG A   1      -2.091   5.721 128.452  0.00  0.00    -0.378 OA
ATOM     33  H   LIG A   1      -2.428   5.622 127.541  0.00  0.00    +0.211 HD
ENDBRANCH  21  32
BRANCH  23  34
ATOM     34  O   LIG A   1      -3.619   7.261 131.430  0.00  0.00    -0.384 OA
ATOM     35  H   LIG A   1      -3.080   7.715 132.100  0.00  0.00    +0.210 HD
ENDBRANCH  23  34
ENDBRANCH   1  19
TORSDOF 6
ENDMDL
MODEL 6
REMARK VINA RESULT:      -7.7      4.577      8.727
REMARK  Name = NuBBE_507
REMARK  10 active torsions:
REMARK  status: ('A' for Active; 'I' for Inactive)
REMARK    1  A    between atoms: C_1  and  C_2
REMARK    2  A    between atoms: C_6  and  O_7
REMARK    3  A    between atoms: C_8  and  C_9
REMARK    4  A    between atoms: C_9  and  C_10
REMARK    5  A    between atoms: C_12  and  O_13
REMARK    6  A    between atoms: C_12  and  C_14
REMARK    7  A    between atoms: C_15  and  O_17
REMARK    8  A    between atoms: C_23  and  C_24
REMARK    9  A    between atoms: C_26  and  O_27
REMARK   10  A    between atoms: C_28  and  C_29
REMARK                            x       y       z     vdW  Elec       q    Type
REMARK                         _______ _______ _______ _____ _____    ______ ____
ROOT
ATOM      1  C   LIG A   1      -9.694   1.955 131.466  0.00  0.00    +0.081 C 
ENDROOT
BRANCH   1   8
ATOM      2  C   LIG A   1      -4.138  -3.244 128.956  0.00  0.00    +0.052 C 
ATOM      3  C   LIG A   1      -5.010  -2.171 129.590  0.00  0.00    +0.178 C 
ATOM      4  O   LIG A   1      -5.668  -2.763 130.724  0.00  0.00    -0.458 OA
ATOM      5  C   LIG A   1      -6.609  -2.047 131.375  0.00  0.00    +0.343 C 
ATOM      6  C   LIG A   1      -7.236  -0.903 130.657  0.00  0.00    +0.104 A 
ATOM      7  C   LIG A   1      -8.150  -0.068 131.328  0.00  0.00    +0.138 A 
ATOM      8  C   LIG A   1      -8.735   1.050 130.701  0.00  0.00    +0.041 A 
ATOM      9  C   LIG A   1      -8.441   1.238 129.337  0.00  0.00    +0.127 A 
ATOM     10  C   LIG A   1      -7.599   0.366 128.618  0.00  0.00    -0.004 A 
ATOM     11  C   LIG A   1      -7.359   0.597 127.146  0.00  0.00    +0.048 C 
ATOM     12  C   LIG A   1      -6.955  -0.686 129.298  0.00  0.00    -0.020 A 
ATOM     13  C   LIG A   1      -6.038  -1.649 128.598  0.00  0.00    +0.080 C 
ATOM     14  O   LIG A   1      -6.958  -2.330 132.526  0.00  0.00    -0.245 OA
BRANCH   7  15
ATOM     15  O   LIG A   1      -8.552  -0.363 132.609  0.00  0.00    -0.505 OA
ATOM     16  H   LIG A   1      -7.955  -1.044 132.994  0.00  0.00    +0.292 HD
ENDBRANCH   7  15
BRANCH   9  17
ATOM     17  O   LIG A   1      -9.001   2.244 128.600  0.00  0.00    -0.506 OA
ATOM     18  H   LIG A   1      -9.954   2.336 128.806  0.00  0.00    +0.292 HD
ENDBRANCH   9  17
ENDBRANCH   1   8
BRANCH   1  19
ATOM     19  C   LIG A   1      -9.213   3.383 131.718  0.00  0.00    +0.010 C 
ATOM     20  C   LIG A   1      -9.841   4.421 130.829  0.00  0.00    +0.194 C 
ATOM     21  C   LIG A   1      -9.460   5.900 130.940  0.00  0.00    +0.155 C 
ATOM     22  C   LIG A   1     -10.657   6.787 130.569  0.00  0.00    +0.053 C 
ATOM     23  C   LIG A   1      -8.940   6.240 132.339  0.00  0.00    +0.187 C 
ATOM     24  O   LIG A   1     -10.557   4.050 129.889  0.00  0.00    -0.289 OA
ATOM     25  C   LIG A   1      -8.306   3.787 132.639  0.00  0.00    -0.006 C 
ATOM     26  C   LIG A   1      -7.990   5.202 132.842  0.00  0.00    +0.026 C 
ATOM     27  C   LIG A   1      -6.858   5.506 133.503  0.00  0.00    +0.202 C 
ATOM     28  O   LIG A   1      -6.001   4.566 134.043  0.00  0.00    -0.468 OA
ATOM     29  C   LIG A   1      -6.448   3.248 134.104  0.00  0.00    +0.102 C 
ATOM     30  C   LIG A   1      -5.579   2.333 134.905  0.00  0.00    +0.086 C 
ATOM     31  C   LIG A   1      -7.577   2.851 133.490  0.00  0.00    +0.050 C 
BRANCH  21  32
ATOM     32  O   LIG A   1      -8.435   6.145 129.960  0.00  0.00    -0.378 OA
ATOM     33  H   LIG A   1      -7.635   5.679 130.270  0.00  0.00    +0.211 HD
ENDBRANCH  21  32
BRANCH  23  34
ATOM     34  O   LIG A   1     -10.010   6.334 133.286  0.00  0.00    -0.384 OA
ATOM     35  H   LIG A   1     -10.796   5.937 132.873  0.00  0.00    +0.210 HD
ENDBRANCH  23  34
ENDBRANCH   1  19
TORSDOF 6
ENDMDL
MODEL 7
REMARK VINA RESULT:      -7.7      2.109      7.842
REMARK  Name = NuBBE_507
REMARK  10 active torsions:
REMARK  status: ('A' for Active; 'I' for Inactive)
REMARK    1  A    between atoms: C_1  and  C_2
REMARK    2  A    between atoms: C_6  and  O_7
REMARK    3  A    between atoms: C_8  and  C_9
REMARK    4  A    between atoms: C_9  and  C_10
REMARK    5  A    between atoms: C_12  and  O_13
REMARK    6  A    between atoms: C_12  and  C_14
REMARK    7  A    between atoms: C_15  and  O_17
REMARK    8  A    between atoms: C_23  and  C_24
REMARK    9  A    between atoms: C_26  and  O_27
REMARK   10  A    between atoms: C_28  and  C_29
REMARK                            x       y       z     vdW  Elec       q    Type
REMARK                         _______ _______ _______ _____ _____    ______ ____
ROOT
ATOM      1  C   LIG A   1      -5.637  -0.700 125.787  0.00  0.00    +0.081 C 
ENDROOT
BRANCH   1   8
ATOM      2  C   LIG A   1      -6.652  -3.293 133.300  0.00  0.00    +0.052 C 
ATOM      3  C   LIG A   1      -6.221  -2.894 131.896  0.00  0.00    +0.178 C 
ATOM      4  O   LIG A   1      -5.678  -1.564 131.973  0.00  0.00    -0.458 OA
ATOM      5  C   LIG A   1      -5.352  -0.930 130.827  0.00  0.00    +0.343 C 
ATOM      6  C   LIG A   1      -5.964  -1.417 129.561  0.00  0.00    +0.104 A 
ATOM      7  C   LIG A   1      -5.579  -0.851 128.330  0.00  0.00    +0.138 A 
ATOM      8  C   LIG A   1      -6.101  -1.311 127.104  0.00  0.00    +0.041 A 
ATOM      9  C   LIG A   1      -7.102  -2.297 127.171  0.00  0.00    +0.127 A 
ATOM     10  C   LIG A   1      -7.570  -2.818 128.395  0.00  0.00    -0.004 A 
ATOM     11  C   LIG A   1      -8.678  -3.843 128.401  0.00  0.00    +0.048 C 
ATOM     12  C   LIG A   1      -6.960  -2.407 129.596  0.00  0.00    -0.020 A 
ATOM     13  C   LIG A   1      -7.400  -2.926 130.935  0.00  0.00    +0.080 C 
ATOM     14  O   LIG A   1      -4.581   0.037 130.818  0.00  0.00    -0.245 OA
BRANCH   7  15
ATOM     15  O   LIG A   1      -4.723   0.223 128.295  0.00  0.00    -0.505 OA
ATOM     16  H   LIG A   1      -3.965   0.062 128.902  0.00  0.00    +0.292 HD
ENDBRANCH   7  15
BRANCH   9  17
ATOM     17  O   LIG A   1      -7.736  -2.773 126.057  0.00  0.00    -0.506 OA
ATOM     18  H   LIG A   1      -8.476  -3.365 126.304  0.00  0.00    +0.292 HD
ENDBRANCH   9  17
ENDBRANCH   1   8
BRANCH   1  19
ATOM     19  C   LIG A   1      -6.603   0.279 125.124  0.00  0.00    +0.010 C 
ATOM     20  C   LIG A   1      -6.426   1.713 125.542  0.00  0.00    +0.194 C 
ATOM     21  C   LIG A   1      -7.323   2.822 124.983  0.00  0.00    +0.155 C 
ATOM     22  C   LIG A   1      -6.548   4.146 124.908  0.00  0.00    +0.053 C 
ATOM     23  C   LIG A   1      -7.893   2.443 123.614  0.00  0.00    +0.187 C 
ATOM     24  O   LIG A   1      -5.650   1.974 126.471  0.00  0.00    -0.289 OA
ATOM     25  C   LIG A   1      -7.570  -0.014 124.221  0.00  0.00    -0.006 C 
ATOM     26  C   LIG A   1      -8.380   1.030 123.591  0.00  0.00    +0.026 C 
ATOM     27  C   LIG A   1      -9.525   0.661 122.990  0.00  0.00    +0.202 C 
ATOM     28  O   LIG A   1      -9.960  -0.646 122.889  0.00  0.00    -0.468 OA
ATOM     29  C   LIG A   1      -9.057  -1.652 123.226  0.00  0.00    +0.102 C 
ATOM     30  C   LIG A   1      -9.506  -3.034 122.874  0.00  0.00    +0.086 C 
ATOM     31  C   LIG A   1      -7.878  -1.382 123.815  0.00  0.00    +0.050 C 
BRANCH  21  32
ATOM     32  O   LIG A   1      -8.393   3.014 125.927  0.00  0.00    -0.378 OA
ATOM     33  H   LIG A   1      -9.220   2.780 125.464  0.00  0.00    +0.211 HD
ENDBRANCH  21  32
BRANCH  23  34
ATOM     34  O   LIG A   1      -6.908   2.573 122.584  0.00  0.00    -0.384 OA
ATOM     35  H   LIG A   1      -7.167   1.976 121.860  0.00  0.00    +0.210 HD
ENDBRANCH  23  34
ENDBRANCH   1  19
TORSDOF 6
ENDMDL
MODEL 8
REMARK VINA RESULT:      -7.7      1.584      3.464
REMARK  Name = NuBBE_507
REMARK  10 active torsions:
REMARK  status: ('A' for Active; 'I' for Inactive)
REMARK    1  A    between atoms: C_1  and  C_2
REMARK    2  A    between atoms: C_6  and  O_7
REMARK    3  A    between atoms: C_8  and  C_9
REMARK    4  A    between atoms: C_9  and  C_10
REMARK    5  A    between atoms: C_12  and  O_13
REMARK    6  A    between atoms: C_12  and  C_14
REMARK    7  A    between atoms: C_15  and  O_17
REMARK    8  A    between atoms: C_23  and  C_24
REMARK    9  A    between atoms: C_26  and  O_27
REMARK   10  A    between atoms: C_28  and  C_29
REMARK                            x       y       z     vdW  Elec       q    Type
REMARK                         _______ _______ _______ _____ _____    ______ ____
ROOT
ATOM      1  C   LIG A   1      -8.649   1.384 127.070  0.00  0.00    +0.081 C 
ENDROOT
BRANCH   1   8
ATOM      2  C   LIG A   1      -5.227   4.439 120.500  0.00  0.00    +0.052 C 
ATOM      3  C   LIG A   1      -5.854   3.634 121.629  0.00  0.00    +0.178 C 
ATOM      4  O   LIG A   1      -7.271   3.583 121.388  0.00  0.00    -0.458 OA
ATOM      5  C   LIG A   1      -8.070   3.039 122.330  0.00  0.00    +0.343 C 
ATOM      6  C   LIG A   1      -7.541   2.933 123.717  0.00  0.00    +0.104 A 
ATOM      7  C   LIG A   1      -8.299   2.284 124.712  0.00  0.00    +0.138 A 
ATOM      8  C   LIG A   1      -7.819   2.123 126.026  0.00  0.00    +0.041 A 
ATOM      9  C   LIG A   1      -6.586   2.730 126.330  0.00  0.00    +0.127 A 
ATOM     10  C   LIG A   1      -5.848   3.463 125.377  0.00  0.00    -0.004 A 
ATOM     11  C   LIG A   1      -4.554   4.127 125.778  0.00  0.00    +0.048 C 
ATOM     12  C   LIG A   1      -6.309   3.522 124.048  0.00  0.00    -0.020 A 
ATOM     13  C   LIG A   1      -5.571   4.276 122.978  0.00  0.00    +0.080 C 
ATOM     14  O   LIG A   1      -9.213   2.650 122.065  0.00  0.00    -0.245 OA
BRANCH   7  15
ATOM     15  O   LIG A   1      -9.571   1.842 124.439  0.00  0.00    -0.505 OA
ATOM     16  H   LIG A   1      -9.533   0.933 124.062  0.00  0.00    +0.292 HD
ENDBRANCH   7  15
BRANCH   9  17
ATOM     17  O   LIG A   1      -6.048   2.706 127.587  0.00  0.00    -0.506 OA
ATOM     18  H   LIG A   1      -6.365   1.925 128.085  0.00  0.00    +0.292 HD
ENDBRANCH   9  17
ENDBRANCH   1   8
BRANCH   1  19
ATOM     19  C   LIG A   1      -7.902   0.358 127.919  0.00  0.00    +0.010 C 
ATOM     20  C   LIG A   1      -7.992   0.587 129.402  0.00  0.00    +0.194 C 
ATOM     21  C   LIG A   1      -7.287  -0.341 130.396  0.00  0.00    +0.155 C 
ATOM     22  C   LIG A   1      -8.080  -0.415 131.709  0.00  0.00    +0.053 C 
ATOM     23  C   LIG A   1      -7.078  -1.738 129.803  0.00  0.00    +0.187 C 
ATOM     24  O   LIG A   1      -8.510   1.633 129.816  0.00  0.00    -0.289 OA
ATOM     25  C   LIG A   1      -7.191  -0.706 127.473  0.00  0.00    -0.006 C 
ATOM     26  C   LIG A   1      -6.587  -1.672 128.394  0.00  0.00    +0.026 C 
ATOM     27  C   LIG A   1      -5.627  -2.482 127.915  0.00  0.00    +0.202 C 
ATOM     28  O   LIG A   1      -5.208  -2.492 126.598  0.00  0.00    -0.468 OA
ATOM     29  C   LIG A   1      -5.977  -1.790 125.673  0.00  0.00    +0.102 C 
ATOM     30  C   LIG A   1      -5.607  -2.032 124.246  0.00  0.00    +0.086 C 
ATOM     31  C   LIG A   1      -6.972  -0.967 126.054  0.00  0.00    +0.050 C 
BRANCH  21  32
ATOM     32  O   LIG A   1      -6.016   0.259 130.705  0.00  0.00    -0.378 OA
ATOM     33  H   LIG A   1      -5.638  -0.253 131.445  0.00  0.00    +0.211 HD
ENDBRANCH  21  32
BRANCH  23  34
ATOM     34  O   LIG A   1      -8.295  -2.491 129.798  0.00  0.00    -0.384 OA
ATOM     35  H   LIG A   1      -8.867  -2.120 130.492  0.00  0.00    +0.210 HD
ENDBRANCH  23  34
ENDBRANCH   1  19
TORSDOF 6
ENDMDL
MODEL 9
REMARK VINA RESULT:      -7.6      3.698      6.707
REMARK  Name = NuBBE_507
REMARK  10 active torsions:
REMARK  status: ('A' for Active; 'I' for Inactive)
REMARK    1  A    between atoms: C_1  and  C_2
REMARK    2  A    between atoms: C_6  and  O_7
REMARK    3  A    between atoms: C_8  and  C_9
REMARK    4  A    between atoms: C_9  and  C_10
REMARK    5  A    between atoms: C_12  and  O_13
REMARK    6  A    between atoms: C_12  and  C_14
REMARK    7  A    between atoms: C_15  and  O_17
REMARK    8  A    between atoms: C_23  and  C_24
REMARK    9  A    between atoms: C_26  and  O_27
REMARK   10  A    between atoms: C_28  and  C_29
REMARK                            x       y       z     vdW  Elec       q    Type
REMARK                         _______ _______ _______ _____ _____    ______ ____
ROOT
ATOM      1  C   LIG A   1      -6.866   3.353 128.914  0.00  0.00    +0.081 C 
ENDROOT
BRANCH   1   8
ATOM      2  C   LIG A   1      -9.359  -3.169 124.983  0.00  0.00    +0.052 C 
ATOM      3  C   LIG A   1      -9.119  -1.931 125.835  0.00  0.00    +0.178 C 
ATOM      4  O   LIG A   1      -9.509  -0.787 125.055  0.00  0.00    -0.458 OA
ATOM      5  C   LIG A   1      -9.259   0.446 125.543  0.00  0.00    +0.343 C 
ATOM      6  C   LIG A   1      -8.225   0.580 126.605  0.00  0.00    +0.104 A 
ATOM      7  C   LIG A   1      -7.999   1.830 127.214  0.00  0.00    +0.138 A 
ATOM      8  C   LIG A   1      -7.061   1.994 128.252  0.00  0.00    +0.041 A 
ATOM      9  C   LIG A   1      -6.284   0.869 128.588  0.00  0.00    +0.127 A 
ATOM     10  C   LIG A   1      -6.427  -0.372 127.933  0.00  0.00    -0.004 A 
ATOM     11  C   LIG A   1      -5.532  -1.527 128.309  0.00  0.00    +0.048 C 
ATOM     12  C   LIG A   1      -7.440  -0.527 126.967  0.00  0.00    -0.020 A 
ATOM     13  C   LIG A   1      -7.656  -1.822 126.236  0.00  0.00    +0.080 C 
ATOM     14  O   LIG A   1      -9.853   1.444 125.119  0.00  0.00    -0.245 OA
BRANCH   7  15
ATOM     15  O   LIG A   1      -8.650   2.952 126.760  0.00  0.00    -0.505 OA
ATOM     16  H   LIG A   1      -9.549   2.708 126.441  0.00  0.00    +0.292 HD
ENDBRANCH   7  15
BRANCH   9  17
ATOM     17  O   LIG A   1      -5.293   0.919 129.528  0.00  0.00    -0.506 OA
ATOM     18  H   LIG A   1      -4.542   1.463 129.214  0.00  0.00    +0.292 HD
ENDBRANCH   9  17
ENDBRANCH   1   8
BRANCH   1  19
ATOM     19  C   LIG A   1      -7.938   3.771 129.918  0.00  0.00    +0.010 C 
ATOM     20  C   LIG A   1      -8.853   4.864 129.439  0.00  0.00    +0.194 C 
ATOM     21  C   LIG A   1      -9.974   5.411 130.328  0.00  0.00    +0.155 C 
ATOM     22  C   LIG A   1     -11.157   5.875 129.467  0.00  0.00    +0.053 C 
ATOM     23  C   LIG A   1     -10.422   4.376 131.363  0.00  0.00    +0.187 C 
ATOM     24  O   LIG A   1      -8.593   5.437 128.373  0.00  0.00    -0.289 OA
ATOM     25  C   LIG A   1      -8.136   3.262 131.158  0.00  0.00    -0.006 C 
ATOM     26  C   LIG A   1      -9.257   3.689 131.998  0.00  0.00    +0.026 C 
ATOM     27  C   LIG A   1      -9.197   3.418 133.314  0.00  0.00    +0.202 C 
ATOM     28  O   LIG A   1      -8.167   2.719 133.914  0.00  0.00    -0.468 OA
ATOM     29  C   LIG A   1      -7.260   2.068 133.080  0.00  0.00    +0.102 C 
ATOM     30  C   LIG A   1      -6.319   1.146 133.786  0.00  0.00    +0.086 C 
ATOM     31  C   LIG A   1      -7.253   2.261 131.749  0.00  0.00    +0.050 C 
BRANCH  21  32
ATOM     32  O   LIG A   1      -9.454   6.578 130.992  0.00  0.00    -0.378 OA
ATOM     33  H   LIG A   1      -9.409   7.285 130.320  0.00  0.00    +0.211 HD
ENDBRANCH  21  32
BRANCH  23  34
ATOM     34  O   LIG A   1     -11.242   3.364 130.768  0.00  0.00    -0.384 OA
ATOM     35  H   LIG A   1     -11.664   2.872 131.493  0.00  0.00    +0.210 HD
ENDBRANCH  23  34
ENDBRANCH   1  19
TORSDOF 6
ENDMDL
