MODEL 1
REMARK VINA RESULT:      -8.0      0.000      0.000
REMARK  Name = NuBBE_2194
REMARK  6 active torsions:
REMARK  status: ('A' for Active; 'I' for Inactive)
REMARK    1  A    between atoms: C_1  and  C_2
REMARK    2  A    between atoms: C_9  and  O_11
REMARK    3  A    between atoms: C_12  and  C_13
REMARK    4  A    between atoms: C_12  and  C_15
REMARK    5  A    between atoms: C_19  and  C_20
REMARK    6  A    between atoms: C_19  and  C_21
REMARK                            x       y       z     vdW  Elec       q    Type
REMARK                         _______ _______ _______ _____ _____    ______ ____
ROOT
ATOM      1  C   LIG A   1      -9.311  -0.250 122.968  0.00  0.00    +0.016 C 
ATOM      2  C   LIG A   1      -7.971  -0.462 123.722  0.00  0.00    -0.007 C 
ATOM      3  C   LIG A   1      -8.087  -1.267 125.068  0.00  0.00    +0.012 C 
ATOM      4  C   LIG A   1      -9.168  -0.652 125.960  0.00  0.00    +0.084 C 
ATOM      5  C   LIG A   1      -8.865   0.812 126.212  0.00  0.00    +0.160 C 
ATOM      6  C   LIG A   1      -7.942   1.543 125.275  0.00  0.00    -0.004 C 
ATOM      7  C   LIG A   1      -7.529   0.968 124.121  0.00  0.00    -0.054 C 
ATOM      8  C   LIG A   1      -6.693   1.762 123.130  0.00  0.00    +0.064 C 
ATOM      9  C   LIG A   1      -6.639   3.280 123.393  0.00  0.00    +0.129 C 
ATOM     10  C   LIG A   1      -6.444   3.618 124.894  0.00  0.00    +0.016 C 
ATOM     11  C   LIG A   1      -6.556   5.148 125.101  0.00  0.00    +0.018 C 
ATOM     12  C   LIG A   1      -7.590   2.951 125.704  0.00  0.00    +0.051 C 
ATOM     13  O   LIG A   1      -9.386   1.403 127.158  0.00  0.00    -0.292 OA
ATOM     14  C   LIG A   1      -8.102  -2.824 124.928  0.00  0.00    -0.031 C 
ATOM     15  C   LIG A   1      -8.114  -3.495 126.324  0.00  0.00    +0.011 C 
ATOM     16  C   LIG A   1      -9.333  -3.363 124.175  0.00  0.00    +0.011 C 
ATOM     17  C   LIG A   1      -6.803  -3.285 124.196  0.00  0.00    +0.007 C 
ATOM     18  C   LIG A   1      -6.055  -2.166 123.466  0.00  0.00    +0.001 C 
ATOM     19  C   LIG A   1      -7.013  -1.221 122.755  0.00  0.00    +0.011 C 
ENDROOT
BRANCH   9  20
ATOM     20  O   LIG A   1      -7.849   3.879 122.903  0.00  0.00    -0.391 OA
ATOM     21  H   LIG A   1      -7.755   4.844 122.981  0.00  0.00    +0.210 HD
ENDBRANCH   9  20
BRANCH  10  22
ATOM     22  C   LIG A   1      -5.089   3.079 125.380  0.00  0.00    -0.025 C 
ATOM     23  C   LIG A   1      -4.122   3.747 126.026  0.00  0.00    +0.004 C 
ENDBRANCH  10  22
TORSDOF 2
ENDMDL
MODEL 2
REMARK VINA RESULT:      -7.6      3.664      6.277
REMARK  Name = NuBBE_2194
REMARK  6 active torsions:
REMARK  status: ('A' for Active; 'I' for Inactive)
REMARK    1  A    between atoms: C_1  and  C_2
REMARK    2  A    between atoms: C_9  and  O_11
REMARK    3  A    between atoms: C_12  and  C_13
REMARK    4  A    between atoms: C_12  and  C_15
REMARK    5  A    between atoms: C_19  and  C_20
REMARK    6  A    between atoms: C_19  and  C_21
REMARK                            x       y       z     vdW  Elec       q    Type
REMARK                         _______ _______ _______ _____ _____    ______ ____
ROOT
ATOM      1  C   LIG A   1      -8.017  -1.119 129.527  0.00  0.00    +0.016 C 
ATOM      2  C   LIG A   1      -7.041  -2.205 129.000  0.00  0.00    -0.007 C 
ATOM      3  C   LIG A   1      -5.515  -1.860 129.158  0.00  0.00    +0.012 C 
ATOM      4  C   LIG A   1      -5.222  -0.476 128.571  0.00  0.00    +0.084 C 
ATOM      5  C   LIG A   1      -5.657  -0.425 127.119  0.00  0.00    +0.160 C 
ATOM      6  C   LIG A   1      -6.660  -1.427 126.616  0.00  0.00    -0.004 C 
ATOM      7  C   LIG A   1      -7.309  -2.248 127.475  0.00  0.00    -0.054 C 
ATOM      8  C   LIG A   1      -8.404  -3.172 126.966  0.00  0.00    +0.064 C 
ATOM      9  C   LIG A   1      -8.897  -2.872 125.536  0.00  0.00    +0.129 C 
ATOM     10  C   LIG A   1      -7.733  -2.568 124.556  0.00  0.00    +0.016 C 
ATOM     11  C   LIG A   1      -8.307  -2.126 123.189  0.00  0.00    +0.018 C 
ATOM     12  C   LIG A   1      -6.907  -1.381 125.124  0.00  0.00    +0.051 C 
ATOM     13  O   LIG A   1      -5.213   0.442 126.366  0.00  0.00    -0.292 OA
ATOM     14  C   LIG A   1      -4.891  -2.168 130.558  0.00  0.00    -0.031 C 
ATOM     15  C   LIG A   1      -3.369  -1.882 130.550  0.00  0.00    +0.011 C 
ATOM     16  C   LIG A   1      -5.487  -1.321 131.698  0.00  0.00    +0.011 C 
ATOM     17  C   LIG A   1      -5.083  -3.683 130.881  0.00  0.00    +0.007 C 
ATOM     18  C   LIG A   1      -6.123  -4.391 130.009  0.00  0.00    +0.001 C 
ATOM     19  C   LIG A   1      -7.350  -3.520 129.778  0.00  0.00    +0.011 C 
ENDROOT
BRANCH   9  20
ATOM     20  O   LIG A   1      -9.808  -1.764 125.582  0.00  0.00    -0.391 OA
ATOM     21  H   LIG A   1      -9.374  -1.043 126.069  0.00  0.00    +0.210 HD
ENDBRANCH   9  20
BRANCH  10  22
ATOM     22  C   LIG A   1      -6.828  -3.804 124.418  0.00  0.00    -0.025 C 
ATOM     23  C   LIG A   1      -5.551  -3.846 124.013  0.00  0.00    +0.004 C 
ENDBRANCH  10  22
TORSDOF 2
ENDMDL
MODEL 3
REMARK VINA RESULT:      -7.5      1.602      5.775
REMARK  Name = NuBBE_2194
REMARK  6 active torsions:
REMARK  status: ('A' for Active; 'I' for Inactive)
REMARK    1  A    between atoms: C_1  and  C_2
REMARK    2  A    between atoms: C_9  and  O_11
REMARK    3  A    between atoms: C_12  and  C_13
REMARK    4  A    between atoms: C_12  and  C_15
REMARK    5  A    between atoms: C_19  and  C_20
REMARK    6  A    between atoms: C_19  and  C_21
REMARK                            x       y       z     vdW  Elec       q    Type
REMARK                         _______ _______ _______ _____ _____    ______ ____
ROOT
ATOM      1  C   LIG A   1      -8.541   1.834 126.806  0.00  0.00    +0.016 C 
ATOM      2  C   LIG A   1      -7.333   1.379 125.944  0.00  0.00    -0.007 C 
ATOM      3  C   LIG A   1      -6.906   2.386 124.815  0.00  0.00    +0.012 C 
ATOM      4  C   LIG A   1      -8.119   2.770 123.963  0.00  0.00    +0.084 C 
ATOM      5  C   LIG A   1      -8.763   1.526 123.385  0.00  0.00    +0.160 C 
ATOM      6  C   LIG A   1      -8.497   0.192 124.028  0.00  0.00    -0.004 C 
ATOM      7  C   LIG A   1      -7.844   0.113 125.212  0.00  0.00    -0.054 C 
ATOM      8  C   LIG A   1      -7.686  -1.229 125.907  0.00  0.00    +0.064 C 
ATOM      9  C   LIG A   1      -8.561  -2.364 125.339  0.00  0.00    +0.129 C 
ATOM     10  C   LIG A   1      -8.579  -2.382 123.788  0.00  0.00    +0.016 C 
ATOM     11  C   LIG A   1      -9.595  -3.440 123.292  0.00  0.00    +0.018 C 
ATOM     12  C   LIG A   1      -9.065  -0.995 123.283  0.00  0.00    +0.051 C 
ATOM     13  O   LIG A   1      -9.516   1.608 122.414  0.00  0.00    -0.292 OA
ATOM     14  C   LIG A   1      -5.973   3.557 125.267  0.00  0.00    -0.031 C 
ATOM     15  C   LIG A   1      -5.544   4.412 124.048  0.00  0.00    +0.011 C 
ATOM     16  C   LIG A   1      -6.638   4.524 126.264  0.00  0.00    +0.011 C 
ATOM     17  C   LIG A   1      -4.678   2.963 125.904  0.00  0.00    +0.007 C 
ATOM     18  C   LIG A   1      -4.781   1.486 126.291  0.00  0.00    +0.001 C 
ATOM     19  C   LIG A   1      -6.132   1.161 126.914  0.00  0.00    +0.011 C 
ENDROOT
BRANCH   9  20
ATOM     20  O   LIG A   1      -9.896  -2.220 125.848  0.00  0.00    -0.391 OA
ATOM     21  H   LIG A   1     -10.489  -2.737 125.277  0.00  0.00    +0.210 HD
ENDBRANCH   9  20
BRANCH  10  22
ATOM     22  C   LIG A   1      -7.166  -2.659 123.250  0.00  0.00    -0.025 C 
ATOM     23  C   LIG A   1      -6.428  -1.885 122.442  0.00  0.00    +0.004 C 
ENDBRANCH  10  22
TORSDOF 2
ENDMDL
MODEL 4
REMARK VINA RESULT:      -7.4      1.769      2.543
REMARK  Name = NuBBE_2194
REMARK  6 active torsions:
REMARK  status: ('A' for Active; 'I' for Inactive)
REMARK    1  A    between atoms: C_1  and  C_2
REMARK    2  A    between atoms: C_9  and  O_11
REMARK    3  A    between atoms: C_12  and  C_13
REMARK    4  A    between atoms: C_12  and  C_15
REMARK    5  A    between atoms: C_19  and  C_20
REMARK    6  A    between atoms: C_19  and  C_21
REMARK                            x       y       z     vdW  Elec       q    Type
REMARK                         _______ _______ _______ _____ _____    ______ ____
ROOT
ATOM      1  C   LIG A   1      -8.883  -0.321 126.347  0.00  0.00    +0.016 C 
ATOM      2  C   LIG A   1      -8.214  -0.249 124.948  0.00  0.00    -0.007 C 
ATOM      3  C   LIG A   1      -6.980  -1.205 124.752  0.00  0.00    +0.012 C 
ATOM      4  C   LIG A   1      -5.976  -1.011 125.891  0.00  0.00    +0.084 C 
ATOM      5  C   LIG A   1      -5.548   0.441 125.967  0.00  0.00    +0.160 C 
ATOM      6  C   LIG A   1      -6.416   1.497 125.338  0.00  0.00    -0.004 C 
ATOM      7  C   LIG A   1      -7.650   1.192 124.871  0.00  0.00    -0.054 C 
ATOM      8  C   LIG A   1      -8.560   2.291 124.347  0.00  0.00    +0.064 C 
ATOM      9  C   LIG A   1      -8.104   3.726 124.676  0.00  0.00    +0.129 C 
ATOM     10  C   LIG A   1      -6.580   3.929 124.470  0.00  0.00    +0.016 C 
ATOM     11  C   LIG A   1      -6.172   5.337 124.966  0.00  0.00    +0.018 C 
ATOM     12  C   LIG A   1      -5.821   2.888 125.340  0.00  0.00    +0.051 C 
ATOM     13  O   LIG A   1      -4.515   0.756 126.557  0.00  0.00    -0.292 OA
ATOM     14  C   LIG A   1      -7.321  -2.681 124.366  0.00  0.00    -0.031 C 
ATOM     15  C   LIG A   1      -6.025  -3.487 124.102  0.00  0.00    +0.011 C 
ATOM     16  C   LIG A   1      -8.091  -3.442 125.462  0.00  0.00    +0.011 C 
ATOM     17  C   LIG A   1      -8.155  -2.686 123.047  0.00  0.00    +0.007 C 
ATOM     18  C   LIG A   1      -8.761  -1.331 122.674  0.00  0.00    +0.001 C 
ATOM     19  C   LIG A   1      -9.307  -0.604 123.895  0.00  0.00    +0.011 C 
ENDROOT
BRANCH   9  20
ATOM     20  O   LIG A   1      -8.466   4.028 126.032  0.00  0.00    -0.391 OA
ATOM     21  H   LIG A   1      -7.917   3.477 126.615  0.00  0.00    +0.210 HD
ENDBRANCH   9  20
BRANCH  10  22
ATOM     22  C   LIG A   1      -6.219   3.724 122.990  0.00  0.00    -0.025 C 
ATOM     23  C   LIG A   1      -5.245   4.324 122.291  0.00  0.00    +0.004 C 
ENDBRANCH  10  22
TORSDOF 2
ENDMDL
MODEL 5
REMARK VINA RESULT:      -7.3      3.553      5.934
REMARK  Name = NuBBE_2194
REMARK  6 active torsions:
REMARK  status: ('A' for Active; 'I' for Inactive)
REMARK    1  A    between atoms: C_1  and  C_2
REMARK    2  A    between atoms: C_9  and  O_11
REMARK    3  A    between atoms: C_12  and  C_13
REMARK    4  A    between atoms: C_12  and  C_15
REMARK    5  A    between atoms: C_19  and  C_20
REMARK    6  A    between atoms: C_19  and  C_21
REMARK                            x       y       z     vdW  Elec       q    Type
REMARK                         _______ _______ _______ _____ _____    ______ ____
ROOT
ATOM      1  C   LIG A   1      -8.124  -0.057 127.120  0.00  0.00    +0.016 C 
ATOM      2  C   LIG A   1      -7.125  -1.162 126.685  0.00  0.00    -0.007 C 
ATOM      3  C   LIG A   1      -7.751  -2.322 125.826  0.00  0.00    +0.012 C 
ATOM      4  C   LIG A   1      -8.985  -2.893 126.529  0.00  0.00    +0.084 C 
ATOM      5  C   LIG A   1      -8.617  -3.368 127.921  0.00  0.00    +0.160 C 
ATOM      6  C   LIG A   1      -7.370  -2.837 128.574  0.00  0.00    -0.004 C 
ATOM      7  C   LIG A   1      -6.677  -1.816 128.016  0.00  0.00    -0.054 C 
ATOM      8  C   LIG A   1      -5.488  -1.213 128.746  0.00  0.00    +0.064 C 
ATOM      9  C   LIG A   1      -5.353  -1.626 130.225  0.00  0.00    +0.129 C 
ATOM     10  C   LIG A   1      -5.609  -3.141 130.446  0.00  0.00    +0.016 C 
ATOM     11  C   LIG A   1      -5.612  -3.452 131.961  0.00  0.00    +0.018 C 
ATOM     12  C   LIG A   1      -7.019  -3.489 129.893  0.00  0.00    +0.051 C 
ATOM     13  O   LIG A   1      -9.344  -4.160 128.521  0.00  0.00    -0.292 OA
ATOM     14  C   LIG A   1      -7.892  -2.032 124.296  0.00  0.00    -0.031 C 
ATOM     15  C   LIG A   1      -8.421  -3.283 123.553  0.00  0.00    +0.011 C 
ATOM     16  C   LIG A   1      -8.871  -0.888 123.974  0.00  0.00    +0.011 C 
ATOM     17  C   LIG A   1      -6.487  -1.694 123.707  0.00  0.00    +0.007 C 
ATOM     18  C   LIG A   1      -5.427  -1.343 124.754  0.00  0.00    +0.001 C 
ATOM     19  C   LIG A   1      -5.999  -0.467 125.860  0.00  0.00    +0.011 C 
ENDROOT
BRANCH   9  20
ATOM     20  O   LIG A   1      -6.271  -0.850 131.010  0.00  0.00    -0.391 OA
ATOM     21  H   LIG A   1      -5.830  -0.014 131.241  0.00  0.00    +0.210 HD
ENDBRANCH   9  20
BRANCH  10  22
ATOM     22  C   LIG A   1      -4.547  -3.965 129.700  0.00  0.00    -0.025 C 
ATOM     23  C   LIG A   1      -3.258  -3.655 129.499  0.00  0.00    +0.004 C 
ENDBRANCH  10  22
TORSDOF 2
ENDMDL
MODEL 6
REMARK VINA RESULT:      -7.1      5.773      9.931
REMARK  Name = NuBBE_2194
REMARK  6 active torsions:
REMARK  status: ('A' for Active; 'I' for Inactive)
REMARK    1  A    between atoms: C_1  and  C_2
REMARK    2  A    between atoms: C_9  and  O_11
REMARK    3  A    between atoms: C_12  and  C_13
REMARK    4  A    between atoms: C_12  and  C_15
REMARK    5  A    between atoms: C_19  and  C_20
REMARK    6  A    between atoms: C_19  and  C_21
REMARK                            x       y       z     vdW  Elec       q    Type
REMARK                         _______ _______ _______ _____ _____    ______ ____
ROOT
ATOM      1  C   LIG A   1      -4.969   5.567 132.103  0.00  0.00    +0.016 C 
ATOM      2  C   LIG A   1      -3.507   5.413 131.602  0.00  0.00    -0.007 C 
ATOM      3  C   LIG A   1      -2.652   6.732 131.634  0.00  0.00    +0.012 C 
ATOM      4  C   LIG A   1      -3.398   7.863 130.923  0.00  0.00    +0.084 C 
ATOM      5  C   LIG A   1      -3.733   7.453 129.502  0.00  0.00    +0.160 C 
ATOM      6  C   LIG A   1      -3.754   5.991 129.144  0.00  0.00    -0.004 C 
ATOM      7  C   LIG A   1      -3.657   5.042 130.105  0.00  0.00    -0.054 C 
ATOM      8  C   LIG A   1      -3.797   3.573 129.741  0.00  0.00    +0.064 C 
ATOM      9  C   LIG A   1      -4.347   3.301 128.327  0.00  0.00    +0.129 C 
ATOM     10  C   LIG A   1      -3.713   4.225 127.254  0.00  0.00    +0.016 C 
ATOM     11  C   LIG A   1      -4.421   4.006 125.895  0.00  0.00    +0.018 C 
ATOM     12  C   LIG A   1      -3.950   5.703 127.672  0.00  0.00    +0.051 C 
ATOM     13  O   LIG A   1      -4.010   8.304 128.657  0.00  0.00    -0.292 OA
ATOM     14  C   LIG A   1      -2.002   7.084 133.012  0.00  0.00    -0.031 C 
ATOM     15  C   LIG A   1      -1.106   8.341 132.884  0.00  0.00    +0.011 C 
ATOM     16  C   LIG A   1      -3.029   7.392 134.117  0.00  0.00    +0.011 C 
ATOM     17  C   LIG A   1      -1.090   5.901 133.465  0.00  0.00    +0.007 C 
ATOM     18  C   LIG A   1      -1.337   4.587 132.720  0.00  0.00    +0.001 C 
ATOM     19  C   LIG A   1      -2.823   4.338 132.500  0.00  0.00    +0.011 C 
ENDROOT
BRANCH   9  20
ATOM     20  O   LIG A   1      -5.773   3.467 128.343  0.00  0.00    -0.391 OA
ATOM     21  H   LIG A   1      -6.125   3.090 127.520  0.00  0.00    +0.210 HD
ENDBRANCH   9  20
BRANCH  10  22
ATOM     22  C   LIG A   1      -2.203   3.955 127.156  0.00  0.00    -0.025 C 
ATOM     23  C   LIG A   1      -1.590   2.929 126.548  0.00  0.00    +0.004 C 
ENDBRANCH  10  22
TORSDOF 2
ENDMDL
MODEL 7
REMARK VINA RESULT:      -7.0      2.125      2.994
REMARK  Name = NuBBE_2194
REMARK  6 active torsions:
REMARK  status: ('A' for Active; 'I' for Inactive)
REMARK    1  A    between atoms: C_1  and  C_2
REMARK    2  A    between atoms: C_9  and  O_11
REMARK    3  A    between atoms: C_12  and  C_13
REMARK    4  A    between atoms: C_12  and  C_15
REMARK    5  A    between atoms: C_19  and  C_20
REMARK    6  A    between atoms: C_19  and  C_21
REMARK                            x       y       z     vdW  Elec       q    Type
REMARK                         _______ _______ _______ _____ _____    ______ ____
ROOT
ATOM      1  C   LIG A   1      -8.667  -1.195 126.016  0.00  0.00    +0.016 C 
ATOM      2  C   LIG A   1      -7.414  -0.678 125.259  0.00  0.00    -0.007 C 
ATOM      3  C   LIG A   1      -6.189  -1.664 125.254  0.00  0.00    +0.012 C 
ATOM      4  C   LIG A   1      -5.866  -2.114 126.681  0.00  0.00    +0.084 C 
ATOM      5  C   LIG A   1      -5.605  -0.907 127.561  0.00  0.00    +0.160 C 
ATOM      6  C   LIG A   1      -6.120   0.441 127.132  0.00  0.00    -0.004 C 
ATOM      7  C   LIG A   1      -6.960   0.557 126.076  0.00  0.00    -0.054 C 
ATOM      8  C   LIG A   1      -7.564   1.908 125.729  0.00  0.00    +0.064 C 
ATOM      9  C   LIG A   1      -7.399   2.993 126.811  0.00  0.00    +0.129 C 
ATOM     10  C   LIG A   1      -5.977   3.007 127.430  0.00  0.00    +0.016 C 
ATOM     11  C   LIG A   1      -5.932   4.008 128.609  0.00  0.00    +0.018 C 
ATOM     12  C   LIG A   1      -5.674   1.595 128.003  0.00  0.00    +0.051 C 
ATOM     13  O   LIG A   1      -5.000  -1.031 128.626  0.00  0.00    -0.292 OA
ATOM     14  C   LIG A   1      -6.223  -2.783 124.162  0.00  0.00    -0.031 C 
ATOM     15  C   LIG A   1      -4.918  -3.616 124.197  0.00  0.00    +0.011 C 
ATOM     16  C   LIG A   1      -7.382  -3.781 124.339  0.00  0.00    +0.011 C 
ATOM     17  C   LIG A   1      -6.320  -2.119 122.753  0.00  0.00    +0.007 C 
ATOM     18  C   LIG A   1      -6.744  -0.648 122.771  0.00  0.00    +0.001 C 
ATOM     19  C   LIG A   1      -7.847  -0.395 123.789  0.00  0.00    +0.011 C 
ENDROOT
BRANCH   9  20
ATOM     20  O   LIG A   1      -8.383   2.780 127.835  0.00  0.00    -0.391 OA
ATOM     21  H   LIG A   1      -9.148   2.342 127.425  0.00  0.00    +0.210 HD
ENDBRANCH   9  20
BRANCH  10  22
ATOM     22  C   LIG A   1      -4.940   3.357 126.351  0.00  0.00    -0.025 C 
ATOM     23  C   LIG A   1      -3.604   3.273 126.436  0.00  0.00    +0.004 C 
ENDBRANCH  10  22
TORSDOF 2
ENDMDL
MODEL 8
REMARK VINA RESULT:      -7.0      3.737      6.101
REMARK  Name = NuBBE_2194
REMARK  6 active torsions:
REMARK  status: ('A' for Active; 'I' for Inactive)
REMARK    1  A    between atoms: C_1  and  C_2
REMARK    2  A    between atoms: C_9  and  O_11
REMARK    3  A    between atoms: C_12  and  C_13
REMARK    4  A    between atoms: C_12  and  C_15
REMARK    5  A    between atoms: C_19  and  C_20
REMARK    6  A    between atoms: C_19  and  C_21
REMARK                            x       y       z     vdW  Elec       q    Type
REMARK                         _______ _______ _______ _____ _____    ______ ____
ROOT
ATOM      1  C   LIG A   1      -5.124  -2.908 128.503  0.00  0.00    +0.016 C 
ATOM      2  C   LIG A   1      -6.116  -1.718 128.403  0.00  0.00    -0.007 C 
ATOM      3  C   LIG A   1      -7.229  -1.687 129.513  0.00  0.00    +0.012 C 
ATOM      4  C   LIG A   1      -7.944  -3.039 129.584  0.00  0.00    +0.084 C 
ATOM      5  C   LIG A   1      -8.520  -3.395 128.229  0.00  0.00    +0.160 C 
ATOM      6  C   LIG A   1      -7.972  -2.726 126.997  0.00  0.00    -0.004 C 
ATOM      7  C   LIG A   1      -6.860  -1.956 127.065  0.00  0.00    -0.054 C 
ATOM      8  C   LIG A   1      -6.251  -1.384 125.795  0.00  0.00    +0.064 C 
ATOM      9  C   LIG A   1      -6.790  -1.988 124.484  0.00  0.00    +0.129 C 
ATOM     10  C   LIG A   1      -8.332  -2.161 124.498  0.00  0.00    +0.016 C 
ATOM     11  C   LIG A   1      -8.783  -2.912 123.222  0.00  0.00    +0.018 C 
ATOM     12  C   LIG A   1      -8.719  -3.040 125.720  0.00  0.00    +0.051 C 
ATOM     13  O   LIG A   1      -9.411  -4.239 128.132  0.00  0.00    -0.292 OA
ATOM     14  C   LIG A   1      -6.808  -1.049 130.877  0.00  0.00    -0.031 C 
ATOM     15  C   LIG A   1      -8.017  -0.985 131.844  0.00  0.00    +0.011 C 
ATOM     16  C   LIG A   1      -5.706  -1.835 131.612  0.00  0.00    +0.011 C 
ATOM     17  C   LIG A   1      -6.325   0.415 130.630  0.00  0.00    +0.007 C 
ATOM     18  C   LIG A   1      -6.005   0.739 129.170  0.00  0.00    +0.001 C 
ATOM     19  C   LIG A   1      -5.275  -0.408 128.486  0.00  0.00    +0.011 C 
ENDROOT
BRANCH   9  20
ATOM     20  O   LIG A   1      -6.152  -3.254 124.259  0.00  0.00    -0.391 OA
ATOM     21  H   LIG A   1      -5.567  -3.159 123.488  0.00  0.00    +0.210 HD
ENDBRANCH   9  20
BRANCH  10  22
ATOM     22  C   LIG A   1      -9.012  -0.788 124.616  0.00  0.00    -0.025 C 
ATOM     23  C   LIG A   1      -8.975   0.226 123.739  0.00  0.00    +0.004 C 
ENDBRANCH  10  22
TORSDOF 2
ENDMDL
MODEL 9
REMARK VINA RESULT:      -6.8      3.238      4.275
REMARK  Name = NuBBE_2194
REMARK  6 active torsions:
REMARK  status: ('A' for Active; 'I' for Inactive)
REMARK    1  A    between atoms: C_1  and  C_2
REMARK    2  A    between atoms: C_9  and  O_11
REMARK    3  A    between atoms: C_12  and  C_13
REMARK    4  A    between atoms: C_12  and  C_15
REMARK    5  A    between atoms: C_19  and  C_20
REMARK    6  A    between atoms: C_19  and  C_21
REMARK                            x       y       z     vdW  Elec       q    Type
REMARK                         _______ _______ _______ _____ _____    ______ ____
ROOT
ATOM      1  C   LIG A   1      -7.508   1.055 127.896  0.00  0.00    +0.016 C 
ATOM      2  C   LIG A   1      -6.160   0.653 127.239  0.00  0.00    -0.007 C 
ATOM      3  C   LIG A   1      -5.357  -0.464 128.000  0.00  0.00    +0.012 C 
ATOM      4  C   LIG A   1      -5.199  -0.090 129.476  0.00  0.00    +0.084 C 
ATOM      5  C   LIG A   1      -4.524   1.261 129.601  0.00  0.00    +0.160 C 
ATOM      6  C   LIG A   1      -4.539   2.202 128.426  0.00  0.00    -0.004 C 
ATOM      7  C   LIG A   1      -5.294   1.935 127.335  0.00  0.00    -0.054 C 
ATOM      8  C   LIG A   1      -5.391   2.950 126.208  0.00  0.00    +0.064 C 
ATOM      9  C   LIG A   1      -4.847   4.352 126.546  0.00  0.00    +0.129 C 
ATOM     10  C   LIG A   1      -3.504   4.300 127.321  0.00  0.00    +0.016 C 
ATOM     11  C   LIG A   1      -3.102   5.728 127.761  0.00  0.00    +0.018 C 
ATOM     12  C   LIG A   1      -3.710   3.454 128.608  0.00  0.00    +0.051 C 
ATOM     13  O   LIG A   1      -3.992   1.597 130.659  0.00  0.00    -0.292 OA
ATOM     14  C   LIG A   1      -5.791  -1.936 127.697  0.00  0.00    -0.031 C 
ATOM     15  C   LIG A   1      -4.860  -2.938 128.424  0.00  0.00    +0.011 C 
ATOM     16  C   LIG A   1      -7.224  -2.263 128.155  0.00  0.00    +0.011 C 
ATOM     17  C   LIG A   1      -5.662  -2.202 126.164  0.00  0.00    +0.007 C 
ATOM     18  C   LIG A   1      -5.544  -0.938 125.308  0.00  0.00    +0.001 C 
ATOM     19  C   LIG A   1      -6.479   0.159 125.796  0.00  0.00    +0.011 C 
ENDROOT
BRANCH   9  20
ATOM     20  O   LIG A   1      -5.834   5.061 127.312  0.00  0.00    -0.391 OA
ATOM     21  H   LIG A   1      -5.726   6.010 127.130  0.00  0.00    +0.210 HD
ENDBRANCH   9  20
BRANCH  10  22
ATOM     22  C   LIG A   1      -2.420   3.650 126.446  0.00  0.00    -0.025 C 
ATOM     23  C   LIG A   1      -1.439   2.822 126.833  0.00  0.00    +0.004 C 
ENDBRANCH  10  22
TORSDOF 2
ENDMDL
