MODEL 1
REMARK VINA RESULT:      -5.5      0.000      0.000
REMARK  Name = NuBBE_378
REMARK  11 active torsions:
REMARK  status: ('A' for Active; 'I' for Inactive)
REMARK    1  A    between atoms: C_1  and  O_2
REMARK    2  A    between atoms: O_2  and  C_3
REMARK    3  A    between atoms: C_4  and  O_5
REMARK    4  A    between atoms: O_5  and  C_6
REMARK    5  A    between atoms: C_7  and  O_8
REMARK    6  A    between atoms: O_8  and  C_9
REMARK    7  A    between atoms: C_11  and  C_12
REMARK    8  A    between atoms: C_12  and  C_13
REMARK    9  A    between atoms: C_13  and  C_14
REMARK   10  A    between atoms: C_14  and  O_15
REMARK   11  A    between atoms: O_15  and  C_16
REMARK                            x       y       z     vdW  Elec       q    Type
REMARK                         _______ _______ _______ _____ _____    ______ ____
ROOT
ATOM      1  C   LIG A   1      -6.494   4.330 125.438  0.00  0.00    +0.165 A 
ATOM      2  C   LIG A   1      -7.706   3.682 125.769  0.00  0.00    +0.203 A 
ATOM      3  C   LIG A   1      -8.366   2.912 124.788  0.00  0.00    +0.165 A 
ATOM      4  C   LIG A   1      -7.793   2.797 123.511  0.00  0.00    +0.053 A 
ATOM      5  C   LIG A   1      -6.575   3.406 123.193  0.00  0.00    -0.040 A 
ATOM      6  C   LIG A   1      -5.921   4.155 124.172  0.00  0.00    +0.053 A 
ENDROOT
BRANCH   1   8
ATOM      7  C   LIG A   1      -4.533   4.743 126.699  0.00  0.00    +0.277 C 
ATOM      8  O   LIG A   1      -5.888   5.083 126.419  0.00  0.00    -0.491 OA
ENDBRANCH   1   8
BRANCH   2   9
ATOM      9  O   LIG A   1      -8.182   3.951 127.033  0.00  0.00    -0.488 OA
ATOM     10  C   LIG A   1      -7.924   2.990 128.049  0.00  0.00    +0.277 C 
ENDBRANCH   2   9
BRANCH   3  11
ATOM     11  O   LIG A   1      -9.567   2.329 125.106  0.00  0.00    -0.491 OA
ATOM     12  C   LIG A   1      -9.614   0.908 125.166  0.00  0.00    +0.277 C 
ENDBRANCH   3  11
BRANCH   5  13
ATOM     13  C   LIG A   1      -5.984   3.256 121.812  0.00  0.00    +0.046 C 
BRANCH  13  14
ATOM     14  C   LIG A   1      -4.884   4.278 121.539  0.00  0.00    +0.125 C 
BRANCH  14  15
ATOM     15  C   LIG A   1      -5.205   5.099 120.318  0.00  0.00    +0.307 C 
ATOM     16  O   LIG A   1      -4.832   6.255 120.132  0.00  0.00    -0.251 OA
BRANCH  15  17
ATOM     17  O   LIG A   1      -5.927   4.361 119.431  0.00  0.00    -0.468 OA
ATOM     18  C   LIG A   1      -6.784   5.134 118.585  0.00  0.00    +0.280 C 
ENDBRANCH  15  17
ENDBRANCH  14  15
ENDBRANCH  13  14
ENDBRANCH   5  13
TORSDOF 7
ENDMDL
MODEL 2
REMARK VINA RESULT:      -5.4      3.019      6.331
REMARK  Name = NuBBE_378
REMARK  11 active torsions:
REMARK  status: ('A' for Active; 'I' for Inactive)
REMARK    1  A    between atoms: C_1  and  O_2
REMARK    2  A    between atoms: O_2  and  C_3
REMARK    3  A    between atoms: C_4  and  O_5
REMARK    4  A    between atoms: O_5  and  C_6
REMARK    5  A    between atoms: C_7  and  O_8
REMARK    6  A    between atoms: O_8  and  C_9
REMARK    7  A    between atoms: C_11  and  C_12
REMARK    8  A    between atoms: C_12  and  C_13
REMARK    9  A    between atoms: C_13  and  C_14
REMARK   10  A    between atoms: C_14  and  O_15
REMARK   11  A    between atoms: O_15  and  C_16
REMARK                            x       y       z     vdW  Elec       q    Type
REMARK                         _______ _______ _______ _____ _____    ______ ____
ROOT
ATOM      1  C   LIG A   1      -6.098   3.733 121.137  0.00  0.00    +0.165 A 
ATOM      2  C   LIG A   1      -6.745   4.204 119.973  0.00  0.00    +0.203 A 
ATOM      3  C   LIG A   1      -8.148   4.085 119.867  0.00  0.00    +0.165 A 
ATOM      4  C   LIG A   1      -8.866   3.514 120.931  0.00  0.00    +0.053 A 
ATOM      5  C   LIG A   1      -8.232   3.082 122.099  0.00  0.00    -0.040 A 
ATOM      6  C   LIG A   1      -6.847   3.216 122.202  0.00  0.00    +0.053 A 
ENDROOT
BRANCH   1   8
ATOM      7  C   LIG A   1      -4.245   4.952 121.967  0.00  0.00    +0.277 C 
ATOM      8  O   LIG A   1      -4.728   3.855 121.196  0.00  0.00    -0.491 OA
ENDBRANCH   1   8
BRANCH   2   9
ATOM      9  O   LIG A   1      -5.902   4.666 118.987  0.00  0.00    -0.488 OA
ATOM     10  C   LIG A   1      -5.874   6.068 118.752  0.00  0.00    +0.277 C 
ENDBRANCH   2   9
BRANCH   3  11
ATOM     11  O   LIG A   1      -8.759   4.500 118.711  0.00  0.00    -0.491 OA
ATOM     12  C   LIG A   1     -10.178   4.611 118.719  0.00  0.00    +0.277 C 
ENDBRANCH   3  11
BRANCH   5  13
ATOM     13  C   LIG A   1      -9.036   2.479 123.226  0.00  0.00    +0.046 C 
BRANCH  13  14
ATOM     14  C   LIG A   1      -9.776   1.216 122.798  0.00  0.00    +0.125 C 
BRANCH  14  15
ATOM     15  C   LIG A   1      -9.028  -0.018 123.230  0.00  0.00    +0.307 C 
ATOM     16  O   LIG A   1      -7.918  -0.017 123.755  0.00  0.00    -0.251 OA
BRANCH  15  17
ATOM     17  O   LIG A   1      -9.780  -1.129 122.999  0.00  0.00    -0.468 OA
ATOM     18  C   LIG A   1      -9.093  -2.361 123.230  0.00  0.00    +0.280 C 
ENDBRANCH  15  17
ENDBRANCH  14  15
ENDBRANCH  13  14
ENDBRANCH   5  13
TORSDOF 7
ENDMDL
MODEL 3
REMARK VINA RESULT:      -5.2      6.017      9.941
REMARK  Name = NuBBE_378
REMARK  11 active torsions:
REMARK  status: ('A' for Active; 'I' for Inactive)
REMARK    1  A    between atoms: C_1  and  O_2
REMARK    2  A    between atoms: O_2  and  C_3
REMARK    3  A    between atoms: C_4  and  O_5
REMARK    4  A    between atoms: O_5  and  C_6
REMARK    5  A    between atoms: C_7  and  O_8
REMARK    6  A    between atoms: O_8  and  C_9
REMARK    7  A    between atoms: C_11  and  C_12
REMARK    8  A    between atoms: C_12  and  C_13
REMARK    9  A    between atoms: C_13  and  C_14
REMARK   10  A    between atoms: C_14  and  O_15
REMARK   11  A    between atoms: O_15  and  C_16
REMARK                            x       y       z     vdW  Elec       q    Type
REMARK                         _______ _______ _______ _____ _____    ______ ____
ROOT
ATOM      1  C   LIG A   1      -9.418   5.628 129.812  0.00  0.00    +0.165 A 
ATOM      2  C   LIG A   1     -10.774   5.976 130.006  0.00  0.00    +0.203 A 
ATOM      3  C   LIG A   1     -11.245   6.210 131.315  0.00  0.00    +0.165 A 
ATOM      4  C   LIG A   1     -10.349   6.105 132.392  0.00  0.00    +0.053 A 
ATOM      5  C   LIG A   1      -8.999   5.797 132.199  0.00  0.00    -0.040 A 
ATOM      6  C   LIG A   1      -8.537   5.581 130.900  0.00  0.00    +0.053 A 
ENDROOT
BRANCH   1   8
ATOM      7  C   LIG A   1      -8.063   4.333 128.364  0.00  0.00    +0.277 C 
ATOM      8  O   LIG A   1      -9.000   5.395 128.520  0.00  0.00    -0.491 OA
ENDBRANCH   1   8
BRANCH   2   9
ATOM      9  O   LIG A   1     -11.545   5.964 128.865  0.00  0.00    -0.488 OA
ATOM     10  C   LIG A   1     -11.744   7.202 128.195  0.00  0.00    +0.277 C 
ENDBRANCH   2   9
BRANCH   3  11
ATOM     11  O   LIG A   1     -12.575   6.498 131.495  0.00  0.00    -0.491 OA
ATOM     12  C   LIG A   1     -12.948   7.870 131.562  0.00  0.00    +0.277 C 
ENDBRANCH   3  11
BRANCH   5  13
ATOM     13  C   LIG A   1      -8.062   5.699 133.378  0.00  0.00    +0.046 C 
BRANCH  13  14
ATOM     14  C   LIG A   1      -8.414   4.537 134.302  0.00  0.00    +0.125 C 
BRANCH  14  15
ATOM     15  C   LIG A   1      -8.274   3.220 133.587  0.00  0.00    +0.307 C 
ATOM     16  O   LIG A   1      -9.205   2.465 133.316  0.00  0.00    -0.251 OA
BRANCH  15  17
ATOM     17  O   LIG A   1      -6.974   3.008 133.241  0.00  0.00    -0.468 OA
ATOM     18  C   LIG A   1      -6.180   2.421 134.275  0.00  0.00    +0.280 C 
ENDBRANCH  15  17
ENDBRANCH  14  15
ENDBRANCH  13  14
ENDBRANCH   5  13
TORSDOF 7
ENDMDL
MODEL 4
REMARK VINA RESULT:      -5.1      3.132      5.607
REMARK  Name = NuBBE_378
REMARK  11 active torsions:
REMARK  status: ('A' for Active; 'I' for Inactive)
REMARK    1  A    between atoms: C_1  and  O_2
REMARK    2  A    between atoms: O_2  and  C_3
REMARK    3  A    between atoms: C_4  and  O_5
REMARK    4  A    between atoms: O_5  and  C_6
REMARK    5  A    between atoms: C_7  and  O_8
REMARK    6  A    between atoms: O_8  and  C_9
REMARK    7  A    between atoms: C_11  and  C_12
REMARK    8  A    between atoms: C_12  and  C_13
REMARK    9  A    between atoms: C_13  and  C_14
REMARK   10  A    between atoms: C_14  and  O_15
REMARK   11  A    between atoms: O_15  and  C_16
REMARK                            x       y       z     vdW  Elec       q    Type
REMARK                         _______ _______ _______ _____ _____    ______ ____
ROOT
ATOM      1  C   LIG A   1      -9.059   1.323 125.576  0.00  0.00    +0.165 A 
ATOM      2  C   LIG A   1      -9.025   2.396 124.658  0.00  0.00    +0.203 A 
ATOM      3  C   LIG A   1      -8.958   2.120 123.276  0.00  0.00    +0.165 A 
ATOM      4  C   LIG A   1      -8.940   0.782 122.848  0.00  0.00    +0.053 A 
ATOM      5  C   LIG A   1      -9.010  -0.282 123.753  0.00  0.00    -0.040 A 
ATOM      6  C   LIG A   1      -9.091  -0.000 125.117  0.00  0.00    +0.053 A 
ENDROOT
BRANCH   1   8
ATOM      7  C   LIG A   1      -8.114   1.019 127.726  0.00  0.00    +0.277 C 
ATOM      8  O   LIG A   1      -9.112   1.635 126.917  0.00  0.00    -0.491 OA
ENDBRANCH   1   8
BRANCH   2   9
ATOM      9  O   LIG A   1      -8.971   3.648 125.230  0.00  0.00    -0.488 OA
ATOM     10  C   LIG A   1      -7.687   4.229 125.415  0.00  0.00    +0.277 C 
ENDBRANCH   2   9
BRANCH   3  11
ATOM     11  O   LIG A   1      -8.875   3.170 122.397  0.00  0.00    -0.491 OA
ATOM     12  C   LIG A   1      -7.627   3.392 121.751  0.00  0.00    +0.277 C 
ENDBRANCH   3  11
BRANCH   5  13
ATOM     13  C   LIG A   1      -8.995  -1.707 123.257  0.00  0.00    +0.046 C 
BRANCH  13  14
ATOM     14  C   LIG A   1      -7.843  -2.514 123.849  0.00  0.00    +0.125 C 
BRANCH  14  15
ATOM     15  C   LIG A   1      -6.516  -1.990 123.366  0.00  0.00    +0.307 C 
ATOM     16  O   LIG A   1      -6.162  -1.954 122.190  0.00  0.00    -0.251 OA
BRANCH  15  17
ATOM     17  O   LIG A   1      -5.787  -1.518 124.414  0.00  0.00    -0.468 OA
ATOM     18  C   LIG A   1      -5.906  -2.294 125.608  0.00  0.00    +0.280 C 
ENDBRANCH  15  17
ENDBRANCH  14  15
ENDBRANCH  13  14
ENDBRANCH   5  13
TORSDOF 7
ENDMDL
MODEL 5
REMARK VINA RESULT:      -5.1      1.859      6.284
REMARK  Name = NuBBE_378
REMARK  11 active torsions:
REMARK  status: ('A' for Active; 'I' for Inactive)
REMARK    1  A    between atoms: C_1  and  O_2
REMARK    2  A    between atoms: O_2  and  C_3
REMARK    3  A    between atoms: C_4  and  O_5
REMARK    4  A    between atoms: O_5  and  C_6
REMARK    5  A    between atoms: C_7  and  O_8
REMARK    6  A    between atoms: O_8  and  C_9
REMARK    7  A    between atoms: C_11  and  C_12
REMARK    8  A    between atoms: C_12  and  C_13
REMARK    9  A    between atoms: C_13  and  C_14
REMARK   10  A    between atoms: C_14  and  O_15
REMARK   11  A    between atoms: O_15  and  C_16
REMARK                            x       y       z     vdW  Elec       q    Type
REMARK                         _______ _______ _______ _____ _____    ______ ____
ROOT
ATOM      1  C   LIG A   1      -6.178   3.866 120.929  0.00  0.00    +0.165 A 
ATOM      2  C   LIG A   1      -6.884   4.279 119.777  0.00  0.00    +0.203 A 
ATOM      3  C   LIG A   1      -8.282   4.095 119.722  0.00  0.00    +0.165 A 
ATOM      4  C   LIG A   1      -8.938   3.518 120.823  0.00  0.00    +0.053 A 
ATOM      5  C   LIG A   1      -8.246   3.142 121.978  0.00  0.00    -0.040 A 
ATOM      6  C   LIG A   1      -6.866   3.340 122.031  0.00  0.00    +0.053 A 
ENDROOT
BRANCH   1   8
ATOM      7  C   LIG A   1      -4.322   4.922 121.953  0.00  0.00    +0.277 C 
ATOM      8  O   LIG A   1      -4.813   4.051 120.938  0.00  0.00    -0.491 OA
ENDBRANCH   1   8
BRANCH   2   9
ATOM      9  O   LIG A   1      -6.096   4.755 118.753  0.00  0.00    -0.488 OA
ATOM     10  C   LIG A   1      -5.946   6.165 118.643  0.00  0.00    +0.277 C 
ENDBRANCH   2   9
BRANCH   3  11
ATOM     11  O   LIG A   1      -8.950   4.454 118.579  0.00  0.00    -0.491 OA
ATOM     12  C   LIG A   1     -10.337   4.753 118.693  0.00  0.00    +0.277 C 
ENDBRANCH   3  11
BRANCH   5  13
ATOM     13  C   LIG A   1      -8.984   2.531 123.144  0.00  0.00    +0.046 C 
BRANCH  13  14
ATOM     14  C   LIG A   1      -8.075   2.303 124.349  0.00  0.00    +0.125 C 
BRANCH  14  15
ATOM     15  C   LIG A   1      -8.454   3.212 125.488  0.00  0.00    +0.307 C 
ATOM     16  O   LIG A   1      -8.678   4.415 125.380  0.00  0.00    -0.251 OA
BRANCH  15  17
ATOM     17  O   LIG A   1      -8.557   2.500 126.644  0.00  0.00    -0.468 OA
ATOM     18  C   LIG A   1      -7.723   2.976 127.703  0.00  0.00    +0.280 C 
ENDBRANCH  15  17
ENDBRANCH  14  15
ENDBRANCH  13  14
ENDBRANCH   5  13
TORSDOF 7
ENDMDL
MODEL 6
REMARK VINA RESULT:      -5.1      5.520      9.589
REMARK  Name = NuBBE_378
REMARK  11 active torsions:
REMARK  status: ('A' for Active; 'I' for Inactive)
REMARK    1  A    between atoms: C_1  and  O_2
REMARK    2  A    between atoms: O_2  and  C_3
REMARK    3  A    between atoms: C_4  and  O_5
REMARK    4  A    between atoms: O_5  and  C_6
REMARK    5  A    between atoms: C_7  and  O_8
REMARK    6  A    between atoms: O_8  and  C_9
REMARK    7  A    between atoms: C_11  and  C_12
REMARK    8  A    between atoms: C_12  and  C_13
REMARK    9  A    between atoms: C_13  and  C_14
REMARK   10  A    between atoms: C_14  and  O_15
REMARK   11  A    between atoms: O_15  and  C_16
REMARK                            x       y       z     vdW  Elec       q    Type
REMARK                         _______ _______ _______ _____ _____    ______ ____
ROOT
ATOM      1  C   LIG A   1      -8.652  -2.180 125.178  0.00  0.00    +0.165 A 
ATOM      2  C   LIG A   1      -7.399  -1.554 124.989  0.00  0.00    +0.203 A 
ATOM      3  C   LIG A   1      -6.480  -1.514 126.059  0.00  0.00    +0.165 A 
ATOM      4  C   LIG A   1      -6.829  -2.112 127.281  0.00  0.00    +0.053 A 
ATOM      5  C   LIG A   1      -8.053  -2.763 127.460  0.00  0.00    -0.040 A 
ATOM      6  C   LIG A   1      -8.951  -2.811 126.393  0.00  0.00    +0.053 A 
ENDROOT
BRANCH   1   8
ATOM      7  C   LIG A   1      -9.646  -3.431 123.431  0.00  0.00    +0.277 C 
ATOM      8  O   LIG A   1      -9.526  -2.186 124.114  0.00  0.00    -0.491 OA
ENDBRANCH   1   8
BRANCH   2   9
ATOM      9  O   LIG A   1      -7.232  -0.948 123.764  0.00  0.00    -0.488 OA
ATOM     10  C   LIG A   1      -6.454  -1.635 122.793  0.00  0.00    +0.277 C 
ENDBRANCH   2   9
BRANCH   3  11
ATOM     11  O   LIG A   1      -5.287  -0.860 125.879  0.00  0.00    -0.491 OA
ATOM     12  C   LIG A   1      -5.233   0.519 126.226  0.00  0.00    +0.277 C 
ENDBRANCH   3  11
BRANCH   5  13
ATOM     13  C   LIG A   1      -8.393  -3.400 128.785  0.00  0.00    +0.046 C 
BRANCH  13  14
ATOM     14  C   LIG A   1      -7.770  -2.656 129.962  0.00  0.00    +0.125 C 
BRANCH  14  15
ATOM     15  C   LIG A   1      -6.762  -3.520 130.672  0.00  0.00    +0.307 C 
ATOM     16  O   LIG A   1      -6.193  -4.488 130.173  0.00  0.00    -0.251 OA
BRANCH  15  17
ATOM     17  O   LIG A   1      -6.538  -3.047 131.929  0.00  0.00    -0.468 OA
ATOM     18  C   LIG A   1      -7.522  -2.118 132.390  0.00  0.00    +0.280 C 
ENDBRANCH  15  17
ENDBRANCH  14  15
ENDBRANCH  13  14
ENDBRANCH   5  13
TORSDOF 7
ENDMDL
MODEL 7
REMARK VINA RESULT:      -5.0      5.494      9.102
REMARK  Name = NuBBE_378
REMARK  11 active torsions:
REMARK  status: ('A' for Active; 'I' for Inactive)
REMARK    1  A    between atoms: C_1  and  O_2
REMARK    2  A    between atoms: O_2  and  C_3
REMARK    3  A    between atoms: C_4  and  O_5
REMARK    4  A    between atoms: O_5  and  C_6
REMARK    5  A    between atoms: C_7  and  O_8
REMARK    6  A    between atoms: O_8  and  C_9
REMARK    7  A    between atoms: C_11  and  C_12
REMARK    8  A    between atoms: C_12  and  C_13
REMARK    9  A    between atoms: C_13  and  C_14
REMARK   10  A    between atoms: C_14  and  O_15
REMARK   11  A    between atoms: O_15  and  C_16
REMARK                            x       y       z     vdW  Elec       q    Type
REMARK                         _______ _______ _______ _____ _____    ______ ____
ROOT
ATOM      1  C   LIG A   1      -6.538  -1.490 125.941  0.00  0.00    +0.165 A 
ATOM      2  C   LIG A   1      -7.471  -1.490 124.879  0.00  0.00    +0.203 A 
ATOM      3  C   LIG A   1      -8.705  -2.155 125.046  0.00  0.00    +0.165 A 
ATOM      4  C   LIG A   1      -8.979  -2.787 126.270  0.00  0.00    +0.053 A 
ATOM      5  C   LIG A   1      -8.073  -2.757 127.334  0.00  0.00    -0.040 A 
ATOM      6  C   LIG A   1      -6.861  -2.085 127.167  0.00  0.00    +0.053 A 
ENDROOT
BRANCH   1   8
ATOM      7  C   LIG A   1      -5.236   0.450 126.326  0.00  0.00    +0.277 C 
ATOM      8  O   LIG A   1      -5.341  -0.842 125.734  0.00  0.00    -0.491 OA
ENDBRANCH   1   8
BRANCH   2   9
ATOM      9  O   LIG A   1      -7.029  -0.896 123.718  0.00  0.00    -0.488 OA
ATOM     10  C   LIG A   1      -6.450  -1.739 122.730  0.00  0.00    +0.277 C 
ENDBRANCH   2   9
BRANCH   3  11
ATOM     11  O   LIG A   1      -9.582  -2.191 123.991  0.00  0.00    -0.491 OA
ATOM     12  C   LIG A   1      -9.712  -3.419 123.284  0.00  0.00    +0.277 C 
ENDBRANCH   3  11
BRANCH   5  13
ATOM     13  C   LIG A   1      -8.404  -3.441 128.638  0.00  0.00    +0.046 C 
BRANCH  13  14
ATOM     14  C   LIG A   1      -7.884  -2.667 129.846  0.00  0.00    +0.125 C 
BRANCH  14  15
ATOM     15  C   LIG A   1      -6.891  -3.489 130.624  0.00  0.00    +0.307 C 
ATOM     16  O   LIG A   1      -6.107  -4.295 130.130  0.00  0.00    -0.251 OA
BRANCH  15  17
ATOM     17  O   LIG A   1      -6.954  -3.175 131.947  0.00  0.00    -0.468 OA
ATOM     18  C   LIG A   1      -6.490  -1.859 132.261  0.00  0.00    +0.280 C 
ENDBRANCH  15  17
ENDBRANCH  14  15
ENDBRANCH  13  14
ENDBRANCH   5  13
TORSDOF 7
ENDMDL
MODEL 8
REMARK VINA RESULT:      -5.0      3.830      6.505
REMARK  Name = NuBBE_378
REMARK  11 active torsions:
REMARK  status: ('A' for Active; 'I' for Inactive)
REMARK    1  A    between atoms: C_1  and  O_2
REMARK    2  A    between atoms: O_2  and  C_3
REMARK    3  A    between atoms: C_4  and  O_5
REMARK    4  A    between atoms: O_5  and  C_6
REMARK    5  A    between atoms: C_7  and  O_8
REMARK    6  A    between atoms: O_8  and  C_9
REMARK    7  A    between atoms: C_11  and  C_12
REMARK    8  A    between atoms: C_12  and  C_13
REMARK    9  A    between atoms: C_13  and  C_14
REMARK   10  A    between atoms: C_14  and  O_15
REMARK   11  A    between atoms: O_15  and  C_16
REMARK                            x       y       z     vdW  Elec       q    Type
REMARK                         _______ _______ _______ _____ _____    ______ ____
ROOT
ATOM      1  C   LIG A   1      -5.916   0.231 125.757  0.00  0.00    +0.165 A 
ATOM      2  C   LIG A   1      -6.450   1.306 125.011  0.00  0.00    +0.203 A 
ATOM      3  C   LIG A   1      -7.115   1.038 123.795  0.00  0.00    +0.165 A 
ATOM      4  C   LIG A   1      -7.240  -0.294 123.365  0.00  0.00    +0.053 A 
ATOM      5  C   LIG A   1      -6.745  -1.361 124.120  0.00  0.00    -0.040 A 
ATOM      6  C   LIG A   1      -6.102  -1.090 125.328  0.00  0.00    +0.053 A 
ENDROOT
BRANCH   1   8
ATOM      7  C   LIG A   1      -5.615  -0.273 128.051  0.00  0.00    +0.277 C 
ATOM      8  O   LIG A   1      -5.264   0.535 126.931  0.00  0.00    -0.491 OA
ENDBRANCH   1   8
BRANCH   2   9
ATOM      9  O   LIG A   1      -6.181   2.557 125.520  0.00  0.00    -0.488 OA
ATOM     10  C   LIG A   1      -7.203   3.189 126.279  0.00  0.00    +0.277 C 
ENDBRANCH   2   9
BRANCH   3  11
ATOM     11  O   LIG A   1      -7.585   2.093 123.055  0.00  0.00    -0.491 OA
ATOM     12  C   LIG A   1      -8.991   2.314 123.043  0.00  0.00    +0.277 C 
ENDBRANCH   3  11
BRANCH   5  13
ATOM     13  C   LIG A   1      -6.904  -2.780 123.631  0.00  0.00    +0.046 C 
BRANCH  13  14
ATOM     14  C   LIG A   1      -7.827  -3.601 124.527  0.00  0.00    +0.125 C 
BRANCH  14  15
ATOM     15  C   LIG A   1      -9.258  -3.156 124.375  0.00  0.00    +0.307 C 
ATOM     16  O   LIG A   1      -9.880  -3.143 123.316  0.00  0.00    -0.251 OA
BRANCH  15  17
ATOM     17  O   LIG A   1      -9.776  -2.817 125.587  0.00  0.00    -0.468 OA
ATOM     18  C   LIG A   1      -9.033  -3.314 126.703  0.00  0.00    +0.280 C 
ENDBRANCH  15  17
ENDBRANCH  14  15
ENDBRANCH  13  14
ENDBRANCH   5  13
TORSDOF 7
ENDMDL
MODEL 9
REMARK VINA RESULT:      -5.0      5.018      8.894
REMARK  Name = NuBBE_378
REMARK  11 active torsions:
REMARK  status: ('A' for Active; 'I' for Inactive)
REMARK    1  A    between atoms: C_1  and  O_2
REMARK    2  A    between atoms: O_2  and  C_3
REMARK    3  A    between atoms: C_4  and  O_5
REMARK    4  A    between atoms: O_5  and  C_6
REMARK    5  A    between atoms: C_7  and  O_8
REMARK    6  A    between atoms: O_8  and  C_9
REMARK    7  A    between atoms: C_11  and  C_12
REMARK    8  A    between atoms: C_12  and  C_13
REMARK    9  A    between atoms: C_13  and  C_14
REMARK   10  A    between atoms: C_14  and  O_15
REMARK   11  A    between atoms: O_15  and  C_16
REMARK                            x       y       z     vdW  Elec       q    Type
REMARK                         _______ _______ _______ _____ _____    ______ ____
ROOT
ATOM      1  C   LIG A   1      -9.016  -1.832 125.216  0.00  0.00    +0.165 A 
ATOM      2  C   LIG A   1      -8.560  -0.528 125.515  0.00  0.00    +0.203 A 
ATOM      3  C   LIG A   1      -8.029  -0.258 126.794  0.00  0.00    +0.165 A 
ATOM      4  C   LIG A   1      -7.954  -1.299 127.734  0.00  0.00    +0.053 A 
ATOM      5  C   LIG A   1      -8.370  -2.598 127.430  0.00  0.00    -0.040 A 
ATOM      6  C   LIG A   1      -8.881  -2.861 126.157  0.00  0.00    +0.053 A 
ENDROOT
BRANCH   1   8
ATOM      7  C   LIG A   1      -9.522  -3.406 123.521  0.00  0.00    +0.277 C 
ATOM      8  O   LIG A   1      -9.539  -2.051 123.961  0.00  0.00    -0.491 OA
ENDBRANCH   1   8
BRANCH   2   9
ATOM      9  O   LIG A   1      -8.770   0.402 124.520  0.00  0.00    -0.488 OA
ATOM     10  C   LIG A   1      -9.919   1.232 124.630  0.00  0.00    +0.277 C 
ENDBRANCH   2   9
BRANCH   3  11
ATOM     11  O   LIG A   1      -7.637   1.023 127.088  0.00  0.00    -0.491 OA
ATOM     12  C   LIG A   1      -8.292   1.682 128.166  0.00  0.00    +0.277 C 
ENDBRANCH   3  11
BRANCH   5  13
ATOM     13  C   LIG A   1      -8.268  -3.694 128.462  0.00  0.00    +0.046 C 
BRANCH  13  14
ATOM     14  C   LIG A   1      -7.748  -3.181 129.802  0.00  0.00    +0.125 C 
BRANCH  14  15
ATOM     15  C   LIG A   1      -6.343  -3.660 130.052  0.00  0.00    +0.307 C 
ATOM     16  O   LIG A   1      -6.036  -4.814 130.339  0.00  0.00    -0.251 OA
BRANCH  15  17
ATOM     17  O   LIG A   1      -5.458  -2.642 129.867  0.00  0.00    -0.468 OA
ATOM     18  C   LIG A   1      -4.517  -2.865 128.814  0.00  0.00    +0.280 C 
ENDBRANCH  15  17
ENDBRANCH  14  15
ENDBRANCH  13  14
ENDBRANCH   5  13
TORSDOF 7
ENDMDL
