MODEL 1
REMARK VINA RESULT:      -8.0      0.000      0.000
REMARK  Name = NuBBE_1817
REMARK  10 active torsions:
REMARK  status: ('A' for Active; 'I' for Inactive)
REMARK    1  A    between atoms: C_2  and  C_3
REMARK    2  A    between atoms: C_2  and  C_17
REMARK    3  A    between atoms: C_8  and  O_9
REMARK    4  A    between atoms: O_9  and  C_10
REMARK    5  A    between atoms: C_11  and  O_12
REMARK    6  A    between atoms: O_12  and  C_13
REMARK    7  A    between atoms: C_20  and  O_21
REMARK    8  A    between atoms: O_21  and  C_22
REMARK    9  A    between atoms: C_24  and  O_25
REMARK   10  A    between atoms: O_25  and  C_26
REMARK                            x       y       z     vdW  Elec       q    Type
REMARK                         _______ _______ _______ _____ _____    ______ ____
ROOT
ATOM      1  C   LIG A   1      -9.807   5.854 131.267  0.00  0.00    +0.169 C 
ATOM      2  C   LIG A   1      -8.808   6.674 130.901  0.00  0.00    +0.058 C 
ATOM      3  C   LIG A   1      -7.509   6.537 131.539  0.00  0.00    -0.011 A 
ATOM      4  C   LIG A   1      -7.434   5.824 132.732  0.00  0.00    +0.001 A 
ATOM      5  C   LIG A   1      -6.190   5.664 133.348  0.00  0.00    +0.057 A 
ATOM      6  C   LIG A   1      -5.024   6.175 132.754  0.00  0.00    +0.162 A 
ATOM      7  C   LIG A   1      -5.102   6.838 131.516  0.00  0.00    +0.162 A 
ATOM      8  C   LIG A   1      -6.354   7.025 130.924  0.00  0.00    +0.057 A 
ATOM      9  C   LIG A   1      -8.715   5.291 133.320  0.00  0.00    +0.265 C 
ATOM     10  O   LIG A   1      -9.737   4.994 132.349  0.00  0.00    -0.483 OA
ENDROOT
BRANCH   1  12
ATOM     11  O   LIG A   1     -11.485   4.712 129.997  0.00  0.00    -0.283 OA
ATOM     12  C   LIG A   1     -11.039   5.775 130.401  0.00  0.00    +0.231 C 
BRANCH  12  13
ATOM     13  C   LIG A   1     -11.644   7.075 129.989  0.00  0.00    +0.067 A 
ATOM     14  C   LIG A   1     -12.415   7.792 130.924  0.00  0.00    +0.019 A 
ATOM     15  C   LIG A   1     -13.111   8.935 130.532  0.00  0.00    +0.046 A 
ATOM     16  C   LIG A   1     -13.009   9.395 129.221  0.00  0.00    +0.124 A 
ATOM     17  C   LIG A   1     -12.216   8.701 128.304  0.00  0.00    +0.092 A 
ATOM     18  C   LIG A   1     -11.514   7.549 128.680  0.00  0.00    +0.135 A 
BRANCH  16  19
ATOM     19  O   LIG A   1     -13.763  10.495 128.911  0.00  0.00    -0.495 OA
ATOM     20  C   LIG A   1     -13.715  11.547 129.871  0.00  0.00    +0.277 C 
ENDBRANCH  16  19
BRANCH  18  21
ATOM     21  O   LIG A   1     -10.795   6.819 127.771  0.00  0.00    -0.494 OA
ATOM     22  C   LIG A   1     -10.752   7.386 126.462  0.00  0.00    +0.277 C 
ENDBRANCH  18  21
ENDBRANCH  12  13
ENDBRANCH   1  12
BRANCH   6  23
ATOM     23  O   LIG A   1      -3.883   5.915 133.471  0.00  0.00    -0.491 OA
ATOM     24  C   LIG A   1      -3.529   6.873 134.464  0.00  0.00    +0.277 C 
ENDBRANCH   6  23
BRANCH   7  25
ATOM     25  O   LIG A   1      -3.937   7.193 130.888  0.00  0.00    -0.491 OA
ATOM     26  C   LIG A   1      -4.017   8.255 129.944  0.00  0.00    +0.277 C 
ENDBRANCH   7  25
TORSDOF 6
ENDMDL
MODEL 2
REMARK VINA RESULT:      -7.3      1.469      2.595
REMARK  Name = NuBBE_1817
REMARK  10 active torsions:
REMARK  status: ('A' for Active; 'I' for Inactive)
REMARK    1  A    between atoms: C_2  and  C_3
REMARK    2  A    between atoms: C_2  and  C_17
REMARK    3  A    between atoms: C_8  and  O_9
REMARK    4  A    between atoms: O_9  and  C_10
REMARK    5  A    between atoms: C_11  and  O_12
REMARK    6  A    between atoms: O_12  and  C_13
REMARK    7  A    between atoms: C_20  and  O_21
REMARK    8  A    between atoms: O_21  and  C_22
REMARK    9  A    between atoms: C_24  and  O_25
REMARK   10  A    between atoms: O_25  and  C_26
REMARK                            x       y       z     vdW  Elec       q    Type
REMARK                         _______ _______ _______ _____ _____    ______ ____
ROOT
ATOM      1  C   LIG A   1      -9.569   5.498 130.838  0.00  0.00    +0.169 C 
ATOM      2  C   LIG A   1      -9.426   5.013 132.083  0.00  0.00    +0.058 C 
ATOM      3  C   LIG A   1      -8.194   5.276 132.808  0.00  0.00    -0.011 A 
ATOM      4  C   LIG A   1      -7.082   5.700 132.085  0.00  0.00    +0.001 A 
ATOM      5  C   LIG A   1      -5.896   5.978 132.769  0.00  0.00    +0.057 A 
ATOM      6  C   LIG A   1      -5.833   5.874 134.169  0.00  0.00    +0.162 A 
ATOM      7  C   LIG A   1      -6.979   5.507 134.896  0.00  0.00    +0.162 A 
ATOM      8  C   LIG A   1      -8.152   5.196 134.202  0.00  0.00    +0.057 A 
ATOM      9  C   LIG A   1      -7.209   5.802 130.587  0.00  0.00    +0.265 C 
ATOM     10  O   LIG A   1      -8.542   6.086 130.121  0.00  0.00    -0.483 OA
ENDROOT
BRANCH   1  12
ATOM     11  O   LIG A   1     -11.522   4.479 129.901  0.00  0.00    -0.283 OA
ATOM     12  C   LIG A   1     -10.941   5.506 130.213  0.00  0.00    +0.231 C 
BRANCH  12  13
ATOM     13  C   LIG A   1     -11.526   6.847 129.918  0.00  0.00    +0.067 A 
ATOM     14  C   LIG A   1     -12.308   7.479 130.902  0.00  0.00    +0.019 A 
ATOM     15  C   LIG A   1     -12.986   8.662 130.610  0.00  0.00    +0.046 A 
ATOM     16  C   LIG A   1     -12.854   9.245 129.351  0.00  0.00    +0.124 A 
ATOM     17  C   LIG A   1     -12.049   8.634 128.387  0.00  0.00    +0.092 A 
ATOM     18  C   LIG A   1     -11.365   7.444 128.664  0.00  0.00    +0.135 A 
BRANCH  16  19
ATOM     19  O   LIG A   1     -13.591  10.378 129.134  0.00  0.00    -0.495 OA
ATOM     20  C   LIG A   1     -13.551  11.333 130.192  0.00  0.00    +0.277 C 
ENDBRANCH  16  19
BRANCH  18  21
ATOM     21  O   LIG A   1     -10.635   6.796 127.702  0.00  0.00    -0.494 OA
ATOM     22  C   LIG A   1     -10.739   7.368 126.399  0.00  0.00    +0.277 C 
ENDBRANCH  18  21
ENDBRANCH  12  13
ENDBRANCH   1  12
BRANCH   6  23
ATOM     23  O   LIG A   1      -4.606   6.203 134.689  0.00  0.00    -0.491 OA
ATOM     24  C   LIG A   1      -3.477   5.571 134.093  0.00  0.00    +0.277 C 
ENDBRANCH   6  23
BRANCH   7  25
ATOM     25  O   LIG A   1      -6.933   5.558 136.264  0.00  0.00    -0.491 OA
ATOM     26  C   LIG A   1      -7.790   6.499 136.900  0.00  0.00    +0.277 C 
ENDBRANCH   7  25
TORSDOF 6
ENDMDL
MODEL 3
REMARK VINA RESULT:      -7.3      8.749     11.259
REMARK  Name = NuBBE_1817
REMARK  10 active torsions:
REMARK  status: ('A' for Active; 'I' for Inactive)
REMARK    1  A    between atoms: C_2  and  C_3
REMARK    2  A    between atoms: C_2  and  C_17
REMARK    3  A    between atoms: C_8  and  O_9
REMARK    4  A    between atoms: O_9  and  C_10
REMARK    5  A    between atoms: C_11  and  O_12
REMARK    6  A    between atoms: O_12  and  C_13
REMARK    7  A    between atoms: C_20  and  O_21
REMARK    8  A    between atoms: O_21  and  C_22
REMARK    9  A    between atoms: C_24  and  O_25
REMARK   10  A    between atoms: O_25  and  C_26
REMARK                            x       y       z     vdW  Elec       q    Type
REMARK                         _______ _______ _______ _____ _____    ______ ____
ROOT
ATOM      1  C   LIG A   1      -8.642   1.517 124.369  0.00  0.00    +0.169 C 
ATOM      2  C   LIG A   1      -9.156   2.319 123.421  0.00  0.00    +0.058 C 
ATOM      3  C   LIG A   1      -8.259   2.970 122.481  0.00  0.00    -0.011 A 
ATOM      4  C   LIG A   1      -6.904   3.033 122.800  0.00  0.00    +0.001 A 
ATOM      5  C   LIG A   1      -6.024   3.636 121.898  0.00  0.00    +0.057 A 
ATOM      6  C   LIG A   1      -6.487   4.133 120.667  0.00  0.00    +0.162 A 
ATOM      7  C   LIG A   1      -7.845   4.007 120.327  0.00  0.00    +0.162 A 
ATOM      8  C   LIG A   1      -8.725   3.435 121.250  0.00  0.00    +0.057 A 
ATOM      9  C   LIG A   1      -6.463   2.476 124.128  0.00  0.00    +0.265 C 
ATOM     10  O   LIG A   1      -7.287   1.405 124.628  0.00  0.00    -0.483 OA
ENDROOT
BRANCH   1  12
ATOM     11  O   LIG A   1     -10.783   0.703 125.064  0.00  0.00    -0.283 OA
ATOM     12  C   LIG A   1      -9.568   0.601 125.129  0.00  0.00    +0.231 C 
BRANCH  12  13
ATOM     13  C   LIG A   1      -8.922  -0.392 126.035  0.00  0.00    +0.067 A 
ATOM     14  C   LIG A   1      -8.291   0.067 127.207  0.00  0.00    +0.019 A 
ATOM     15  C   LIG A   1      -7.556  -0.813 128.001  0.00  0.00    +0.046 A 
ATOM     16  C   LIG A   1      -7.482  -2.161 127.658  0.00  0.00    +0.124 A 
ATOM     17  C   LIG A   1      -8.138  -2.621 126.514  0.00  0.00    +0.092 A 
ATOM     18  C   LIG A   1      -8.877  -1.750 125.704  0.00  0.00    +0.135 A 
BRANCH  16  19
ATOM     19  O   LIG A   1      -6.701  -2.943 128.466  0.00  0.00    -0.495 OA
ATOM     20  C   LIG A   1      -7.219  -3.161 129.775  0.00  0.00    +0.277 C 
ENDBRANCH  16  19
BRANCH  18  21
ATOM     21  O   LIG A   1      -9.460  -2.175 124.539  0.00  0.00    -0.494 OA
ATOM     22  C   LIG A   1      -8.536  -2.611 123.543  0.00  0.00    +0.277 C 
ENDBRANCH  18  21
ENDBRANCH  12  13
ENDBRANCH   1  12
BRANCH   6  23
ATOM     23  O   LIG A   1      -5.496   4.673 119.886  0.00  0.00    -0.491 OA
ATOM     24  C   LIG A   1      -4.560   5.519 120.548  0.00  0.00    +0.277 C 
ENDBRANCH   6  23
BRANCH   7  25
ATOM     25  O   LIG A   1      -8.242   4.363 119.065  0.00  0.00    -0.491 OA
ATOM     26  C   LIG A   1      -9.639   4.331 118.799  0.00  0.00    +0.277 C 
ENDBRANCH   7  25
TORSDOF 6
ENDMDL
MODEL 4
REMARK VINA RESULT:      -7.0      3.270      8.137
REMARK  Name = NuBBE_1817
REMARK  10 active torsions:
REMARK  status: ('A' for Active; 'I' for Inactive)
REMARK    1  A    between atoms: C_2  and  C_3
REMARK    2  A    between atoms: C_2  and  C_17
REMARK    3  A    between atoms: C_8  and  O_9
REMARK    4  A    between atoms: O_9  and  C_10
REMARK    5  A    between atoms: C_11  and  O_12
REMARK    6  A    between atoms: O_12  and  C_13
REMARK    7  A    between atoms: C_20  and  O_21
REMARK    8  A    between atoms: O_21  and  C_22
REMARK    9  A    between atoms: C_24  and  O_25
REMARK   10  A    between atoms: O_25  and  C_26
REMARK                            x       y       z     vdW  Elec       q    Type
REMARK                         _______ _______ _______ _____ _____    ______ ____
ROOT
ATOM      1  C   LIG A   1      -8.870   5.106 132.625  0.00  0.00    +0.169 C 
ATOM      2  C   LIG A   1     -10.080   5.685 132.538  0.00  0.00    +0.058 C 
ATOM      3  C   LIG A   1     -10.393   6.499 131.376  0.00  0.00    -0.011 A 
ATOM      4  C   LIG A   1      -9.340   6.943 130.580  0.00  0.00    +0.001 A 
ATOM      5  C   LIG A   1      -9.625   7.709 129.446  0.00  0.00    +0.057 A 
ATOM      6  C   LIG A   1     -10.954   7.992 129.086  0.00  0.00    +0.162 A 
ATOM      7  C   LIG A   1     -12.012   7.485 129.861  0.00  0.00    +0.162 A 
ATOM      8  C   LIG A   1     -11.718   6.750 131.013  0.00  0.00    +0.057 A 
ATOM      9  C   LIG A   1      -7.937   6.602 131.008  0.00  0.00    +0.265 C 
ATOM     10  O   LIG A   1      -7.825   5.379 131.761  0.00  0.00    -0.483 OA
ENDROOT
BRANCH   1  12
ATOM     11  O   LIG A   1      -8.633   4.248 134.847  0.00  0.00    -0.283 OA
ATOM     12  C   LIG A   1      -8.655   4.020 133.648  0.00  0.00    +0.231 C 
BRANCH  12  13
ATOM     13  C   LIG A   1      -8.386   2.652 133.115  0.00  0.00    +0.067 A 
ATOM     14  C   LIG A   1      -9.399   1.992 132.394  0.00  0.00    +0.019 A 
ATOM     15  C   LIG A   1      -9.234   0.663 132.006  0.00  0.00    +0.046 A 
ATOM     16  C   LIG A   1      -8.045  -0.003 132.296  0.00  0.00    +0.124 A 
ATOM     17  C   LIG A   1      -7.027   0.665 132.981  0.00  0.00    +0.092 A 
ATOM     18  C   LIG A   1      -7.178   1.999 133.381  0.00  0.00    +0.135 A 
BRANCH  16  19
ATOM     19  O   LIG A   1      -7.987  -1.318 131.921  0.00  0.00    -0.495 OA
ATOM     20  C   LIG A   1      -7.528  -2.212 132.931  0.00  0.00    +0.277 C 
ENDBRANCH  16  19
BRANCH  18  21
ATOM     21  O   LIG A   1      -6.219   2.639 134.120  0.00  0.00    -0.494 OA
ATOM     22  C   LIG A   1      -5.065   3.030 133.376  0.00  0.00    +0.277 C 
ENDBRANCH  18  21
ENDBRANCH  12  13
ENDBRANCH   1  12
BRANCH   6  23
ATOM     23  O   LIG A   1     -11.065   8.734 127.937  0.00  0.00    -0.491 OA
ATOM     24  C   LIG A   1     -10.869   8.034 126.712  0.00  0.00    +0.277 C 
ENDBRANCH   6  23
BRANCH   7  25
ATOM     25  O   LIG A   1     -13.294   7.649 129.407  0.00  0.00    -0.491 OA
ATOM     26  C   LIG A   1     -13.738   6.747 128.400  0.00  0.00    +0.277 C 
ENDBRANCH   7  25
TORSDOF 6
ENDMDL
MODEL 5
REMARK VINA RESULT:      -6.9      2.022      7.642
REMARK  Name = NuBBE_1817
REMARK  10 active torsions:
REMARK  status: ('A' for Active; 'I' for Inactive)
REMARK    1  A    between atoms: C_2  and  C_3
REMARK    2  A    between atoms: C_2  and  C_17
REMARK    3  A    between atoms: C_8  and  O_9
REMARK    4  A    between atoms: O_9  and  C_10
REMARK    5  A    between atoms: C_11  and  O_12
REMARK    6  A    between atoms: O_12  and  C_13
REMARK    7  A    between atoms: C_20  and  O_21
REMARK    8  A    between atoms: O_21  and  C_22
REMARK    9  A    between atoms: C_24  and  O_25
REMARK   10  A    between atoms: O_25  and  C_26
REMARK                            x       y       z     vdW  Elec       q    Type
REMARK                         _______ _______ _______ _____ _____    ______ ____
ROOT
ATOM      1  C   LIG A   1      -7.413   5.986 132.568  0.00  0.00    +0.169 C 
ATOM      2  C   LIG A   1      -7.643   6.341 131.293  0.00  0.00    +0.058 C 
ATOM      3  C   LIG A   1      -8.999   6.665 130.881  0.00  0.00    -0.011 A 
ATOM      4  C   LIG A   1     -10.050   6.262 131.701  0.00  0.00    +0.001 A 
ATOM      5  C   LIG A   1     -11.358   6.584 131.331  0.00  0.00    +0.057 A 
ATOM      6  C   LIG A   1     -11.612   7.340 130.175  0.00  0.00    +0.162 A 
ATOM      7  C   LIG A   1     -10.540   7.797 129.388  0.00  0.00    +0.162 A 
ATOM      8  C   LIG A   1      -9.236   7.441 129.745  0.00  0.00    +0.057 A 
ATOM      9  C   LIG A   1      -9.719   5.462 132.934  0.00  0.00    +0.265 C 
ATOM     10  O   LIG A   1      -8.416   5.732 133.487  0.00  0.00    -0.483 OA
ENDROOT
BRANCH   1  12
ATOM     11  O   LIG A   1      -5.719   6.079 134.257  0.00  0.00    -0.283 OA
ATOM     12  C   LIG A   1      -5.992   5.963 133.073  0.00  0.00    +0.231 C 
BRANCH  12  13
ATOM     13  C   LIG A   1      -4.922   5.873 132.037  0.00  0.00    +0.067 A 
ATOM     14  C   LIG A   1      -4.382   7.063 131.513  0.00  0.00    +0.019 A 
ATOM     15  C   LIG A   1      -3.486   7.018 130.446  0.00  0.00    +0.046 A 
ATOM     16  C   LIG A   1      -3.090   5.789 129.923  0.00  0.00    +0.124 A 
ATOM     17  C   LIG A   1      -3.601   4.609 130.467  0.00  0.00    +0.092 A 
ATOM     18  C   LIG A   1      -4.504   4.636 131.537  0.00  0.00    +0.135 A 
BRANCH  16  19
ATOM     19  O   LIG A   1      -2.246   5.840 128.846  0.00  0.00    -0.495 OA
ATOM     20  C   LIG A   1      -2.569   4.944 127.786  0.00  0.00    +0.277 C 
ENDBRANCH  16  19
BRANCH  18  21
ATOM     21  O   LIG A   1      -5.070   3.489 132.028  0.00  0.00    -0.494 OA
ATOM     22  C   LIG A   1      -5.879   2.783 131.087  0.00  0.00    +0.277 C 
ENDBRANCH  18  21
ENDBRANCH  12  13
ENDBRANCH   1  12
BRANCH   6  23
ATOM     23  O   LIG A   1     -12.945   7.590 129.964  0.00  0.00    -0.491 OA
ATOM     24  C   LIG A   1     -13.561   6.874 128.899  0.00  0.00    +0.277 C 
ENDBRANCH   6  23
BRANCH   7  25
ATOM     25  O   LIG A   1     -10.804   8.655 128.353  0.00  0.00    -0.491 OA
ATOM     26  C   LIG A   1     -10.813   8.096 127.044  0.00  0.00    +0.277 C 
ENDBRANCH   7  25
TORSDOF 6
ENDMDL
MODEL 6
REMARK VINA RESULT:      -6.9      8.612     10.003
REMARK  Name = NuBBE_1817
REMARK  10 active torsions:
REMARK  status: ('A' for Active; 'I' for Inactive)
REMARK    1  A    between atoms: C_2  and  C_3
REMARK    2  A    between atoms: C_2  and  C_17
REMARK    3  A    between atoms: C_8  and  O_9
REMARK    4  A    between atoms: O_9  and  C_10
REMARK    5  A    between atoms: C_11  and  O_12
REMARK    6  A    between atoms: O_12  and  C_13
REMARK    7  A    between atoms: C_20  and  O_21
REMARK    8  A    between atoms: O_21  and  C_22
REMARK    9  A    between atoms: C_24  and  O_25
REMARK   10  A    between atoms: O_25  and  C_26
REMARK                            x       y       z     vdW  Elec       q    Type
REMARK                         _______ _______ _______ _____ _____    ______ ____
ROOT
ATOM      1  C   LIG A   1      -7.853  -2.241 126.824  0.00  0.00    +0.169 C 
ATOM      2  C   LIG A   1      -8.172  -2.902 127.950  0.00  0.00    +0.058 C 
ATOM      3  C   LIG A   1      -7.202  -2.972 129.029  0.00  0.00    -0.011 A 
ATOM      4  C   LIG A   1      -5.873  -2.672 128.740  0.00  0.00    +0.001 A 
ATOM      5  C   LIG A   1      -4.930  -2.714 129.770  0.00  0.00    +0.057 A 
ATOM      6  C   LIG A   1      -5.320  -3.009 131.088  0.00  0.00    +0.162 A 
ATOM      7  C   LIG A   1      -6.674  -3.248 131.381  0.00  0.00    +0.162 A 
ATOM      8  C   LIG A   1      -7.605  -3.240 130.339  0.00  0.00    +0.057 A 
ATOM      9  C   LIG A   1      -5.514  -2.353 127.312  0.00  0.00    +0.265 C 
ATOM     10  O   LIG A   1      -6.584  -1.767 126.546  0.00  0.00    -0.483 OA
ENDROOT
BRANCH   1  12
ATOM     11  O   LIG A   1      -9.856  -2.668 125.584  0.00  0.00    -0.283 OA
ATOM     12  C   LIG A   1      -8.950  -1.894 125.849  0.00  0.00    +0.231 C 
BRANCH  12  13
ATOM     13  C   LIG A   1      -8.826  -0.579 125.153  0.00  0.00    +0.067 A 
ATOM     14  C   LIG A   1      -9.300   0.578 125.799  0.00  0.00    +0.019 A 
ATOM     15  C   LIG A   1      -9.332   1.798 125.124  0.00  0.00    +0.046 A 
ATOM     16  C   LIG A   1      -8.851   1.881 123.819  0.00  0.00    +0.124 A 
ATOM     17  C   LIG A   1      -8.349   0.738 123.192  0.00  0.00    +0.092 A 
ATOM     18  C   LIG A   1      -8.314  -0.495 123.855  0.00  0.00    +0.135 A 
BRANCH  16  19
ATOM     19  O   LIG A   1      -8.964   3.104 123.215  0.00  0.00    -0.495 OA
ATOM     20  C   LIG A   1      -8.568   3.139 121.846  0.00  0.00    +0.277 C 
ENDBRANCH  16  19
BRANCH  18  21
ATOM     21  O   LIG A   1      -7.894  -1.636 123.225  0.00  0.00    -0.494 OA
ATOM     22  C   LIG A   1      -6.498  -1.668 122.932  0.00  0.00    +0.277 C 
ENDBRANCH  18  21
ENDBRANCH  12  13
ENDBRANCH   1  12
BRANCH   6  23
ATOM     23  O   LIG A   1      -4.281  -2.987 131.985  0.00  0.00    -0.491 OA
ATOM     24  C   LIG A   1      -3.558  -1.764 132.085  0.00  0.00    +0.277 C 
ENDBRANCH   6  23
BRANCH   7  25
ATOM     25  O   LIG A   1      -7.047  -3.386 132.692  0.00  0.00    -0.491 OA
ATOM     26  C   LIG A   1      -7.771  -2.305 133.269  0.00  0.00    +0.277 C 
ENDBRANCH   7  25
TORSDOF 6
ENDMDL
MODEL 7
REMARK VINA RESULT:      -6.8      1.803      2.818
REMARK  Name = NuBBE_1817
REMARK  10 active torsions:
REMARK  status: ('A' for Active; 'I' for Inactive)
REMARK    1  A    between atoms: C_2  and  C_3
REMARK    2  A    between atoms: C_2  and  C_17
REMARK    3  A    between atoms: C_8  and  O_9
REMARK    4  A    between atoms: O_9  and  C_10
REMARK    5  A    between atoms: C_11  and  O_12
REMARK    6  A    between atoms: O_12  and  C_13
REMARK    7  A    between atoms: C_20  and  O_21
REMARK    8  A    between atoms: O_21  and  C_22
REMARK    9  A    between atoms: C_24  and  O_25
REMARK   10  A    between atoms: O_25  and  C_26
REMARK                            x       y       z     vdW  Elec       q    Type
REMARK                         _______ _______ _______ _____ _____    ______ ____
ROOT
ATOM      1  C   LIG A   1      -7.840   5.203 132.675  0.00  0.00    +0.169 C 
ATOM      2  C   LIG A   1      -7.460   6.177 131.831  0.00  0.00    +0.058 C 
ATOM      3  C   LIG A   1      -6.065   6.584 131.802  0.00  0.00    -0.011 A 
ATOM      4  C   LIG A   1      -5.250   6.218 132.870  0.00  0.00    +0.001 A 
ATOM      5  C   LIG A   1      -3.901   6.582 132.848  0.00  0.00    +0.057 A 
ATOM      6  C   LIG A   1      -3.361   7.268 131.746  0.00  0.00    +0.162 A 
ATOM      7  C   LIG A   1      -4.177   7.576 130.644  0.00  0.00    +0.162 A 
ATOM      8  C   LIG A   1      -5.533   7.240 130.689  0.00  0.00    +0.057 A 
ATOM      9  C   LIG A   1      -5.881   5.477 134.019  0.00  0.00    +0.265 C 
ATOM     10  O   LIG A   1      -7.021   4.675 133.656  0.00  0.00    -0.483 OA
ENDROOT
BRANCH   1  12
ATOM     11  O   LIG A   1      -9.459   3.458 132.929  0.00  0.00    -0.283 OA
ATOM     12  C   LIG A   1      -9.193   4.564 132.486  0.00  0.00    +0.231 C 
BRANCH  12  13
ATOM     13  C   LIG A   1     -10.174   5.322 131.655  0.00  0.00    +0.067 A 
ATOM     14  C   LIG A   1     -10.983   6.293 132.275  0.00  0.00    +0.019 A 
ATOM     15  C   LIG A   1     -12.005   6.916 131.560  0.00  0.00    +0.046 A 
ATOM     16  C   LIG A   1     -12.200   6.609 130.215  0.00  0.00    +0.124 A 
ATOM     17  C   LIG A   1     -11.373   5.671 129.593  0.00  0.00    +0.092 A 
ATOM     18  C   LIG A   1     -10.344   5.033 130.298  0.00  0.00    +0.135 A 
BRANCH  16  19
ATOM     19  O   LIG A   1     -13.255   7.232 129.604  0.00  0.00    -0.495 OA
ATOM     20  C   LIG A   1     -12.940   8.470 128.973  0.00  0.00    +0.277 C 
ENDBRANCH  16  19
BRANCH  18  21
ATOM     21  O   LIG A   1      -9.577   4.056 129.719  0.00  0.00    -0.494 OA
ATOM     22  C   LIG A   1      -8.540   4.547 128.870  0.00  0.00    +0.277 C 
ENDBRANCH  18  21
ENDBRANCH  12  13
ENDBRANCH   1  12
BRANCH   6  23
ATOM     23  O   LIG A   1      -2.019   7.531 131.868  0.00  0.00    -0.491 OA
ATOM     24  C   LIG A   1      -1.138   6.428 131.674  0.00  0.00    +0.277 C 
ENDBRANCH   6  23
BRANCH   7  25
ATOM     25  O   LIG A   1      -3.595   8.109 129.524  0.00  0.00    -0.491 OA
ATOM     26  C   LIG A   1      -3.256   7.200 128.483  0.00  0.00    +0.277 C 
ENDBRANCH   7  25
TORSDOF 6
ENDMDL
MODEL 8
REMARK VINA RESULT:      -6.6      8.703     10.012
REMARK  Name = NuBBE_1817
REMARK  10 active torsions:
REMARK  status: ('A' for Active; 'I' for Inactive)
REMARK    1  A    between atoms: C_2  and  C_3
REMARK    2  A    between atoms: C_2  and  C_17
REMARK    3  A    between atoms: C_8  and  O_9
REMARK    4  A    between atoms: O_9  and  C_10
REMARK    5  A    between atoms: C_11  and  O_12
REMARK    6  A    between atoms: O_12  and  C_13
REMARK    7  A    between atoms: C_20  and  O_21
REMARK    8  A    between atoms: O_21  and  C_22
REMARK    9  A    between atoms: C_24  and  O_25
REMARK   10  A    between atoms: O_25  and  C_26
REMARK                            x       y       z     vdW  Elec       q    Type
REMARK                         _______ _______ _______ _____ _____    ______ ____
ROOT
ATOM      1  C   LIG A   1      -8.702  -2.302 126.344  0.00  0.00    +0.169 C 
ATOM      2  C   LIG A   1      -8.013  -1.444 127.114  0.00  0.00    +0.058 C 
ATOM      3  C   LIG A   1      -7.369  -1.936 128.321  0.00  0.00    -0.011 A 
ATOM      4  C   LIG A   1      -7.771  -3.169 128.826  0.00  0.00    +0.001 A 
ATOM      5  C   LIG A   1      -7.148  -3.667 129.973  0.00  0.00    +0.057 A 
ATOM      6  C   LIG A   1      -6.100  -2.959 130.585  0.00  0.00    +0.162 A 
ATOM      7  C   LIG A   1      -5.658  -1.744 130.031  0.00  0.00    +0.162 A 
ATOM      8  C   LIG A   1      -6.310  -1.236 128.904  0.00  0.00    +0.057 A 
ATOM      9  C   LIG A   1      -8.892  -3.890 128.123  0.00  0.00    +0.265 C 
ATOM     10  O   LIG A   1      -8.995  -3.602 126.715  0.00  0.00    -0.483 OA
ENDROOT
BRANCH   1  12
ATOM     11  O   LIG A   1      -9.693  -2.618 124.187  0.00  0.00    -0.283 OA
ATOM     12  C   LIG A   1      -9.093  -1.877 124.951  0.00  0.00    +0.231 C 
BRANCH  12  13
ATOM     13  C   LIG A   1      -8.635  -0.525 124.517  0.00  0.00    +0.067 A 
ATOM     14  C   LIG A   1      -9.469   0.584 124.755  0.00  0.00    +0.019 A 
ATOM     15  C   LIG A   1      -9.139   1.836 124.237  0.00  0.00    +0.046 A 
ATOM     16  C   LIG A   1      -7.956   2.001 123.520  0.00  0.00    +0.124 A 
ATOM     17  C   LIG A   1      -7.112   0.907 123.316  0.00  0.00    +0.092 A 
ATOM     18  C   LIG A   1      -7.431  -0.358 123.825  0.00  0.00    +0.135 A 
BRANCH  16  19
ATOM     19  O   LIG A   1      -7.734   3.251 123.009  0.00  0.00    -0.495 OA
ATOM     20  C   LIG A   1      -6.362   3.601 122.847  0.00  0.00    +0.277 C 
ENDBRANCH  16  19
BRANCH  18  21
ATOM     21  O   LIG A   1      -6.650  -1.453 123.566  0.00  0.00    -0.494 OA
ATOM     22  C   LIG A   1      -5.551  -1.618 124.462  0.00  0.00    +0.277 C 
ENDBRANCH  18  21
ENDBRANCH  12  13
ENDBRANCH   1  12
BRANCH   6  23
ATOM     23  O   LIG A   1      -5.579  -3.592 131.686  0.00  0.00    -0.491 OA
ATOM     24  C   LIG A   1      -5.325  -4.987 131.551  0.00  0.00    +0.277 C 
ENDBRANCH   6  23
BRANCH   7  25
ATOM     25  O   LIG A   1      -4.542  -1.150 130.558  0.00  0.00    -0.491 OA
ATOM     26  C   LIG A   1      -4.344   0.226 130.254  0.00  0.00    +0.277 C 
ENDBRANCH   7  25
TORSDOF 6
ENDMDL
MODEL 9
REMARK VINA RESULT:      -6.5      9.008     12.472
REMARK  Name = NuBBE_1817
REMARK  10 active torsions:
REMARK  status: ('A' for Active; 'I' for Inactive)
REMARK    1  A    between atoms: C_2  and  C_3
REMARK    2  A    between atoms: C_2  and  C_17
REMARK    3  A    between atoms: C_8  and  O_9
REMARK    4  A    between atoms: O_9  and  C_10
REMARK    5  A    between atoms: C_11  and  O_12
REMARK    6  A    between atoms: O_12  and  C_13
REMARK    7  A    between atoms: C_20  and  O_21
REMARK    8  A    between atoms: O_21  and  C_22
REMARK    9  A    between atoms: C_24  and  O_25
REMARK   10  A    between atoms: O_25  and  C_26
REMARK                            x       y       z     vdW  Elec       q    Type
REMARK                         _______ _______ _______ _____ _____    ______ ____
ROOT
ATOM      1  C   LIG A   1      -7.630  -2.476 129.658  0.00  0.00    +0.169 C 
ATOM      2  C   LIG A   1      -7.162  -1.639 128.718  0.00  0.00    +0.058 C 
ATOM      3  C   LIG A   1      -7.756  -1.659 127.392  0.00  0.00    -0.011 A 
ATOM      4  C   LIG A   1      -8.527  -2.761 127.032  0.00  0.00    +0.001 A 
ATOM      5  C   LIG A   1      -9.123  -2.787 125.769  0.00  0.00    +0.057 A 
ATOM      6  C   LIG A   1      -8.986  -1.700 124.888  0.00  0.00    +0.162 A 
ATOM      7  C   LIG A   1      -8.259  -0.564 125.285  0.00  0.00    +0.162 A 
ATOM      8  C   LIG A   1      -7.635  -0.561 126.536  0.00  0.00    +0.057 A 
ATOM      9  C   LIG A   1      -8.647  -3.892 128.019  0.00  0.00    +0.265 C 
ATOM     10  O   LIG A   1      -8.531  -3.494 129.399  0.00  0.00    -0.483 OA
ENDROOT
BRANCH   1  12
ATOM     11  O   LIG A   1      -7.919  -1.550 131.847  0.00  0.00    -0.283 OA
ATOM     12  C   LIG A   1      -7.248  -2.242 131.098  0.00  0.00    +0.231 C 
BRANCH  12  13
ATOM     13  C   LIG A   1      -5.953  -2.836 131.544  0.00  0.00    +0.067 A 
ATOM     14  C   LIG A   1      -5.899  -4.215 131.824  0.00  0.00    +0.019 A 
ATOM     15  C   LIG A   1      -4.748  -4.775 132.378  0.00  0.00    +0.046 A 
ATOM     16  C   LIG A   1      -3.632  -3.976 132.616  0.00  0.00    +0.124 A 
ATOM     17  C   LIG A   1      -3.677  -2.615 132.305  0.00  0.00    +0.092 A 
ATOM     18  C   LIG A   1      -4.826  -2.036 131.751  0.00  0.00    +0.135 A 
BRANCH  16  19
ATOM     19  O   LIG A   1      -2.565  -4.597 133.205  0.00  0.00    -0.495 OA
ATOM     20  C   LIG A   1      -2.885  -5.770 133.948  0.00  0.00    +0.277 C 
ENDBRANCH  16  19
BRANCH  18  21
ATOM     21  O   LIG A   1      -4.907  -0.689 131.514  0.00  0.00    -0.494 OA
ATOM     22  C   LIG A   1      -4.132  -0.239 130.404  0.00  0.00    +0.277 C 
ENDBRANCH  18  21
ENDBRANCH  12  13
ENDBRANCH   1  12
BRANCH   6  23
ATOM     23  O   LIG A   1      -9.650  -1.871 123.699  0.00  0.00    -0.491 OA
ATOM     24  C   LIG A   1      -9.665  -3.192 123.168  0.00  0.00    +0.277 C 
ENDBRANCH   6  23
BRANCH   7  25
ATOM     25  O   LIG A   1      -8.265   0.537 124.471  0.00  0.00    -0.491 OA
ATOM     26  C   LIG A   1      -9.261   1.520 124.729  0.00  0.00    +0.277 C 
ENDBRANCH   7  25
TORSDOF 6
ENDMDL
