MODEL 1
REMARK VINA RESULT:      -7.0      0.000      0.000
REMARK  Name = NuBBE_2456
REMARK  13 active torsions:
REMARK  status: ('A' for Active; 'I' for Inactive)
REMARK    1  A    between atoms: C_1  and  O_2
REMARK    2  A    between atoms: O_2  and  C_3
REMARK    3  A    between atoms: C_5  and  C_6
REMARK    4  A    between atoms: C_6  and  C_7
REMARK    5  A    between atoms: C_9  and  C_11
REMARK    6  A    between atoms: C_11  and  O_12
REMARK    7  A    between atoms: C_13  and  C_15
REMARK    8  A    between atoms: C_18  and  O_19
REMARK    9  A    between atoms: O_19  and  C_20
REMARK   10  A    between atoms: C_21  and  O_22
REMARK   11  A    between atoms: O_22  and  C_23
REMARK   12  A    between atoms: C_29  and  O_30
REMARK   13  A    between atoms: O_30  and  C_31
REMARK                            x       y       z     vdW  Elec       q    Type
REMARK                         _______ _______ _______ _____ _____    ______ ____
ROOT
ATOM      1  C   LIG A   1      -9.961   4.082 131.694  0.00  0.00    +0.027 C 
ATOM      2  C   LIG A   1      -8.881   3.017 131.856  0.00  0.00    +0.053 C 
ATOM      3  C   LIG A   1      -8.456   2.706 130.420  0.00  0.00    +0.154 C 
ATOM      4  O   LIG A   1      -9.543   3.139 129.568  0.00  0.00    -0.371 OA
ATOM      5  C   LIG A   1     -10.612   3.590 130.406  0.00  0.00    +0.165 C 
ENDROOT
BRANCH   3   6
ATOM      6  C   LIG A   1      -8.139   1.267 130.088  0.00  0.00    -0.015 A 
ATOM      7  C   LIG A   1      -8.346   0.212 130.970  0.00  0.00    +0.010 A 
ATOM      8  C   LIG A   1      -8.103  -1.109 130.600  0.00  0.00    +0.050 A 
ATOM      9  C   LIG A   1      -7.597  -1.409 129.336  0.00  0.00    +0.162 A 
ATOM     10  C   LIG A   1      -7.340  -0.366 128.439  0.00  0.00    +0.162 A 
ATOM     11  C   LIG A   1      -7.626   0.962 128.817  0.00  0.00    +0.055 A 
BRANCH   9  12
ATOM     12  O   LIG A   1      -7.462  -2.752 129.120  0.00  0.00    -0.491 OA
ATOM     13  C   LIG A   1      -8.597  -3.445 128.623  0.00  0.00    +0.277 C 
ENDBRANCH   9  12
BRANCH  10  14
ATOM     14  O   LIG A   1      -6.909  -0.659 127.170  0.00  0.00    -0.491 OA
ATOM     15  C   LIG A   1      -7.913  -0.691 126.159  0.00  0.00    +0.277 C 
ENDBRANCH  10  14
ENDBRANCH   3   6
BRANCH   1  16
ATOM     16  C   LIG A   1      -9.392   5.504 131.595  0.00  0.00    +0.041 C 
BRANCH  16  19
ATOM     17  C   LIG A   1     -10.999   7.962 129.179  0.00  0.00    +0.162 A 
ATOM     18  C   LIG A   1     -10.083   7.107 129.792  0.00  0.00    +0.053 A 
ATOM     19  C   LIG A   1     -10.385   6.463 130.997  0.00  0.00    -0.043 A 
ATOM     20  C   LIG A   1     -11.625   6.672 131.598  0.00  0.00    +0.007 A 
ATOM     21  C   LIG A   1     -12.552   7.522 130.999  0.00  0.00    +0.050 A 
ATOM     22  C   LIG A   1     -12.246   8.177 129.798  0.00  0.00    +0.162 A 
BRANCH  17  24
ATOM     23  C   LIG A   1     -10.872   7.900 126.791  0.00  0.00    +0.277 C 
ATOM     24  O   LIG A   1     -10.752   8.632 128.007  0.00  0.00    -0.491 OA
ENDBRANCH  17  24
BRANCH  22  25
ATOM     25  O   LIG A   1     -13.142   8.986 129.142  0.00  0.00    -0.491 OA
ATOM     26  C   LIG A   1     -13.311  10.286 129.693  0.00  0.00    +0.277 C 
ENDBRANCH  22  25
ENDBRANCH  16  19
ENDBRANCH   1  16
BRANCH   2  27
ATOM     27  C   LIG A   1      -7.695   3.339 132.756  0.00  0.00    +0.162 C 
BRANCH  27  28
ATOM     28  O   LIG A   1      -7.625   2.366 133.788  0.00  0.00    -0.395 OA
ATOM     29  H   LIG A   1      -7.911   1.517 133.406  0.00  0.00    +0.209 HD
ENDBRANCH  27  28
ENDBRANCH   2  27
TORSDOF 9
ENDMDL
MODEL 2
REMARK VINA RESULT:      -7.0      2.308      8.878
REMARK  Name = NuBBE_2456
REMARK  13 active torsions:
REMARK  status: ('A' for Active; 'I' for Inactive)
REMARK    1  A    between atoms: C_1  and  O_2
REMARK    2  A    between atoms: O_2  and  C_3
REMARK    3  A    between atoms: C_5  and  C_6
REMARK    4  A    between atoms: C_6  and  C_7
REMARK    5  A    between atoms: C_9  and  C_11
REMARK    6  A    between atoms: C_11  and  O_12
REMARK    7  A    between atoms: C_13  and  C_15
REMARK    8  A    between atoms: C_18  and  O_19
REMARK    9  A    between atoms: O_19  and  C_20
REMARK   10  A    between atoms: C_21  and  O_22
REMARK   11  A    between atoms: O_22  and  C_23
REMARK   12  A    between atoms: C_29  and  O_30
REMARK   13  A    between atoms: O_30  and  C_31
REMARK                            x       y       z     vdW  Elec       q    Type
REMARK                         _______ _______ _______ _____ _____    ______ ____
ROOT
ATOM      1  C   LIG A   1      -8.962   3.882 131.129  0.00  0.00    +0.027 C 
ATOM      2  C   LIG A   1      -9.289   5.354 131.360  0.00  0.00    +0.053 C 
ATOM      3  C   LIG A   1     -10.817   5.400 131.314  0.00  0.00    +0.154 C 
ATOM      4  O   LIG A   1     -11.243   4.213 130.605  0.00  0.00    -0.371 OA
ATOM      5  C   LIG A   1     -10.073   3.525 130.147  0.00  0.00    +0.165 C 
ENDROOT
BRANCH   3   6
ATOM      6  C   LIG A   1     -11.454   6.599 130.653  0.00  0.00    -0.015 A 
ATOM      7  C   LIG A   1     -12.510   7.313 131.212  0.00  0.00    +0.010 A 
ATOM      8  C   LIG A   1     -13.025   8.454 130.600  0.00  0.00    +0.050 A 
ATOM      9  C   LIG A   1     -12.522   8.890 129.376  0.00  0.00    +0.162 A 
ATOM     10  C   LIG A   1     -11.488   8.171 128.768  0.00  0.00    +0.162 A 
ATOM     11  C   LIG A   1     -10.952   7.040 129.418  0.00  0.00    +0.055 A 
BRANCH   9  12
ATOM     12  O   LIG A   1     -13.106  10.048 128.941  0.00  0.00    -0.491 OA
ATOM     13  C   LIG A   1     -13.498  10.986 129.932  0.00  0.00    +0.277 C 
ENDBRANCH   9  12
BRANCH  10  14
ATOM     14  O   LIG A   1     -10.940   8.635 127.599  0.00  0.00    -0.491 OA
ATOM     15  C   LIG A   1     -10.908   7.714 126.512  0.00  0.00    +0.277 C 
ENDBRANCH  10  14
ENDBRANCH   3   6
BRANCH   1  16
ATOM     16  C   LIG A   1      -8.986   3.052 132.418  0.00  0.00    +0.041 C 
BRANCH  16  19
ATOM     17  C   LIG A   1      -6.267   0.395 132.326  0.00  0.00    +0.162 A 
ATOM     18  C   LIG A   1      -6.924   1.621 132.429  0.00  0.00    +0.053 A 
ATOM     19  C   LIG A   1      -8.307   1.722 132.240  0.00  0.00    -0.043 A 
ATOM     20  C   LIG A   1      -9.047   0.577 131.948  0.00  0.00    +0.007 A 
ATOM     21  C   LIG A   1      -8.406  -0.655 131.842  0.00  0.00    +0.050 A 
ATOM     22  C   LIG A   1      -7.019  -0.755 132.019  0.00  0.00    +0.162 A 
BRANCH  17  24
ATOM     23  C   LIG A   1      -4.064   1.253 131.952  0.00  0.00    +0.277 C 
ATOM     24  O   LIG A   1      -4.912   0.240 132.485  0.00  0.00    -0.491 OA
ENDBRANCH  17  24
BRANCH  22  25
ATOM     25  O   LIG A   1      -6.347  -1.952 131.973  0.00  0.00    -0.491 OA
ATOM     26  C   LIG A   1      -7.061  -3.033 131.384  0.00  0.00    +0.277 C 
ENDBRANCH  22  25
ENDBRANCH  16  19
ENDBRANCH   1  16
BRANCH   2  27
ATOM     27  C   LIG A   1      -8.724   6.020 132.607  0.00  0.00    +0.162 C 
BRANCH  27  28
ATOM     28  O   LIG A   1      -9.798   6.353 133.475  0.00  0.00    -0.395 OA
ATOM     29  H   LIG A   1      -9.884   5.630 134.121  0.00  0.00    +0.209 HD
ENDBRANCH  27  28
ENDBRANCH   2  27
TORSDOF 9
ENDMDL
MODEL 3
REMARK VINA RESULT:      -6.9      1.835      8.916
REMARK  Name = NuBBE_2456
REMARK  13 active torsions:
REMARK  status: ('A' for Active; 'I' for Inactive)
REMARK    1  A    between atoms: C_1  and  O_2
REMARK    2  A    between atoms: O_2  and  C_3
REMARK    3  A    between atoms: C_5  and  C_6
REMARK    4  A    between atoms: C_6  and  C_7
REMARK    5  A    between atoms: C_9  and  C_11
REMARK    6  A    between atoms: C_11  and  O_12
REMARK    7  A    between atoms: C_13  and  C_15
REMARK    8  A    between atoms: C_18  and  O_19
REMARK    9  A    between atoms: O_19  and  C_20
REMARK   10  A    between atoms: C_21  and  O_22
REMARK   11  A    between atoms: O_22  and  C_23
REMARK   12  A    between atoms: C_29  and  O_30
REMARK   13  A    between atoms: O_30  and  C_31
REMARK                            x       y       z     vdW  Elec       q    Type
REMARK                         _______ _______ _______ _____ _____    ______ ____
ROOT
ATOM      1  C   LIG A   1      -8.946   3.373 131.256  0.00  0.00    +0.027 C 
ATOM      2  C   LIG A   1      -9.527   4.715 131.691  0.00  0.00    +0.053 C 
ATOM      3  C   LIG A   1     -10.921   4.730 131.062  0.00  0.00    +0.154 C 
ATOM      4  O   LIG A   1     -10.893   3.773 129.977  0.00  0.00    -0.371 OA
ATOM      5  C   LIG A   1      -9.557   3.271 129.862  0.00  0.00    +0.165 C 
ENDROOT
BRANCH   3   6
ATOM      6  C   LIG A   1     -11.420   6.048 130.518  0.00  0.00    -0.015 A 
ATOM      7  C   LIG A   1     -12.407   6.810 131.136  0.00  0.00    +0.010 A 
ATOM      8  C   LIG A   1     -12.791   8.052 130.636  0.00  0.00    +0.050 A 
ATOM      9  C   LIG A   1     -12.225   8.550 129.464  0.00  0.00    +0.162 A 
ATOM     10  C   LIG A   1     -11.258   7.790 128.796  0.00  0.00    +0.162 A 
ATOM     11  C   LIG A   1     -10.854   6.551 129.335  0.00  0.00    +0.055 A 
BRANCH   9  12
ATOM     12  O   LIG A   1     -12.679   9.799 129.141  0.00  0.00    -0.491 OA
ATOM     13  C   LIG A   1     -13.332  10.535 130.165  0.00  0.00    +0.277 C 
ENDBRANCH   9  12
BRANCH  10  14
ATOM     14  O   LIG A   1     -10.645   8.306 127.682  0.00  0.00    -0.491 OA
ATOM     15  C   LIG A   1     -10.895   7.623 126.456  0.00  0.00    +0.277 C 
ENDBRANCH  10  14
ENDBRANCH   3   6
BRANCH   1  16
ATOM     16  C   LIG A   1      -9.337   2.219 132.188  0.00  0.00    +0.041 C 
BRANCH  16  19
ATOM     17  C   LIG A   1      -7.611  -1.090 131.459  0.00  0.00    +0.162 A 
ATOM     18  C   LIG A   1      -8.566  -0.075 131.525  0.00  0.00    +0.053 A 
ATOM     19  C   LIG A   1      -8.303   1.126 132.191  0.00  0.00    -0.043 A 
ATOM     20  C   LIG A   1      -7.063   1.321 132.797  0.00  0.00    +0.007 A 
ATOM     21  C   LIG A   1      -6.098   0.318 132.741  0.00  0.00    +0.050 A 
ATOM     22  C   LIG A   1      -6.365  -0.892 132.084  0.00  0.00    +0.162 A 
BRANCH  17  24
ATOM     23  C   LIG A   1      -7.743  -2.322 129.412  0.00  0.00    +0.277 C 
ATOM     24  O   LIG A   1      -7.819  -2.295 130.834  0.00  0.00    -0.491 OA
ENDBRANCH  17  24
BRANCH  22  25
ATOM     25  O   LIG A   1      -5.431  -1.892 131.958  0.00  0.00    -0.491 OA
ATOM     26  C   LIG A   1      -4.947  -2.435 133.180  0.00  0.00    +0.277 C 
ENDBRANCH  22  25
ENDBRANCH  16  19
ENDBRANCH   1  16
BRANCH   2  27
ATOM     27  C   LIG A   1      -9.558   5.025 133.181  0.00  0.00    +0.162 C 
BRANCH  27  28
ATOM     28  O   LIG A   1      -9.656   6.431 133.355  0.00  0.00    -0.395 OA
ATOM     29  H   LIG A   1      -8.804   6.740 133.710  0.00  0.00    +0.209 HD
ENDBRANCH  27  28
ENDBRANCH   2  27
TORSDOF 9
ENDMDL
MODEL 4
REMARK VINA RESULT:      -6.8      0.956      1.954
REMARK  Name = NuBBE_2456
REMARK  13 active torsions:
REMARK  status: ('A' for Active; 'I' for Inactive)
REMARK    1  A    between atoms: C_1  and  O_2
REMARK    2  A    between atoms: O_2  and  C_3
REMARK    3  A    between atoms: C_5  and  C_6
REMARK    4  A    between atoms: C_6  and  C_7
REMARK    5  A    between atoms: C_9  and  C_11
REMARK    6  A    between atoms: C_11  and  O_12
REMARK    7  A    between atoms: C_13  and  C_15
REMARK    8  A    between atoms: C_18  and  O_19
REMARK    9  A    between atoms: O_19  and  C_20
REMARK   10  A    between atoms: C_21  and  O_22
REMARK   11  A    between atoms: O_22  and  C_23
REMARK   12  A    between atoms: C_29  and  O_30
REMARK   13  A    between atoms: O_30  and  C_31
REMARK                            x       y       z     vdW  Elec       q    Type
REMARK                         _______ _______ _______ _____ _____    ______ ____
ROOT
ATOM      1  C   LIG A   1     -10.178   4.298 131.720  0.00  0.00    +0.027 C 
ATOM      2  C   LIG A   1      -9.112   3.235 131.971  0.00  0.00    +0.053 C 
ATOM      3  C   LIG A   1      -8.631   2.861 130.569  0.00  0.00    +0.154 C 
ATOM      4  O   LIG A   1      -9.679   3.263 129.654  0.00  0.00    -0.371 OA
ATOM      5  C   LIG A   1     -10.779   3.755 130.428  0.00  0.00    +0.165 C 
ENDROOT
BRANCH   3   6
ATOM      6  C   LIG A   1      -8.311   1.408 130.310  0.00  0.00    -0.015 A 
ATOM      7  C   LIG A   1      -7.966   0.909 129.058  0.00  0.00    +0.010 A 
ATOM      8  C   LIG A   1      -7.612  -0.427 128.877  0.00  0.00    +0.050 A 
ATOM      9  C   LIG A   1      -7.640  -1.319 129.947  0.00  0.00    +0.162 A 
ATOM     10  C   LIG A   1      -8.022  -0.857 131.211  0.00  0.00    +0.162 A 
ATOM     11  C   LIG A   1      -8.341   0.505 131.386  0.00  0.00    +0.055 A 
BRANCH   9  12
ATOM     12  O   LIG A   1      -7.220  -2.575 129.605  0.00  0.00    -0.491 OA
ATOM     13  C   LIG A   1      -8.172  -3.429 128.987  0.00  0.00    +0.277 C 
ENDBRANCH   9  12
BRANCH  10  14
ATOM     14  O   LIG A   1      -7.982  -1.713 132.282  0.00  0.00    -0.491 OA
ATOM     15  C   LIG A   1      -6.786  -1.694 133.057  0.00  0.00    +0.277 C 
ENDBRANCH  10  14
ENDBRANCH   3   6
BRANCH   1  16
ATOM     16  C   LIG A   1      -9.596   5.711 131.585  0.00  0.00    +0.041 C 
BRANCH  16  19
ATOM     17  C   LIG A   1     -11.145   8.058 129.025  0.00  0.00    +0.162 A 
ATOM     18  C   LIG A   1     -10.248   7.220 129.690  0.00  0.00    +0.053 A 
ATOM     19  C   LIG A   1     -10.566   6.655 130.929  0.00  0.00    -0.043 A 
ATOM     20  C   LIG A   1     -11.801   6.927 131.514  0.00  0.00    +0.007 A 
ATOM     21  C   LIG A   1     -12.708   7.760 130.863  0.00  0.00    +0.050 A 
ATOM     22  C   LIG A   1     -12.387   8.337 129.627  0.00  0.00    +0.162 A 
BRANCH  17  24
ATOM     23  C   LIG A   1     -10.879   7.820 126.659  0.00  0.00    +0.277 C 
ATOM     24  O   LIG A   1     -10.881   8.651 127.816  0.00  0.00    -0.491 OA
ENDBRANCH  17  24
BRANCH  22  25
ATOM     25  O   LIG A   1     -13.264   9.125 128.922  0.00  0.00    -0.491 OA
ATOM     26  C   LIG A   1     -13.452  10.439 129.434  0.00  0.00    +0.277 C 
ENDBRANCH  22  25
ENDBRANCH  16  19
ENDBRANCH   1  16
BRANCH   2  27
ATOM     27  C   LIG A   1      -7.963   3.589 132.905  0.00  0.00    +0.162 C 
BRANCH  27  28
ATOM     28  O   LIG A   1      -8.453   3.639 134.237  0.00  0.00    -0.395 OA
ATOM     29  H   LIG A   1      -9.080   2.901 134.343  0.00  0.00    +0.209 HD
ENDBRANCH  27  28
ENDBRANCH   2  27
TORSDOF 9
ENDMDL
MODEL 5
REMARK VINA RESULT:      -6.8      3.485      6.292
REMARK  Name = NuBBE_2456
REMARK  13 active torsions:
REMARK  status: ('A' for Active; 'I' for Inactive)
REMARK    1  A    between atoms: C_1  and  O_2
REMARK    2  A    between atoms: O_2  and  C_3
REMARK    3  A    between atoms: C_5  and  C_6
REMARK    4  A    between atoms: C_6  and  C_7
REMARK    5  A    between atoms: C_9  and  C_11
REMARK    6  A    between atoms: C_11  and  O_12
REMARK    7  A    between atoms: C_13  and  C_15
REMARK    8  A    between atoms: C_18  and  O_19
REMARK    9  A    between atoms: O_19  and  C_20
REMARK   10  A    between atoms: C_21  and  O_22
REMARK   11  A    between atoms: O_22  and  C_23
REMARK   12  A    between atoms: C_29  and  O_30
REMARK   13  A    between atoms: O_30  and  C_31
REMARK                            x       y       z     vdW  Elec       q    Type
REMARK                         _______ _______ _______ _____ _____    ______ ____
ROOT
ATOM      1  C   LIG A   1      -9.004   5.110 131.027  0.00  0.00    +0.027 C 
ATOM      2  C   LIG A   1      -8.473   4.157 132.093  0.00  0.00    +0.053 C 
ATOM      3  C   LIG A   1      -8.753   4.888 133.407  0.00  0.00    +0.154 C 
ATOM      4  O   LIG A   1      -8.910   6.288 133.074  0.00  0.00    -0.371 OA
ATOM      5  C   LIG A   1      -8.646   6.443 131.675  0.00  0.00    +0.165 C 
ENDROOT
BRANCH   3   6
ATOM      6  C   LIG A   1      -7.714   4.776 134.497  0.00  0.00    -0.015 A 
ATOM      7  C   LIG A   1      -6.698   3.825 134.495  0.00  0.00    +0.010 A 
ATOM      8  C   LIG A   1      -5.719   3.799 135.486  0.00  0.00    +0.050 A 
ATOM      9  C   LIG A   1      -5.758   4.706 136.544  0.00  0.00    +0.162 A 
ATOM     10  C   LIG A   1      -6.790   5.649 136.597  0.00  0.00    +0.162 A 
ATOM     11  C   LIG A   1      -7.751   5.686 135.566  0.00  0.00    +0.055 A 
BRANCH   9  12
ATOM     12  O   LIG A   1      -4.699   4.572 137.399  0.00  0.00    -0.491 OA
ATOM     13  C   LIG A   1      -3.494   5.236 137.046  0.00  0.00    +0.277 C 
ENDBRANCH   9  12
BRANCH  10  14
ATOM     14  O   LIG A   1      -6.793   6.590 137.596  0.00  0.00    -0.491 OA
ATOM     15  C   LIG A   1      -7.838   7.556 137.544  0.00  0.00    +0.277 C 
ENDBRANCH  10  14
ENDBRANCH   3   6
BRANCH   1  16
ATOM     16  C   LIG A   1     -10.504   4.936 130.759  0.00  0.00    +0.041 C 
BRANCH  16  19
ATOM     17  C   LIG A   1     -11.382   7.975 128.647  0.00  0.00    +0.162 A 
ATOM     18  C   LIG A   1     -10.770   6.810 129.111  0.00  0.00    +0.053 A 
ATOM     19  C   LIG A   1     -11.148   6.225 130.323  0.00  0.00    -0.043 A 
ATOM     20  C   LIG A   1     -12.158   6.809 131.085  0.00  0.00    +0.007 A 
ATOM     21  C   LIG A   1     -12.780   7.972 130.637  0.00  0.00    +0.050 A 
ATOM     22  C   LIG A   1     -12.394   8.567 129.428  0.00  0.00    +0.162 A 
BRANCH  17  24
ATOM     23  C   LIG A   1     -11.000   7.810 126.291  0.00  0.00    +0.277 C 
ATOM     24  O   LIG A   1     -11.041   8.602 127.475  0.00  0.00    -0.491 OA
ENDBRANCH  17  24
BRANCH  22  25
ATOM     25  O   LIG A   1     -13.008   9.685 128.918  0.00  0.00    -0.491 OA
ATOM     26  C   LIG A   1     -13.387  10.665 129.876  0.00  0.00    +0.277 C 
ENDBRANCH  22  25
ENDBRANCH  16  19
ENDBRANCH   1  16
BRANCH   2  27
ATOM     27  C   LIG A   1      -9.004   2.730 132.098  0.00  0.00    +0.162 C 
BRANCH  27  28
ATOM     28  O   LIG A   1      -9.986   2.609 133.117  0.00  0.00    -0.395 OA
ATOM     29  H   LIG A   1     -10.328   3.503 133.298  0.00  0.00    +0.209 HD
ENDBRANCH  27  28
ENDBRANCH   2  27
TORSDOF 9
ENDMDL
MODEL 6
REMARK VINA RESULT:      -6.8      6.550      9.980
REMARK  Name = NuBBE_2456
REMARK  13 active torsions:
REMARK  status: ('A' for Active; 'I' for Inactive)
REMARK    1  A    between atoms: C_1  and  O_2
REMARK    2  A    between atoms: O_2  and  C_3
REMARK    3  A    between atoms: C_5  and  C_6
REMARK    4  A    between atoms: C_6  and  C_7
REMARK    5  A    between atoms: C_9  and  C_11
REMARK    6  A    between atoms: C_11  and  O_12
REMARK    7  A    between atoms: C_13  and  C_15
REMARK    8  A    between atoms: C_18  and  O_19
REMARK    9  A    between atoms: O_19  and  C_20
REMARK   10  A    between atoms: C_21  and  O_22
REMARK   11  A    between atoms: O_22  and  C_23
REMARK   12  A    between atoms: C_29  and  O_30
REMARK   13  A    between atoms: O_30  and  C_31
REMARK                            x       y       z     vdW  Elec       q    Type
REMARK                         _______ _______ _______ _____ _____    ______ ____
ROOT
ATOM      1  C   LIG A   1      -8.658  -1.759 126.366  0.00  0.00    +0.027 C 
ATOM      2  C   LIG A   1      -8.772  -1.414 124.884  0.00  0.00    +0.053 C 
ATOM      3  C   LIG A   1      -7.672  -0.373 124.667  0.00  0.00    +0.154 C 
ATOM      4  O   LIG A   1      -7.368   0.181 125.969  0.00  0.00    -0.371 OA
ATOM      5  C   LIG A   1      -8.276  -0.390 126.918  0.00  0.00    +0.165 C 
ENDROOT
BRANCH   3   6
ATOM      6  C   LIG A   1      -7.977   0.770 123.727  0.00  0.00    -0.015 A 
ATOM      7  C   LIG A   1      -9.237   1.005 123.187  0.00  0.00    +0.010 A 
ATOM      8  C   LIG A   1      -9.490   2.110 122.377  0.00  0.00    +0.050 A 
ATOM      9  C   LIG A   1      -8.466   2.995 122.045  0.00  0.00    +0.162 A 
ATOM     10  C   LIG A   1      -7.178   2.764 122.540  0.00  0.00    +0.162 A 
ATOM     11  C   LIG A   1      -6.947   1.662 123.388  0.00  0.00    +0.055 A 
BRANCH   9  12
ATOM     12  O   LIG A   1      -8.896   4.046 121.284  0.00  0.00    -0.491 OA
ATOM     13  C   LIG A   1      -8.714   3.945 119.879  0.00  0.00    +0.277 C 
ENDBRANCH   9  12
BRANCH  10  14
ATOM     14  O   LIG A   1      -6.182   3.670 122.276  0.00  0.00    -0.491 OA
ATOM     15  C   LIG A   1      -5.615   4.326 123.406  0.00  0.00    +0.277 C 
ENDBRANCH  10  14
ENDBRANCH   3   6
BRANCH   1  16
ATOM     16  C   LIG A   1      -7.620  -2.852 126.651  0.00  0.00    +0.041 C 
BRANCH  16  19
ATOM     17  C   LIG A   1      -5.509  -2.584 129.802  0.00  0.00    +0.162 A 
ATOM     18  C   LIG A   1      -5.901  -2.616 128.464  0.00  0.00    +0.053 A 
ATOM     19  C   LIG A   1      -7.226  -2.885 128.102  0.00  0.00    -0.043 A 
ATOM     20  C   LIG A   1      -8.176  -3.121 129.094  0.00  0.00    +0.007 A 
ATOM     21  C   LIG A   1      -7.801  -3.092 130.435  0.00  0.00    +0.050 A 
ATOM     22  C   LIG A   1      -6.472  -2.835 130.798  0.00  0.00    +0.162 A 
BRANCH  17  24
ATOM     23  C   LIG A   1      -3.171  -3.023 129.536  0.00  0.00    +0.277 C 
ATOM     24  O   LIG A   1      -4.222  -2.341 130.214  0.00  0.00    -0.491 OA
ENDBRANCH  17  24
BRANCH  22  25
ATOM     25  O   LIG A   1      -6.061  -2.747 132.106  0.00  0.00    -0.491 OA
ATOM     26  C   LIG A   1      -6.980  -3.245 133.071  0.00  0.00    +0.277 C 
ENDBRANCH  22  25
ENDBRANCH  16  19
ENDBRANCH   1  16
BRANCH   2  27
ATOM     27  C   LIG A   1      -8.696  -2.557 123.881  0.00  0.00    +0.162 C 
BRANCH  27  28
ATOM     28  O   LIG A   1      -9.989  -3.124 123.734  0.00  0.00    -0.395 OA
ATOM     29  H   LIG A   1     -10.116  -3.752 124.467  0.00  0.00    +0.209 HD
ENDBRANCH  27  28
ENDBRANCH   2  27
TORSDOF 9
ENDMDL
MODEL 7
REMARK VINA RESULT:      -6.7      6.303      8.456
REMARK  Name = NuBBE_2456
REMARK  13 active torsions:
REMARK  status: ('A' for Active; 'I' for Inactive)
REMARK    1  A    between atoms: C_1  and  O_2
REMARK    2  A    between atoms: O_2  and  C_3
REMARK    3  A    between atoms: C_5  and  C_6
REMARK    4  A    between atoms: C_6  and  C_7
REMARK    5  A    between atoms: C_9  and  C_11
REMARK    6  A    between atoms: C_11  and  O_12
REMARK    7  A    between atoms: C_13  and  C_15
REMARK    8  A    between atoms: C_18  and  O_19
REMARK    9  A    between atoms: O_19  and  C_20
REMARK   10  A    between atoms: C_21  and  O_22
REMARK   11  A    between atoms: O_22  and  C_23
REMARK   12  A    between atoms: C_29  and  O_30
REMARK   13  A    between atoms: O_30  and  C_31
REMARK                            x       y       z     vdW  Elec       q    Type
REMARK                         _______ _______ _______ _____ _____    ______ ____
ROOT
ATOM      1  C   LIG A   1      -3.587   4.339 128.958  0.00  0.00    +0.027 C 
ATOM      2  C   LIG A   1      -3.455   3.730 127.565  0.00  0.00    +0.053 C 
ATOM      3  C   LIG A   1      -4.411   4.564 126.710  0.00  0.00    +0.154 C 
ATOM      4  O   LIG A   1      -5.347   5.182 127.625  0.00  0.00    -0.371 OA
ATOM      5  C   LIG A   1      -5.071   4.693 128.942  0.00  0.00    +0.165 C 
ENDROOT
BRANCH   3   6
ATOM      6  C   LIG A   1      -5.199   3.840 125.645  0.00  0.00    -0.015 A 
ATOM      7  C   LIG A   1      -5.904   2.663 125.878  0.00  0.00    +0.010 A 
ATOM      8  C   LIG A   1      -6.673   2.063 124.883  0.00  0.00    +0.050 A 
ATOM      9  C   LIG A   1      -6.721   2.606 123.600  0.00  0.00    +0.162 A 
ATOM     10  C   LIG A   1      -5.991   3.766 123.323  0.00  0.00    +0.162 A 
ATOM     11  C   LIG A   1      -5.247   4.382 124.350  0.00  0.00    +0.055 A 
BRANCH   9  12
ATOM     12  O   LIG A   1      -7.558   1.921 122.763  0.00  0.00    -0.491 OA
ATOM     13  C   LIG A   1      -8.921   2.319 122.743  0.00  0.00    +0.277 C 
ENDBRANCH   9  12
BRANCH  10  14
ATOM     14  O   LIG A   1      -6.090   4.345 122.083  0.00  0.00    -0.491 OA
ATOM     15  C   LIG A   1      -5.153   3.901 121.106  0.00  0.00    +0.277 C 
ENDBRANCH  10  14
ENDBRANCH   3   6
BRANCH   1  16
ATOM     16  C   LIG A   1      -2.666   5.546 129.175  0.00  0.00    +0.041 C 
BRANCH  16  19
ATOM     17  C   LIG A   1      -1.655   7.237 132.428  0.00  0.00    +0.162 A 
ATOM     18  C   LIG A   1      -1.918   7.001 131.078  0.00  0.00    +0.053 A 
ATOM     19  C   LIG A   1      -2.337   5.744 130.630  0.00  0.00    -0.043 A 
ATOM     20  C   LIG A   1      -2.501   4.706 131.545  0.00  0.00    +0.007 A 
ATOM     21  C   LIG A   1      -2.244   4.925 132.896  0.00  0.00    +0.050 A 
ATOM     22  C   LIG A   1      -1.813   6.181 133.345  0.00  0.00    +0.162 A 
BRANCH  17  24
ATOM     23  C   LIG A   1      -2.155   9.526 132.917  0.00  0.00    +0.277 C 
ATOM     24  O   LIG A   1      -1.228   8.444 132.922  0.00  0.00    -0.491 OA
ENDBRANCH  17  24
BRANCH  22  25
ATOM     25  O   LIG A   1      -1.593   6.462 134.672  0.00  0.00    -0.491 OA
ATOM     26  C   LIG A   1      -2.749   6.450 135.500  0.00  0.00    +0.277 C 
ENDBRANCH  22  25
ENDBRANCH  16  19
ENDBRANCH   1  16
BRANCH   2  27
ATOM     27  C   LIG A   1      -2.062   3.640 126.959  0.00  0.00    +0.162 C 
BRANCH  27  28
ATOM     28  O   LIG A   1      -1.869   2.330 126.445  0.00  0.00    -0.395 OA
ATOM     29  H   LIG A   1      -1.254   2.401 125.694  0.00  0.00    +0.209 HD
ENDBRANCH  27  28
ENDBRANCH   2  27
TORSDOF 9
ENDMDL
MODEL 8
REMARK VINA RESULT:      -6.5      4.982      9.853
REMARK  Name = NuBBE_2456
REMARK  13 active torsions:
REMARK  status: ('A' for Active; 'I' for Inactive)
REMARK    1  A    between atoms: C_1  and  O_2
REMARK    2  A    between atoms: O_2  and  C_3
REMARK    3  A    between atoms: C_5  and  C_6
REMARK    4  A    between atoms: C_6  and  C_7
REMARK    5  A    between atoms: C_9  and  C_11
REMARK    6  A    between atoms: C_11  and  O_12
REMARK    7  A    between atoms: C_13  and  C_15
REMARK    8  A    between atoms: C_18  and  O_19
REMARK    9  A    between atoms: O_19  and  C_20
REMARK   10  A    between atoms: C_21  and  O_22
REMARK   11  A    between atoms: O_22  and  C_23
REMARK   12  A    between atoms: C_29  and  O_30
REMARK   13  A    between atoms: O_30  and  C_31
REMARK                            x       y       z     vdW  Elec       q    Type
REMARK                         _______ _______ _______ _____ _____    ______ ____
ROOT
ATOM      1  C   LIG A   1      -7.266  -2.556 127.868  0.00  0.00    +0.027 C 
ATOM      2  C   LIG A   1      -6.960  -1.088 127.588  0.00  0.00    +0.053 C 
ATOM      3  C   LIG A   1      -8.199  -0.593 126.841  0.00  0.00    +0.154 C 
ATOM      4  O   LIG A   1      -8.851  -1.768 126.302  0.00  0.00    -0.371 OA
ATOM      5  C   LIG A   1      -8.031  -2.904 126.596  0.00  0.00    +0.165 C 
ENDROOT
BRANCH   3   6
ATOM      6  C   LIG A   1      -7.983   0.387 125.712  0.00  0.00    -0.015 A 
ATOM      7  C   LIG A   1      -7.378   0.047 124.506  0.00  0.00    +0.010 A 
ATOM      8  C   LIG A   1      -7.258   0.965 123.465  0.00  0.00    +0.050 A 
ATOM      9  C   LIG A   1      -7.705   2.276 123.621  0.00  0.00    +0.162 A 
ATOM     10  C   LIG A   1      -8.281   2.660 124.836  0.00  0.00    +0.162 A 
ATOM     11  C   LIG A   1      -8.429   1.709 125.867  0.00  0.00    +0.055 A 
BRANCH   9  12
ATOM     12  O   LIG A   1      -7.554   3.028 122.489  0.00  0.00    -0.491 OA
ATOM     13  C   LIG A   1      -6.303   3.674 122.303  0.00  0.00    +0.277 C 
ENDBRANCH   9  12
BRANCH  10  14
ATOM     14  O   LIG A   1      -8.788   3.928 124.971  0.00  0.00    -0.491 OA
ATOM     15  C   LIG A   1      -8.035   4.820 125.788  0.00  0.00    +0.277 C 
ENDBRANCH  10  14
ENDBRANCH   3   6
BRANCH   1  16
ATOM     16  C   LIG A   1      -8.076  -2.766 129.154  0.00  0.00    +0.041 C 
BRANCH  16  19
ATOM     17  C   LIG A   1      -6.741  -3.392 132.659  0.00  0.00    +0.162 A 
ATOM     18  C   LIG A   1      -7.477  -2.885 131.588  0.00  0.00    +0.053 A 
ATOM     19  C   LIG A   1      -7.221  -3.292 130.274  0.00  0.00    -0.043 A 
ATOM     20  C   LIG A   1      -6.216  -4.225 130.026  0.00  0.00    +0.007 A 
ATOM     21  C   LIG A   1      -5.473  -4.742 131.084  0.00  0.00    +0.050 A 
ATOM     22  C   LIG A   1      -5.720  -4.326 132.400  0.00  0.00    +0.162 A 
BRANCH  17  24
ATOM     23  C   LIG A   1      -8.193  -3.335 134.561  0.00  0.00    +0.277 C 
ATOM     24  O   LIG A   1      -6.938  -3.018 133.965  0.00  0.00    -0.491 OA
ENDBRANCH  17  24
BRANCH  22  25
ATOM     25  O   LIG A   1      -5.049  -4.841 133.482  0.00  0.00    -0.491 OA
ATOM     26  C   LIG A   1      -3.631  -4.745 133.426  0.00  0.00    +0.277 C 
ENDBRANCH  22  25
ENDBRANCH  16  19
ENDBRANCH   1  16
BRANCH   2  27
ATOM     27  C   LIG A   1      -6.601  -0.199 128.771  0.00  0.00    +0.162 C 
BRANCH  27  28
ATOM     28  O   LIG A   1      -5.287  -0.521 129.204  0.00  0.00    -0.395 OA
ATOM     29  H   LIG A   1      -4.722  -0.559 128.413  0.00  0.00    +0.209 HD
ENDBRANCH  27  28
ENDBRANCH   2  27
TORSDOF 9
ENDMDL
MODEL 9
REMARK VINA RESULT:      -6.4      6.103      7.540
REMARK  Name = NuBBE_2456
REMARK  13 active torsions:
REMARK  status: ('A' for Active; 'I' for Inactive)
REMARK    1  A    between atoms: C_1  and  O_2
REMARK    2  A    between atoms: O_2  and  C_3
REMARK    3  A    between atoms: C_5  and  C_6
REMARK    4  A    between atoms: C_6  and  C_7
REMARK    5  A    between atoms: C_9  and  C_11
REMARK    6  A    between atoms: C_11  and  O_12
REMARK    7  A    between atoms: C_13  and  C_15
REMARK    8  A    between atoms: C_18  and  O_19
REMARK    9  A    between atoms: O_19  and  C_20
REMARK   10  A    between atoms: C_21  and  O_22
REMARK   11  A    between atoms: O_22  and  C_23
REMARK   12  A    between atoms: C_29  and  O_30
REMARK   13  A    between atoms: O_30  and  C_31
REMARK                            x       y       z     vdW  Elec       q    Type
REMARK                         _______ _______ _______ _____ _____    ______ ____
ROOT
ATOM      1  C   LIG A   1      -3.465   3.855 128.424  0.00  0.00    +0.027 C 
ATOM      2  C   LIG A   1      -3.394   2.978 127.178  0.00  0.00    +0.053 C 
ATOM      3  C   LIG A   1      -4.722   3.246 126.467  0.00  0.00    +0.154 C 
ATOM      4  O   LIG A   1      -5.625   3.772 127.468  0.00  0.00    -0.371 OA
ATOM      5  C   LIG A   1      -4.954   3.740 128.733  0.00  0.00    +0.165 C 
ENDROOT
BRANCH   3   6
ATOM      6  C   LIG A   1      -5.395   2.074 125.793  0.00  0.00    -0.015 A 
ATOM      7  C   LIG A   1      -5.131   0.747 126.115  0.00  0.00    +0.010 A 
ATOM      8  C   LIG A   1      -5.824  -0.302 125.515  0.00  0.00    +0.050 A 
ATOM      9  C   LIG A   1      -6.778  -0.051 124.531  0.00  0.00    +0.162 A 
ATOM     10  C   LIG A   1      -7.037   1.272 124.155  0.00  0.00    +0.162 A 
ATOM     11  C   LIG A   1      -6.354   2.324 124.798  0.00  0.00    +0.055 A 
BRANCH   9  12
ATOM     12  O   LIG A   1      -7.394  -1.186 124.083  0.00  0.00    -0.491 OA
ATOM     13  C   LIG A   1      -8.400  -1.747 124.914  0.00  0.00    +0.277 C 
ENDBRANCH   9  12
BRANCH  10  14
ATOM     14  O   LIG A   1      -8.025   1.531 123.238  0.00  0.00    -0.491 OA
ATOM     15  C   LIG A   1      -8.239   2.902 122.917  0.00  0.00    +0.277 C 
ENDBRANCH  10  14
ENDBRANCH   3   6
BRANCH   1  16
ATOM     16  C   LIG A   1      -2.995   5.294 128.173  0.00  0.00    +0.041 C 
BRANCH  16  19
ATOM     17  C   LIG A   1      -2.489   6.343 131.793  0.00  0.00    +0.162 A 
ATOM     18  C   LIG A   1      -2.525   5.588 130.620  0.00  0.00    +0.053 A 
ATOM     19  C   LIG A   1      -3.029   6.121 129.429  0.00  0.00    -0.043 A 
ATOM     20  C   LIG A   1      -3.501   7.432 129.407  0.00  0.00    +0.007 A 
ATOM     21  C   LIG A   1      -3.472   8.200 130.569  0.00  0.00    +0.050 A 
ATOM     22  C   LIG A   1      -2.978   7.663 131.766  0.00  0.00    +0.162 A 
BRANCH  17  24
ATOM     23  C   LIG A   1      -2.076   4.461 133.212  0.00  0.00    +0.277 C 
ATOM     24  O   LIG A   1      -2.021   5.867 132.993  0.00  0.00    -0.491 OA
ENDBRANCH  17  24
BRANCH  22  25
ATOM     25  O   LIG A   1      -2.883   8.393 132.926  0.00  0.00    -0.491 OA
ATOM     26  C   LIG A   1      -2.149   9.607 132.827  0.00  0.00    +0.277 C 
ENDBRANCH  22  25
ENDBRANCH  16  19
ENDBRANCH   1  16
BRANCH   2  27
ATOM     27  C   LIG A   1      -2.196   3.151 126.255  0.00  0.00    +0.162 C 
BRANCH  27  28
ATOM     28  O   LIG A   1      -1.086   2.460 126.810  0.00  0.00    -0.395 OA
ATOM     29  H   LIG A   1      -0.390   2.435 126.130  0.00  0.00    +0.209 HD
ENDBRANCH  27  28
ENDBRANCH   2  27
TORSDOF 9
ENDMDL
