MODEL 1
REMARK VINA RESULT:      -7.8      0.000      0.000
REMARK  Name = NuBBE_1397
REMARK  19 active torsions:
REMARK  status: ('A' for Active; 'I' for Inactive)
REMARK    1  A    between atoms: C_7  and  C_9
REMARK    2  A    between atoms: C_9  and  C_10
REMARK    3  A    between atoms: C_10  and  C_11
REMARK    4  A    between atoms: C_11  and  C_12
REMARK    5  A    between atoms: C_12  and  C_13
REMARK    6  A    between atoms: C_13  and  C_14
REMARK    7  A    between atoms: C_14  and  C_15
REMARK    8  A    between atoms: C_15  and  C_16
REMARK    9  A    between atoms: C_16  and  C_17
REMARK   10  A    between atoms: C_17  and  C_18
REMARK   11  A    between atoms: C_18  and  C_19
REMARK   12  A    between atoms: C_19  and  C_20
REMARK   13  A    between atoms: C_20  and  C_21
REMARK   14  A    between atoms: C_21  and  C_22
REMARK   15  A    between atoms: C_22  and  C_23
REMARK   16  A    between atoms: C_22  and  C_26
REMARK   17  A    between atoms: C_22  and  O_27
REMARK   18  A    between atoms: C_23  and  C_24
REMARK   19  A    between atoms: C_23  and  C_25
REMARK                            x       y       z     vdW  Elec       q    Type
REMARK                         _______ _______ _______ _____ _____    ______ ____
ROOT
ATOM      1  C   LIG A   1      -8.433   2.865 133.418  0.00  0.00    +0.000 C 
ENDROOT
BRANCH   1   2
ATOM      2  C   LIG A   1      -9.401   2.091 132.513  0.00  0.00    -0.000 C 
BRANCH   2   3
ATOM      3  C   LIG A   1      -8.841   1.388 131.263  0.00  0.00    -0.000 C 
BRANCH   3   4
ATOM      4  C   LIG A   1      -8.710  -0.151 131.244  0.00  0.00    -0.000 C 
BRANCH   4   5
ATOM      5  C   LIG A   1      -7.669  -0.830 130.314  0.00  0.00    -0.000 C 
BRANCH   5   6
ATOM      6  C   LIG A   1      -7.761  -2.359 130.255  0.00  0.00    -0.000 C 
BRANCH   6   7
ATOM      7  C   LIG A   1      -7.319  -3.029 128.949  0.00  0.00    -0.000 C 
BRANCH   7   8
ATOM      8  C   LIG A   1      -8.493  -3.710 128.197  0.00  0.00    +0.000 C 
BRANCH   8   9
ATOM      9  C   LIG A   1      -8.990  -2.983 126.922  0.00  0.00    +0.003 C 
BRANCH   9  10
ATOM     10  C   LIG A   1      -8.462  -3.648 125.625  0.00  0.00    +0.035 C 
BRANCH  10  11
ATOM     11  C   LIG A   1      -8.293  -2.722 124.373  0.00  0.00    +0.066 C 
ATOM     12  C   LIG A   1      -9.280  -3.123 123.264  0.00  0.00    +0.041 C 
BRANCH  11  13
ATOM     13  C   LIG A   1      -6.808  -2.753 123.842  0.00  0.00    +0.014 C 
ATOM     14  C   LIG A   1      -6.465  -1.634 122.836  0.00  0.00    +0.010 C 
ATOM     15  C   LIG A   1      -5.764  -2.691 124.968  0.00  0.00    +0.010 C 
ENDBRANCH  11  13
BRANCH  11  16
ATOM     16  O   LIG A   1      -8.613  -1.387 124.782  0.00  0.00    -0.389 OA
ATOM     17  H   LIG A   1      -9.577  -1.270 124.718  0.00  0.00    +0.210 HD
ENDBRANCH  11  16
ENDBRANCH  10  11
ENDBRANCH   9  10
ENDBRANCH   8   9
ENDBRANCH   7   8
ENDBRANCH   6   7
ENDBRANCH   5   6
ENDBRANCH   4   5
ENDBRANCH   3   4
ENDBRANCH   2   3
ENDBRANCH   1   2
BRANCH   1  18
ATOM     18  C   LIG A   1      -8.863   4.209 134.040  0.00  0.00    +0.000 C 
BRANCH  18  19
ATOM     19  C   LIG A   1      -8.376   5.619 133.563  0.00  0.00    +0.006 C 
BRANCH  19  20
ATOM     20  C   LIG A   1      -8.271   6.028 132.056  0.00  0.00    +0.053 C 
BRANCH  20  27
ATOM     21  O   LIG A   1     -13.124   6.923 131.785  0.00  0.00    -0.287 OA
ATOM     22  C   LIG A   1     -12.049   6.834 131.181  0.00  0.00    +0.190 A 
ATOM     23  C   LIG A   1     -11.947   7.077 129.726  0.00  0.00    +0.045 A 
ATOM     24  C   LIG A   1     -10.698   6.864 129.114  0.00  0.00    +0.050 A 
ATOM     25  N   LIG A   1      -9.567   6.484 129.872  0.00  0.00    -0.358 N 
ATOM     26  H   LIG A   1      -8.750   6.168 129.366  0.00  0.00    +0.166 HD
ATOM     27  C   LIG A   1      -9.601   6.339 131.252  0.00  0.00    +0.020 A 
ATOM     28  C   LIG A   1     -10.779   6.486 131.907  0.00  0.00    +0.072 A 
ATOM     29  C   LIG A   1     -10.578   7.166 127.747  0.00  0.00    +0.026 A 
ATOM     30  C   LIG A   1     -11.673   7.657 127.013  0.00  0.00    +0.002 A 
ATOM     31  C   LIG A   1     -12.907   7.840 127.631  0.00  0.00    +0.001 A 
ATOM     32  C   LIG A   1     -13.049   7.540 128.989  0.00  0.00    +0.013 A 
ENDBRANCH  20  27
ENDBRANCH  19  20
ENDBRANCH  18  19
ENDBRANCH   1  18
TORSDOF 16
ENDMDL
MODEL 2
REMARK VINA RESULT:      -7.8      1.362      2.192
REMARK  Name = NuBBE_1397
REMARK  19 active torsions:
REMARK  status: ('A' for Active; 'I' for Inactive)
REMARK    1  A    between atoms: C_7  and  C_9
REMARK    2  A    between atoms: C_9  and  C_10
REMARK    3  A    between atoms: C_10  and  C_11
REMARK    4  A    between atoms: C_11  and  C_12
REMARK    5  A    between atoms: C_12  and  C_13
REMARK    6  A    between atoms: C_13  and  C_14
REMARK    7  A    between atoms: C_14  and  C_15
REMARK    8  A    between atoms: C_15  and  C_16
REMARK    9  A    between atoms: C_16  and  C_17
REMARK   10  A    between atoms: C_17  and  C_18
REMARK   11  A    between atoms: C_18  and  C_19
REMARK   12  A    between atoms: C_19  and  C_20
REMARK   13  A    between atoms: C_20  and  C_21
REMARK   14  A    between atoms: C_21  and  C_22
REMARK   15  A    between atoms: C_22  and  C_23
REMARK   16  A    between atoms: C_22  and  C_26
REMARK   17  A    between atoms: C_22  and  O_27
REMARK   18  A    between atoms: C_23  and  C_24
REMARK   19  A    between atoms: C_23  and  C_25
REMARK                            x       y       z     vdW  Elec       q    Type
REMARK                         _______ _______ _______ _____ _____    ______ ____
ROOT
ATOM      1  C   LIG A   1      -8.092   2.898 133.516  0.00  0.00    +0.000 C 
ENDROOT
BRANCH   1   2
ATOM      2  C   LIG A   1      -8.794   1.976 132.509  0.00  0.00    -0.000 C 
BRANCH   2   3
ATOM      3  C   LIG A   1     -10.114   2.448 131.873  0.00  0.00    -0.000 C 
BRANCH   3   4
ATOM      4  C   LIG A   1     -10.128   2.928 130.404  0.00  0.00    -0.000 C 
BRANCH   4   5
ATOM      5  C   LIG A   1      -8.808   2.964 129.587  0.00  0.00    -0.000 C 
BRANCH   5   6
ATOM      6  C   LIG A   1      -8.696   1.889 128.502  0.00  0.00    -0.000 C 
BRANCH   6   7
ATOM      7  C   LIG A   1      -7.592   0.839 128.680  0.00  0.00    -0.000 C 
BRANCH   7   8
ATOM      8  C   LIG A   1      -6.927   0.434 127.337  0.00  0.00    +0.000 C 
BRANCH   8   9
ATOM      9  C   LIG A   1      -7.842  -0.305 126.327  0.00  0.00    +0.003 C 
BRANCH   9  10
ATOM     10  C   LIG A   1      -7.510  -1.816 126.232  0.00  0.00    +0.035 C 
BRANCH  10  11
ATOM     11  C   LIG A   1      -8.711  -2.791 125.988  0.00  0.00    +0.066 C 
ATOM     12  C   LIG A   1      -8.941  -3.686 127.217  0.00  0.00    +0.041 C 
BRANCH  11  13
ATOM     13  C   LIG A   1      -8.480  -3.662 124.693  0.00  0.00    +0.014 C 
ATOM     14  C   LIG A   1      -9.364  -3.268 123.491  0.00  0.00    +0.010 C 
ATOM     15  C   LIG A   1      -7.020  -3.649 124.211  0.00  0.00    +0.010 C 
ENDBRANCH  11  13
BRANCH  11  16
ATOM     16  O   LIG A   1      -9.883  -1.988 125.805  0.00  0.00    -0.389 OA
ATOM     17  H   LIG A   1     -10.466  -2.437 125.170  0.00  0.00    +0.210 HD
ENDBRANCH  11  16
ENDBRANCH  10  11
ENDBRANCH   9  10
ENDBRANCH   8   9
ENDBRANCH   7   8
ENDBRANCH   6   7
ENDBRANCH   5   6
ENDBRANCH   4   5
ENDBRANCH   3   4
ENDBRANCH   2   3
ENDBRANCH   1   2
BRANCH   1  18
ATOM     18  C   LIG A   1      -8.778   4.198 133.981  0.00  0.00    +0.000 C 
BRANCH  18  19
ATOM     19  C   LIG A   1      -8.327   5.645 133.588  0.00  0.00    +0.006 C 
BRANCH  19  20
ATOM     20  C   LIG A   1      -8.197   6.133 132.106  0.00  0.00    +0.053 C 
BRANCH  20  27
ATOM     21  O   LIG A   1     -13.069   6.847 131.688  0.00  0.00    -0.287 OA
ATOM     22  C   LIG A   1     -11.976   6.779 131.114  0.00  0.00    +0.190 A 
ATOM     23  C   LIG A   1     -11.845   6.983 129.655  0.00  0.00    +0.045 A 
ATOM     24  C   LIG A   1     -10.574   6.796 129.081  0.00  0.00    +0.050 A 
ATOM     25  N   LIG A   1      -9.451   6.479 129.878  0.00  0.00    -0.358 N 
ATOM     26  H   LIG A   1      -8.610   6.177 129.403  0.00  0.00    +0.166 HD
ATOM     27  C   LIG A   1      -9.515   6.373 131.261  0.00  0.00    +0.020 A 
ATOM     28  C   LIG A   1     -10.715   6.497 131.882  0.00  0.00    +0.072 A 
ATOM     29  C   LIG A   1     -10.429   7.062 127.709  0.00  0.00    +0.026 A 
ATOM     30  C   LIG A   1     -11.520   7.492 126.933  0.00  0.00    +0.002 A 
ATOM     31  C   LIG A   1     -12.776   7.650 127.515  0.00  0.00    +0.001 A 
ATOM     32  C   LIG A   1     -12.943   7.384 128.877  0.00  0.00    +0.013 A 
ENDBRANCH  20  27
ENDBRANCH  19  20
ENDBRANCH  18  19
ENDBRANCH   1  18
TORSDOF 16
ENDMDL
MODEL 3
REMARK VINA RESULT:      -7.6      6.020      8.703
REMARK  Name = NuBBE_1397
REMARK  19 active torsions:
REMARK  status: ('A' for Active; 'I' for Inactive)
REMARK    1  A    between atoms: C_7  and  C_9
REMARK    2  A    between atoms: C_9  and  C_10
REMARK    3  A    between atoms: C_10  and  C_11
REMARK    4  A    between atoms: C_11  and  C_12
REMARK    5  A    between atoms: C_12  and  C_13
REMARK    6  A    between atoms: C_13  and  C_14
REMARK    7  A    between atoms: C_14  and  C_15
REMARK    8  A    between atoms: C_15  and  C_16
REMARK    9  A    between atoms: C_16  and  C_17
REMARK   10  A    between atoms: C_17  and  C_18
REMARK   11  A    between atoms: C_18  and  C_19
REMARK   12  A    between atoms: C_19  and  C_20
REMARK   13  A    between atoms: C_20  and  C_21
REMARK   14  A    between atoms: C_21  and  C_22
REMARK   15  A    between atoms: C_22  and  C_23
REMARK   16  A    between atoms: C_22  and  C_26
REMARK   17  A    between atoms: C_22  and  O_27
REMARK   18  A    between atoms: C_23  and  C_24
REMARK   19  A    between atoms: C_23  and  C_25
REMARK                            x       y       z     vdW  Elec       q    Type
REMARK                         _______ _______ _______ _____ _____    ______ ____
ROOT
ATOM      1  C   LIG A   1      -8.080  -1.828 122.731  0.00  0.00    +0.000 C 
ENDROOT
BRANCH   1   2
ATOM      2  C   LIG A   1      -6.551  -1.732 122.625  0.00  0.00    -0.000 C 
BRANCH   2   3
ATOM      3  C   LIG A   1      -5.693  -2.399 123.715  0.00  0.00    -0.000 C 
BRANCH   3   4
ATOM      4  C   LIG A   1      -5.544  -1.719 125.094  0.00  0.00    -0.000 C 
BRANCH   4   5
ATOM      5  C   LIG A   1      -6.661  -1.873 126.161  0.00  0.00    -0.000 C 
BRANCH   5   6
ATOM      6  C   LIG A   1      -7.600  -3.063 125.939  0.00  0.00    -0.000 C 
BRANCH   6   7
ATOM      7  C   LIG A   1      -8.880  -3.101 126.782  0.00  0.00    -0.000 C 
BRANCH   7   8
ATOM      8  C   LIG A   1      -8.712  -3.917 128.092  0.00  0.00    +0.000 C 
BRANCH   8   9
ATOM      9  C   LIG A   1      -8.133  -3.139 129.301  0.00  0.00    +0.003 C 
BRANCH   9  10
ATOM     10  C   LIG A   1      -6.763  -3.702 129.758  0.00  0.00    +0.035 C 
BRANCH  10  11
ATOM     11  C   LIG A   1      -5.580  -2.682 129.871  0.00  0.00    +0.066 C 
ATOM     12  C   LIG A   1      -4.487  -3.002 128.838  0.00  0.00    +0.041 C 
BRANCH  11  13
ATOM     13  C   LIG A   1      -4.985  -2.663 131.332  0.00  0.00    +0.014 C 
ATOM     14  C   LIG A   1      -3.536  -2.142 131.426  0.00  0.00    +0.010 C 
ATOM     15  C   LIG A   1      -5.832  -1.840 132.316  0.00  0.00    +0.010 C 
ENDBRANCH  11  13
BRANCH  11  16
ATOM     16  O   LIG A   1      -6.104  -1.384 129.565  0.00  0.00    -0.389 OA
ATOM     17  H   LIG A   1      -6.749  -1.477 128.843  0.00  0.00    +0.210 HD
ENDBRANCH  11  16
ENDBRANCH  10  11
ENDBRANCH   9  10
ENDBRANCH   8   9
ENDBRANCH   7   8
ENDBRANCH   6   7
ENDBRANCH   5   6
ENDBRANCH   4   5
ENDBRANCH   3   4
ENDBRANCH   2   3
ENDBRANCH   1   2
BRANCH   1  18
ATOM     18  C   LIG A   1      -8.917  -0.558 122.986  0.00  0.00    +0.000 C 
BRANCH  18  19
ATOM     19  C   LIG A   1      -9.005   0.204 124.352  0.00  0.00    +0.006 C 
BRANCH  19  20
ATOM     20  C   LIG A   1      -8.868   1.758 124.480  0.00  0.00    +0.053 C 
BRANCH  20  27
ATOM     21  O   LIG A   1      -5.012   3.925 122.275  0.00  0.00    -0.287 OA
ATOM     22  C   LIG A   1      -6.205   3.605 122.205  0.00  0.00    +0.190 A 
ATOM     23  C   LIG A   1      -7.023   3.898 121.008  0.00  0.00    +0.045 A 
ATOM     24  C   LIG A   1      -8.392   3.574 121.057  0.00  0.00    +0.050 A 
ATOM     25  N   LIG A   1      -8.954   2.944 122.190  0.00  0.00    -0.358 N 
ATOM     26  H   LIG A   1      -9.963   2.902 122.250  0.00  0.00    +0.166 HD
ATOM     27  C   LIG A   1      -8.200   2.567 123.294  0.00  0.00    +0.020 A 
ATOM     28  C   LIG A   1      -6.881   2.884 123.337  0.00  0.00    +0.072 A 
ATOM     29  C   LIG A   1      -9.156   3.781 119.896  0.00  0.00    +0.026 A 
ATOM     30  C   LIG A   1      -8.574   4.300 118.726  0.00  0.00    +0.002 A 
ATOM     31  C   LIG A   1      -7.222   4.635 118.703  0.00  0.00    +0.001 A 
ATOM     32  C   LIG A   1      -6.446   4.443 119.850  0.00  0.00    +0.013 A 
ENDBRANCH  20  27
ENDBRANCH  19  20
ENDBRANCH  18  19
ENDBRANCH   1  18
TORSDOF 16
ENDMDL
MODEL 4
REMARK VINA RESULT:      -7.5      2.082      3.816
REMARK  Name = NuBBE_1397
REMARK  19 active torsions:
REMARK  status: ('A' for Active; 'I' for Inactive)
REMARK    1  A    between atoms: C_7  and  C_9
REMARK    2  A    between atoms: C_9  and  C_10
REMARK    3  A    between atoms: C_10  and  C_11
REMARK    4  A    between atoms: C_11  and  C_12
REMARK    5  A    between atoms: C_12  and  C_13
REMARK    6  A    between atoms: C_13  and  C_14
REMARK    7  A    between atoms: C_14  and  C_15
REMARK    8  A    between atoms: C_15  and  C_16
REMARK    9  A    between atoms: C_16  and  C_17
REMARK   10  A    between atoms: C_17  and  C_18
REMARK   11  A    between atoms: C_18  and  C_19
REMARK   12  A    between atoms: C_19  and  C_20
REMARK   13  A    between atoms: C_20  and  C_21
REMARK   14  A    between atoms: C_21  and  C_22
REMARK   15  A    between atoms: C_22  and  C_23
REMARK   16  A    between atoms: C_22  and  C_26
REMARK   17  A    between atoms: C_22  and  O_27
REMARK   18  A    between atoms: C_23  and  C_24
REMARK   19  A    between atoms: C_23  and  C_25
REMARK                            x       y       z     vdW  Elec       q    Type
REMARK                         _______ _______ _______ _____ _____    ______ ____
ROOT
ATOM      1  C   LIG A   1      -7.542  -0.621 130.708  0.00  0.00    +0.000 C 
ENDROOT
BRANCH   1   2
ATOM      2  C   LIG A   1      -6.650  -1.250 129.628  0.00  0.00    -0.000 C 
BRANCH   2   3
ATOM      3  C   LIG A   1      -7.317  -2.056 128.498  0.00  0.00    -0.000 C 
BRANCH   3   4
ATOM      4  C   LIG A   1      -8.343  -3.158 128.846  0.00  0.00    -0.000 C 
BRANCH   4   5
ATOM      5  C   LIG A   1      -9.014  -3.979 127.713  0.00  0.00    -0.000 C 
BRANCH   5   6
ATOM      6  C   LIG A   1      -9.204  -3.220 126.395  0.00  0.00    -0.000 C 
BRANCH   6   7
ATOM      7  C   LIG A   1      -8.310  -3.638 125.221  0.00  0.00    -0.000 C 
BRANCH   7   8
ATOM      8  C   LIG A   1      -9.032  -3.532 123.851  0.00  0.00    +0.000 C 
BRANCH   8   9
ATOM      9  C   LIG A   1      -9.232  -2.096 123.303  0.00  0.00    +0.003 C 
BRANCH   9  10
ATOM     10  C   LIG A   1      -7.891  -1.331 123.162  0.00  0.00    +0.035 C 
BRANCH  10  11
ATOM     11  C   LIG A   1      -7.674  -0.104 124.110  0.00  0.00    +0.066 C 
ATOM     12  C   LIG A   1      -6.518  -0.371 125.088  0.00  0.00    +0.041 C 
BRANCH  11  13
ATOM     13  C   LIG A   1      -8.999   0.253 124.889  0.00  0.00    +0.014 C 
ATOM     14  C   LIG A   1      -8.798   0.553 126.389  0.00  0.00    +0.010 C 
ATOM     15  C   LIG A   1      -9.753   1.445 124.280  0.00  0.00    +0.010 C 
ENDBRANCH  11  13
BRANCH  11  16
ATOM     16  O   LIG A   1      -7.303   1.010 123.289  0.00  0.00    -0.389 OA
ATOM     17  H   LIG A   1      -8.116   1.434 122.962  0.00  0.00    +0.210 HD
ENDBRANCH  11  16
ENDBRANCH  10  11
ENDBRANCH   9  10
ENDBRANCH   8   9
ENDBRANCH   7   8
ENDBRANCH   6   7
ENDBRANCH   5   6
ENDBRANCH   4   5
ENDBRANCH   3   4
ENDBRANCH   2   3
ENDBRANCH   1   2
BRANCH   1  18
ATOM     18  C   LIG A   1      -8.333   0.666 130.403  0.00  0.00    +0.000 C 
BRANCH  18  19
ATOM     19  C   LIG A   1      -8.791   1.717 131.470  0.00  0.00    +0.006 C 
BRANCH  19  20
ATOM     20  C   LIG A   1     -10.153   2.484 131.393  0.00  0.00    +0.053 C 
BRANCH  20  27
ATOM     21  O   LIG A   1      -7.926   6.786 130.414  0.00  0.00    -0.287 OA
ATOM     22  C   LIG A   1      -8.970   6.124 130.378  0.00  0.00    +0.190 A 
ATOM     23  C   LIG A   1     -10.224   6.674 129.820  0.00  0.00    +0.045 A 
ATOM     24  C   LIG A   1     -11.381   5.877 129.903  0.00  0.00    +0.050 A 
ATOM     25  N   LIG A   1     -11.334   4.575 130.452  0.00  0.00    -0.358 N 
ATOM     26  H   LIG A   1     -12.216   4.122 130.657  0.00  0.00    +0.166 HD
ATOM     27  C   LIG A   1     -10.158   3.989 130.899  0.00  0.00    +0.020 A 
ATOM     28  C   LIG A   1      -9.010   4.711 130.890  0.00  0.00    +0.072 A 
ATOM     29  C   LIG A   1     -12.557   6.364 129.308  0.00  0.00    +0.026 A 
ATOM     30  C   LIG A   1     -12.580   7.609 128.656  0.00  0.00    +0.002 A 
ATOM     31  C   LIG A   1     -11.430   8.394 128.603  0.00  0.00    +0.001 A 
ATOM     32  C   LIG A   1     -10.252   7.931 129.195  0.00  0.00    +0.013 A 
ENDBRANCH  20  27
ENDBRANCH  19  20
ENDBRANCH  18  19
ENDBRANCH   1  18
TORSDOF 16
ENDMDL
MODEL 5
REMARK VINA RESULT:      -7.5      5.792      8.645
REMARK  Name = NuBBE_1397
REMARK  19 active torsions:
REMARK  status: ('A' for Active; 'I' for Inactive)
REMARK    1  A    between atoms: C_7  and  C_9
REMARK    2  A    between atoms: C_9  and  C_10
REMARK    3  A    between atoms: C_10  and  C_11
REMARK    4  A    between atoms: C_11  and  C_12
REMARK    5  A    between atoms: C_12  and  C_13
REMARK    6  A    between atoms: C_13  and  C_14
REMARK    7  A    between atoms: C_14  and  C_15
REMARK    8  A    between atoms: C_15  and  C_16
REMARK    9  A    between atoms: C_16  and  C_17
REMARK   10  A    between atoms: C_17  and  C_18
REMARK   11  A    between atoms: C_18  and  C_19
REMARK   12  A    between atoms: C_19  and  C_20
REMARK   13  A    between atoms: C_20  and  C_21
REMARK   14  A    between atoms: C_21  and  C_22
REMARK   15  A    between atoms: C_22  and  C_23
REMARK   16  A    between atoms: C_22  and  C_26
REMARK   17  A    between atoms: C_22  and  O_27
REMARK   18  A    between atoms: C_23  and  C_24
REMARK   19  A    between atoms: C_23  and  C_25
REMARK                            x       y       z     vdW  Elec       q    Type
REMARK                         _______ _______ _______ _____ _____    ______ ____
ROOT
ATOM      1  C   LIG A   1      -9.570   0.147 123.276  0.00  0.00    +0.000 C 
ENDROOT
BRANCH   1   2
ATOM      2  C   LIG A   1      -8.595  -1.028 123.122  0.00  0.00    -0.000 C 
BRANCH   2   3
ATOM      3  C   LIG A   1      -9.158  -2.407 122.730  0.00  0.00    -0.000 C 
BRANCH   3   4
ATOM      4  C   LIG A   1      -9.370  -3.485 123.816  0.00  0.00    -0.000 C 
BRANCH   4   5
ATOM      5  C   LIG A   1      -8.375  -3.599 125.001  0.00  0.00    -0.000 C 
BRANCH   5   6
ATOM      6  C   LIG A   1      -8.869  -2.987 126.316  0.00  0.00    -0.000 C 
BRANCH   6   7
ATOM      7  C   LIG A   1      -8.217  -1.671 126.756  0.00  0.00    -0.000 C 
BRANCH   7   8
ATOM      8  C   LIG A   1      -6.696  -1.623 126.446  0.00  0.00    +0.000 C 
BRANCH   8   9
ATOM      9  C   LIG A   1      -5.781  -2.370 127.449  0.00  0.00    +0.003 C 
BRANCH   9  10
ATOM     10  C   LIG A   1      -5.917  -1.818 128.891  0.00  0.00    +0.035 C 
BRANCH  10  11
ATOM     11  C   LIG A   1      -6.601  -2.753 129.945  0.00  0.00    +0.066 C 
ATOM     12  C   LIG A   1      -7.702  -1.997 130.708  0.00  0.00    +0.041 C 
BRANCH  11  13
ATOM     13  C   LIG A   1      -5.538  -3.357 130.943  0.00  0.00    +0.014 C 
ATOM     14  C   LIG A   1      -5.738  -2.944 132.416  0.00  0.00    +0.010 C 
ATOM     15  C   LIG A   1      -5.477  -4.892 130.901  0.00  0.00    +0.010 C 
ENDBRANCH  11  13
BRANCH  11  16
ATOM     16  O   LIG A   1      -7.224  -3.824 129.226  0.00  0.00    -0.389 OA
ATOM     17  H   LIG A   1      -8.174  -3.824 129.438  0.00  0.00    +0.210 HD
ENDBRANCH  11  16
ENDBRANCH  10  11
ENDBRANCH   9  10
ENDBRANCH   8   9
ENDBRANCH   7   8
ENDBRANCH   6   7
ENDBRANCH   5   6
ENDBRANCH   4   5
ENDBRANCH   3   4
ENDBRANCH   2   3
ENDBRANCH   1   2
BRANCH   1  18
ATOM     18  C   LIG A   1      -9.735   0.840 124.643  0.00  0.00    +0.000 C 
BRANCH  18  19
ATOM     19  C   LIG A   1      -9.039   2.178 125.066  0.00  0.00    +0.006 C 
BRANCH  19  20
ATOM     20  C   LIG A   1      -7.552   2.521 124.718  0.00  0.00    +0.053 C 
BRANCH  20  27
ATOM     21  O   LIG A   1      -4.449   4.474 121.403  0.00  0.00    -0.287 OA
ATOM     22  C   LIG A   1      -5.603   4.111 121.658  0.00  0.00    +0.190 A 
ATOM     23  C   LIG A   1      -6.691   4.205 120.660  0.00  0.00    +0.045 A 
ATOM     24  C   LIG A   1      -7.989   3.850 121.073  0.00  0.00    +0.050 A 
ATOM     25  N   LIG A   1      -8.235   3.369 122.379  0.00  0.00    -0.358 N 
ATOM     26  H   LIG A   1      -9.199   3.305 122.680  0.00  0.00    +0.166 HD
ATOM     27  C   LIG A   1      -7.226   3.176 123.313  0.00  0.00    +0.020 A 
ATOM     28  C   LIG A   1      -5.955   3.536 123.002  0.00  0.00    +0.072 A 
ATOM     29  C   LIG A   1      -9.010   3.867 120.108  0.00  0.00    +0.026 A 
ATOM     30  C   LIG A   1      -8.747   4.234 118.777  0.00  0.00    +0.002 A 
ATOM     31  C   LIG A   1      -7.460   4.603 118.392  0.00  0.00    +0.001 A 
ATOM     32  C   LIG A   1      -6.431   4.599 119.338  0.00  0.00    +0.013 A 
ENDBRANCH  20  27
ENDBRANCH  19  20
ENDBRANCH  18  19
ENDBRANCH   1  18
TORSDOF 16
ENDMDL
MODEL 6
REMARK VINA RESULT:      -7.4      1.732      3.010
REMARK  Name = NuBBE_1397
REMARK  19 active torsions:
REMARK  status: ('A' for Active; 'I' for Inactive)
REMARK    1  A    between atoms: C_7  and  C_9
REMARK    2  A    between atoms: C_9  and  C_10
REMARK    3  A    between atoms: C_10  and  C_11
REMARK    4  A    between atoms: C_11  and  C_12
REMARK    5  A    between atoms: C_12  and  C_13
REMARK    6  A    between atoms: C_13  and  C_14
REMARK    7  A    between atoms: C_14  and  C_15
REMARK    8  A    between atoms: C_15  and  C_16
REMARK    9  A    between atoms: C_16  and  C_17
REMARK   10  A    between atoms: C_17  and  C_18
REMARK   11  A    between atoms: C_18  and  C_19
REMARK   12  A    between atoms: C_19  and  C_20
REMARK   13  A    between atoms: C_20  and  C_21
REMARK   14  A    between atoms: C_21  and  C_22
REMARK   15  A    between atoms: C_22  and  C_23
REMARK   16  A    between atoms: C_22  and  C_26
REMARK   17  A    between atoms: C_22  and  O_27
REMARK   18  A    between atoms: C_23  and  C_24
REMARK   19  A    between atoms: C_23  and  C_25
REMARK                            x       y       z     vdW  Elec       q    Type
REMARK                         _______ _______ _______ _____ _____    ______ ____
ROOT
ATOM      1  C   LIG A   1      -7.910   1.587 132.721  0.00  0.00    +0.000 C 
ENDROOT
BRANCH   1   2
ATOM      2  C   LIG A   1      -9.396   1.969 132.671  0.00  0.00    -0.000 C 
BRANCH   2   3
ATOM      3  C   LIG A   1     -10.056   2.187 131.297  0.00  0.00    -0.000 C 
BRANCH   3   4
ATOM      4  C   LIG A   1      -9.432   3.187 130.298  0.00  0.00    -0.000 C 
BRANCH   4   5
ATOM      5  C   LIG A   1      -8.190   2.777 129.463  0.00  0.00    -0.000 C 
BRANCH   5   6
ATOM      6  C   LIG A   1      -8.269   1.381 128.838  0.00  0.00    -0.000 C 
BRANCH   6   7
ATOM      7  C   LIG A   1      -7.248   0.345 129.325  0.00  0.00    -0.000 C 
BRANCH   7   8
ATOM      8  C   LIG A   1      -7.916  -0.939 129.884  0.00  0.00    +0.000 C 
BRANCH   8   9
ATOM      9  C   LIG A   1      -7.512  -2.265 129.191  0.00  0.00    +0.003 C 
BRANCH   9  10
ATOM     10  C   LIG A   1      -7.101  -2.052 127.712  0.00  0.00    +0.035 C 
BRANCH  10  11
ATOM     11  C   LIG A   1      -8.108  -2.546 126.619  0.00  0.00    +0.066 C 
ATOM     12  C   LIG A   1      -9.022  -3.648 127.182  0.00  0.00    +0.041 C 
BRANCH  11  13
ATOM     13  C   LIG A   1      -7.347  -3.050 125.333  0.00  0.00    +0.014 C 
ATOM     14  C   LIG A   1      -8.267  -3.549 124.199  0.00  0.00    +0.010 C 
ATOM     15  C   LIG A   1      -6.413  -1.988 124.731  0.00  0.00    +0.010 C 
ENDBRANCH  11  13
BRANCH  11  16
ATOM     16  O   LIG A   1      -8.935  -1.431 126.264  0.00  0.00    -0.389 OA
ATOM     17  H   LIG A   1      -9.859  -1.660 126.462  0.00  0.00    +0.210 HD
ENDBRANCH  11  16
ENDBRANCH  10  11
ENDBRANCH   9  10
ENDBRANCH   8   9
ENDBRANCH   7   8
ENDBRANCH   6   7
ENDBRANCH   5   6
ENDBRANCH   4   5
ENDBRANCH   3   4
ENDBRANCH   2   3
ENDBRANCH   1   2
BRANCH   1  18
ATOM     18  C   LIG A   1      -6.987   2.211 133.787  0.00  0.00    +0.000 C 
BRANCH  18  19
ATOM     19  C   LIG A   1      -7.106   3.672 134.339  0.00  0.00    +0.006 C 
BRANCH  19  20
ATOM     20  C   LIG A   1      -8.456   4.461 134.400  0.00  0.00    +0.053 C 
BRANCH  20  27
ATOM     21  O   LIG A   1      -7.409   7.190 130.415  0.00  0.00    -0.287 OA
ATOM     22  C   LIG A   1      -8.284   6.696 131.136  0.00  0.00    +0.190 A 
ATOM     23  C   LIG A   1      -9.724   6.868 130.845  0.00  0.00    +0.045 A 
ATOM     24  C   LIG A   1     -10.645   6.344 131.772  0.00  0.00    +0.050 A 
ATOM     25  N   LIG A   1     -10.209   5.631 132.912  0.00  0.00    -0.358 N 
ATOM     26  H   LIG A   1     -10.893   5.439 133.634  0.00  0.00    +0.166 HD
ATOM     27  C   LIG A   1      -8.870   5.367 133.169  0.00  0.00    +0.020 A 
ATOM     28  C   LIG A   1      -7.922   5.876 132.343  0.00  0.00    +0.072 A 
ATOM     29  C   LIG A   1     -12.012   6.439 131.463  0.00  0.00    +0.026 A 
ATOM     30  C   LIG A   1     -12.447   7.045 130.271  0.00  0.00    +0.002 A 
ATOM     31  C   LIG A   1     -11.522   7.577 129.376  0.00  0.00    +0.001 A 
ATOM     32  C   LIG A   1     -10.157   7.499 129.668  0.00  0.00    +0.013 A 
ENDBRANCH  20  27
ENDBRANCH  19  20
ENDBRANCH  18  19
ENDBRANCH   1  18
TORSDOF 16
ENDMDL
MODEL 7
REMARK VINA RESULT:      -7.4      5.912      7.628
REMARK  Name = NuBBE_1397
REMARK  19 active torsions:
REMARK  status: ('A' for Active; 'I' for Inactive)
REMARK    1  A    between atoms: C_7  and  C_9
REMARK    2  A    between atoms: C_9  and  C_10
REMARK    3  A    between atoms: C_10  and  C_11
REMARK    4  A    between atoms: C_11  and  C_12
REMARK    5  A    between atoms: C_12  and  C_13
REMARK    6  A    between atoms: C_13  and  C_14
REMARK    7  A    between atoms: C_14  and  C_15
REMARK    8  A    between atoms: C_15  and  C_16
REMARK    9  A    between atoms: C_16  and  C_17
REMARK   10  A    between atoms: C_17  and  C_18
REMARK   11  A    between atoms: C_18  and  C_19
REMARK   12  A    between atoms: C_19  and  C_20
REMARK   13  A    between atoms: C_20  and  C_21
REMARK   14  A    between atoms: C_21  and  C_22
REMARK   15  A    between atoms: C_22  and  C_23
REMARK   16  A    between atoms: C_22  and  C_26
REMARK   17  A    between atoms: C_22  and  O_27
REMARK   18  A    between atoms: C_23  and  C_24
REMARK   19  A    between atoms: C_23  and  C_25
REMARK                            x       y       z     vdW  Elec       q    Type
REMARK                         _______ _______ _______ _____ _____    ______ ____
ROOT
ATOM      1  C   LIG A   1      -9.174  -1.252 125.334  0.00  0.00    +0.000 C 
ENDROOT
BRANCH   1   2
ATOM      2  C   LIG A   1      -9.727  -2.519 125.999  0.00  0.00    -0.000 C 
BRANCH   2   3
ATOM      3  C   LIG A   1      -8.751  -3.447 126.747  0.00  0.00    -0.000 C 
BRANCH   3   4
ATOM      4  C   LIG A   1      -8.519  -3.253 128.262  0.00  0.00    -0.000 C 
BRANCH   4   5
ATOM      5  C   LIG A   1      -7.108  -2.878 128.789  0.00  0.00    -0.000 C 
BRANCH   5   6
ATOM      6  C   LIG A   1      -6.936  -1.404 129.169  0.00  0.00    -0.000 C 
BRANCH   6   7
ATOM      7  C   LIG A   1      -6.794  -0.404 128.015  0.00  0.00    -0.000 C 
BRANCH   7   8
ATOM      8  C   LIG A   1      -5.520  -0.648 127.163  0.00  0.00    +0.000 C 
BRANCH   8   9
ATOM      9  C   LIG A   1      -5.764  -1.086 125.696  0.00  0.00    +0.003 C 
BRANCH   9  10
ATOM     10  C   LIG A   1      -5.551  -2.608 125.495  0.00  0.00    +0.035 C 
BRANCH  10  11
ATOM     11  C   LIG A   1      -5.912  -3.193 124.088  0.00  0.00    +0.066 C 
ATOM     12  C   LIG A   1      -4.682  -3.853 123.443  0.00  0.00    +0.041 C 
BRANCH  11  13
ATOM     13  C   LIG A   1      -6.511  -2.078 123.147  0.00  0.00    +0.014 C 
ATOM     14  C   LIG A   1      -5.710  -1.838 121.850  0.00  0.00    +0.010 C 
ATOM     15  C   LIG A   1      -7.968  -2.351 122.741  0.00  0.00    +0.010 C 
ENDBRANCH  11  13
BRANCH  11  16
ATOM     16  O   LIG A   1      -6.900  -4.212 124.289  0.00  0.00    -0.389 OA
ATOM     17  H   LIG A   1      -7.566  -3.874 124.912  0.00  0.00    +0.210 HD
ENDBRANCH  11  16
ENDBRANCH  10  11
ENDBRANCH   9  10
ENDBRANCH   8   9
ENDBRANCH   7   8
ENDBRANCH   6   7
ENDBRANCH   5   6
ENDBRANCH   4   5
ENDBRANCH   3   4
ENDBRANCH   2   3
ENDBRANCH   1   2
BRANCH   1  18
ATOM     18  C   LIG A   1      -9.470   0.133 125.944  0.00  0.00    +0.000 C 
BRANCH  18  19
ATOM     19  C   LIG A   1      -9.309   1.500 125.196  0.00  0.00    +0.006 C 
BRANCH  19  20
ATOM     20  C   LIG A   1      -9.328   1.635 123.637  0.00  0.00    +0.053 C 
BRANCH  20  27
ATOM     21  O   LIG A   1      -5.017   4.051 123.532  0.00  0.00    -0.287 OA
ATOM     22  C   LIG A   1      -6.043   3.728 122.921  0.00  0.00    +0.190 A 
ATOM     23  C   LIG A   1      -6.275   4.132 121.518  0.00  0.00    +0.045 A 
ATOM     24  C   LIG A   1      -7.512   3.792 120.937  0.00  0.00    +0.050 A 
ATOM     25  N   LIG A   1      -8.475   3.045 121.652  0.00  0.00    -0.358 N 
ATOM     26  H   LIG A   1      -9.407   2.988 121.261  0.00  0.00    +0.166 HD
ATOM     27  C   LIG A   1      -8.255   2.567 122.937  0.00  0.00    +0.020 A 
ATOM     28  C   LIG A   1      -7.104   2.890 123.578  0.00  0.00    +0.072 A 
ATOM     29  C   LIG A   1      -7.707   4.107 119.581  0.00  0.00    +0.026 A 
ATOM     30  C   LIG A   1      -6.705   4.747 118.832  0.00  0.00    +0.002 A 
ATOM     31  C   LIG A   1      -5.495   5.095 119.430  0.00  0.00    +0.001 A 
ATOM     32  C   LIG A   1      -5.283   4.797 120.779  0.00  0.00    +0.013 A 
ENDBRANCH  20  27
ENDBRANCH  19  20
ENDBRANCH  18  19
ENDBRANCH   1  18
TORSDOF 16
ENDMDL
MODEL 8
REMARK VINA RESULT:      -7.4      4.080      5.731
REMARK  Name = NuBBE_1397
REMARK  19 active torsions:
REMARK  status: ('A' for Active; 'I' for Inactive)
REMARK    1  A    between atoms: C_7  and  C_9
REMARK    2  A    between atoms: C_9  and  C_10
REMARK    3  A    between atoms: C_10  and  C_11
REMARK    4  A    between atoms: C_11  and  C_12
REMARK    5  A    between atoms: C_12  and  C_13
REMARK    6  A    between atoms: C_13  and  C_14
REMARK    7  A    between atoms: C_14  and  C_15
REMARK    8  A    between atoms: C_15  and  C_16
REMARK    9  A    between atoms: C_16  and  C_17
REMARK   10  A    between atoms: C_17  and  C_18
REMARK   11  A    between atoms: C_18  and  C_19
REMARK   12  A    between atoms: C_19  and  C_20
REMARK   13  A    between atoms: C_20  and  C_21
REMARK   14  A    between atoms: C_21  and  C_22
REMARK   15  A    between atoms: C_22  and  C_23
REMARK   16  A    between atoms: C_22  and  C_26
REMARK   17  A    between atoms: C_22  and  O_27
REMARK   18  A    between atoms: C_23  and  C_24
REMARK   19  A    between atoms: C_23  and  C_25
REMARK                            x       y       z     vdW  Elec       q    Type
REMARK                         _______ _______ _______ _____ _____    ______ ____
ROOT
ATOM      1  C   LIG A   1      -8.086   2.947 133.567  0.00  0.00    +0.000 C 
ENDROOT
BRANCH   1   2
ATOM      2  C   LIG A   1      -8.707   1.929 132.600  0.00  0.00    -0.000 C 
BRANCH   2   3
ATOM      3  C   LIG A   1     -10.049   2.273 131.930  0.00  0.00    -0.000 C 
BRANCH   3   4
ATOM      4  C   LIG A   1     -10.078   2.688 130.441  0.00  0.00    -0.000 C 
BRANCH   4   5
ATOM      5  C   LIG A   1      -8.781   3.184 129.749  0.00  0.00    -0.000 C 
BRANCH   5   6
ATOM      6  C   LIG A   1      -8.005   2.103 128.990  0.00  0.00    -0.000 C 
BRANCH   6   7
ATOM      7  C   LIG A   1      -6.571   1.823 129.457  0.00  0.00    -0.000 C 
BRANCH   7   8
ATOM      8  C   LIG A   1      -5.992   2.966 130.333  0.00  0.00    +0.000 C 
BRANCH   8   9
ATOM      9  C   LIG A   1      -5.561   4.245 129.572  0.00  0.00    +0.003 C 
BRANCH   9  10
ATOM     10  C   LIG A   1      -4.020   4.413 129.532  0.00  0.00    +0.035 C 
BRANCH  10  11
ATOM     11  C   LIG A   1      -3.428   5.232 128.336  0.00  0.00    +0.066 C 
ATOM     12  C   LIG A   1      -2.514   4.348 127.472  0.00  0.00    +0.041 C 
BRANCH  11  13
ATOM     13  C   LIG A   1      -2.654   6.507 128.851  0.00  0.00    +0.014 C 
ATOM     14  C   LIG A   1      -3.494   7.802 128.869  0.00  0.00    +0.010 C 
ATOM     15  C   LIG A   1      -2.062   6.325 130.258  0.00  0.00    +0.010 C 
ENDBRANCH  11  13
BRANCH  11  16
ATOM     16  O   LIG A   1      -4.528   5.653 127.520  0.00  0.00    -0.389 OA
ATOM     17  H   LIG A   1      -4.312   6.523 127.141  0.00  0.00    +0.210 HD
ENDBRANCH  11  16
ENDBRANCH  10  11
ENDBRANCH   9  10
ENDBRANCH   8   9
ENDBRANCH   7   8
ENDBRANCH   6   7
ENDBRANCH   5   6
ENDBRANCH   4   5
ENDBRANCH   3   4
ENDBRANCH   2   3
ENDBRANCH   1   2
BRANCH   1  18
ATOM     18  C   LIG A   1      -8.833   4.254 133.898  0.00  0.00    +0.000 C 
BRANCH  18  19
ATOM     19  C   LIG A   1      -8.338   5.694 133.531  0.00  0.00    +0.006 C 
BRANCH  19  20
ATOM     20  C   LIG A   1      -8.228   6.217 132.060  0.00  0.00    +0.053 C 
BRANCH  20  27
ATOM     21  O   LIG A   1     -13.113   6.866 131.681  0.00  0.00    -0.287 OA
ATOM     22  C   LIG A   1     -12.024   6.811 131.099  0.00  0.00    +0.190 A 
ATOM     23  C   LIG A   1     -11.908   7.014 129.638  0.00  0.00    +0.045 A 
ATOM     24  C   LIG A   1     -10.639   6.844 129.054  0.00  0.00    +0.050 A 
ATOM     25  N   LIG A   1      -9.505   6.542 129.842  0.00  0.00    -0.358 N 
ATOM     26  H   LIG A   1      -8.665   6.251 129.360  0.00  0.00    +0.166 HD
ATOM     27  C   LIG A   1      -9.557   6.438 131.225  0.00  0.00    +0.020 A 
ATOM     28  C   LIG A   1     -10.753   6.548 131.856  0.00  0.00    +0.072 A 
ATOM     29  C   LIG A   1     -10.510   7.109 127.680  0.00  0.00    +0.026 A 
ATOM     30  C   LIG A   1     -11.613   7.523 126.913  0.00  0.00    +0.002 A 
ATOM     31  C   LIG A   1     -12.866   7.665 127.505  0.00  0.00    +0.001 A 
ATOM     32  C   LIG A   1     -13.017   7.400 128.869  0.00  0.00    +0.013 A 
ENDBRANCH  20  27
ENDBRANCH  19  20
ENDBRANCH  18  19
ENDBRANCH   1  18
TORSDOF 16
ENDMDL
MODEL 9
REMARK VINA RESULT:      -7.3      1.755      2.903
REMARK  Name = NuBBE_1397
REMARK  19 active torsions:
REMARK  status: ('A' for Active; 'I' for Inactive)
REMARK    1  A    between atoms: C_7  and  C_9
REMARK    2  A    between atoms: C_9  and  C_10
REMARK    3  A    between atoms: C_10  and  C_11
REMARK    4  A    between atoms: C_11  and  C_12
REMARK    5  A    between atoms: C_12  and  C_13
REMARK    6  A    between atoms: C_13  and  C_14
REMARK    7  A    between atoms: C_14  and  C_15
REMARK    8  A    between atoms: C_15  and  C_16
REMARK    9  A    between atoms: C_16  and  C_17
REMARK   10  A    between atoms: C_17  and  C_18
REMARK   11  A    between atoms: C_18  and  C_19
REMARK   12  A    between atoms: C_19  and  C_20
REMARK   13  A    between atoms: C_20  and  C_21
REMARK   14  A    between atoms: C_21  and  C_22
REMARK   15  A    between atoms: C_22  and  C_23
REMARK   16  A    between atoms: C_22  and  C_26
REMARK   17  A    between atoms: C_22  and  O_27
REMARK   18  A    between atoms: C_23  and  C_24
REMARK   19  A    between atoms: C_23  and  C_25
REMARK                            x       y       z     vdW  Elec       q    Type
REMARK                         _______ _______ _______ _____ _____    ______ ____
ROOT
ATOM      1  C   LIG A   1      -7.946   0.399 131.835  0.00  0.00    +0.000 C 
ENDROOT
BRANCH   1   2
ATOM      2  C   LIG A   1      -7.492  -0.797 132.683  0.00  0.00    -0.000 C 
BRANCH   2   3
ATOM      3  C   LIG A   1      -7.618  -2.212 132.090  0.00  0.00    -0.000 C 
BRANCH   3   4
ATOM      4  C   LIG A   1      -6.448  -2.807 131.276  0.00  0.00    -0.000 C 
BRANCH   4   5
ATOM      5  C   LIG A   1      -6.736  -3.769 130.092  0.00  0.00    -0.000 C 
BRANCH   5   6
ATOM      6  C   LIG A   1      -7.488  -3.133 128.918  0.00  0.00    -0.000 C 
BRANCH   6   7
ATOM      7  C   LIG A   1      -6.763  -2.020 128.152  0.00  0.00    -0.000 C 
BRANCH   7   8
ATOM      8  C   LIG A   1      -7.629  -0.742 127.988  0.00  0.00    +0.000 C 
BRANCH   8   9
ATOM      9  C   LIG A   1      -7.748  -0.190 126.545  0.00  0.00    +0.003 C 
BRANCH   9  10
ATOM     10  C   LIG A   1      -8.947  -0.805 125.779  0.00  0.00    +0.035 C 
BRANCH  10  11
ATOM     11  C   LIG A   1      -8.626  -1.967 124.779  0.00  0.00    +0.066 C 
ATOM     12  C   LIG A   1      -8.940  -3.332 125.415  0.00  0.00    +0.041 C 
BRANCH  11  13
ATOM     13  C   LIG A   1      -7.125  -1.903 124.298  0.00  0.00    +0.014 C 
ATOM     14  C   LIG A   1      -6.388  -3.258 124.319  0.00  0.00    +0.010 C 
ATOM     15  C   LIG A   1      -6.971  -1.320 122.884  0.00  0.00    +0.010 C 
ENDBRANCH  11  13
BRANCH  11  16
ATOM     16  O   LIG A   1      -9.486  -1.805 123.645  0.00  0.00    -0.389 OA
ATOM     17  H   LIG A   1      -9.676  -2.685 123.276  0.00  0.00    +0.210 HD
ENDBRANCH  11  16
ENDBRANCH  10  11
ENDBRANCH   9  10
ENDBRANCH   8   9
ENDBRANCH   7   8
ENDBRANCH   6   7
ENDBRANCH   5   6
ENDBRANCH   4   5
ENDBRANCH   3   4
ENDBRANCH   2   3
ENDBRANCH   1   2
BRANCH   1  18
ATOM     18  C   LIG A   1      -8.781   1.527 132.473  0.00  0.00    +0.000 C 
BRANCH  18  19
ATOM     19  C   LIG A   1      -8.214   2.651 133.406  0.00  0.00    +0.006 C 
BRANCH  19  20
ATOM     20  C   LIG A   1      -9.042   3.905 133.842  0.00  0.00    +0.053 C 
BRANCH  20  27
ATOM     21  O   LIG A   1      -7.696   7.054 130.279  0.00  0.00    -0.287 OA
ATOM     22  C   LIG A   1      -8.620   6.568 130.942  0.00  0.00    +0.190 A 
ATOM     23  C   LIG A   1     -10.029   6.957 130.719  0.00  0.00    +0.045 A 
ATOM     24  C   LIG A   1     -11.000   6.416 131.583  0.00  0.00    +0.050 A 
ATOM     25  N   LIG A   1     -10.647   5.491 132.593  0.00  0.00    -0.358 N 
ATOM     26  H   LIG A   1     -11.343   5.279 133.296  0.00  0.00    +0.166 HD
ATOM     27  C   LIG A   1      -9.350   5.030 132.770  0.00  0.00    +0.020 A 
ATOM     28  C   LIG A   1      -8.353   5.538 132.004  0.00  0.00    +0.072 A 
ATOM     29  C   LIG A   1     -12.348   6.723 131.329  0.00  0.00    +0.026 A 
ATOM     30  C   LIG A   1     -12.714   7.550 130.252  0.00  0.00    +0.002 A 
ATOM     31  C   LIG A   1     -11.737   8.094 129.421  0.00  0.00    +0.001 A 
ATOM     32  C   LIG A   1     -10.390   7.805 129.661  0.00  0.00    +0.013 A 
ENDBRANCH  20  27
ENDBRANCH  19  20
ENDBRANCH  18  19
ENDBRANCH   1  18
TORSDOF 16
ENDMDL
