MODEL 1
REMARK VINA RESULT:      -5.6      0.000      0.000
REMARK  Name = NuBBE_1200
REMARK  3 active torsions:
REMARK  status: ('A' for Active; 'I' for Inactive)
REMARK    1  A    between atoms: O_1  and  C_2
REMARK    2  A    between atoms: C_5  and  C_6
REMARK    3  A    between atoms: C_6  and  O_7
REMARK                            x       y       z     vdW  Elec       q    Type
REMARK                         _______ _______ _______ _____ _____    ______ ____
ROOT
ATOM      1  C   LIG A   1     -11.365   7.748 127.041  0.00  0.00    +0.117 A 
ATOM      2  C   LIG A   1     -12.580   7.108 127.272  0.00  0.00    +0.046 A 
ATOM      3  C   LIG A   1     -12.983   6.851 128.585  0.00  0.00    +0.018 A 
ATOM      4  C   LIG A   1     -12.169   7.237 129.660  0.00  0.00    +0.059 A 
ATOM      5  C   LIG A   1     -10.950   7.880 129.411  0.00  0.00    +0.018 A 
ATOM      6  C   LIG A   1     -10.549   8.136 128.098  0.00  0.00    +0.046 A 
ENDROOT
BRANCH   1   7
ATOM      7  O   LIG A   1     -10.934   8.018 125.776  0.00  0.00    -0.507 OA
ATOM      8  H   LIG A   1     -11.706   8.122 125.197  0.00  0.00    +0.292 HD
ENDBRANCH   1   7
BRANCH   4   9
ATOM      9  C   LIG A   1     -12.555   6.985 131.070  0.00  0.00    +0.337 C 
ATOM     10  O   LIG A   1     -13.313   7.667 131.735  0.00  0.00    -0.245 OA
BRANCH   9  11
ATOM     11  O   LIG A   1     -11.972   5.887 131.583  0.00  0.00    -0.477 OA
ATOM     12  H   LIG A   1     -11.057   6.181 131.777  0.00  0.00    +0.295 HD
ENDBRANCH   9  11
ENDBRANCH   4   9
TORSDOF 3
ENDMDL
MODEL 2
REMARK VINA RESULT:      -5.4      1.015      4.347
REMARK  Name = NuBBE_1200
REMARK  3 active torsions:
REMARK  status: ('A' for Active; 'I' for Inactive)
REMARK    1  A    between atoms: O_1  and  C_2
REMARK    2  A    between atoms: C_5  and  C_6
REMARK    3  A    between atoms: C_6  and  O_7
REMARK                            x       y       z     vdW  Elec       q    Type
REMARK                         _______ _______ _______ _____ _____    ______ ____
ROOT
ATOM      1  C   LIG A   1     -12.570   7.213 130.309  0.00  0.00    +0.117 A 
ATOM      2  C   LIG A   1     -11.179   7.262 130.259  0.00  0.00    +0.046 A 
ATOM      3  C   LIG A   1     -10.536   7.284 129.019  0.00  0.00    +0.018 A 
ATOM      4  C   LIG A   1     -11.288   7.257 127.835  0.00  0.00    +0.059 A 
ATOM      5  C   LIG A   1     -12.686   7.207 127.902  0.00  0.00    +0.018 A 
ATOM      6  C   LIG A   1     -13.327   7.185 129.143  0.00  0.00    +0.046 A 
ENDROOT
BRANCH   1   7
ATOM      7  O   LIG A   1     -13.237   7.189 131.497  0.00  0.00    -0.507 OA
ATOM      8  H   LIG A   1     -14.161   6.937 131.333  0.00  0.00    +0.292 HD
ENDBRANCH   1   7
BRANCH   4   9
ATOM      9  C   LIG A   1     -10.649   7.279 126.497  0.00  0.00    +0.337 C 
ATOM     10  O   LIG A   1     -10.917   8.045 125.590  0.00  0.00    -0.245 OA
BRANCH   9  11
ATOM     11  O   LIG A   1      -9.701   6.335 126.355  0.00  0.00    -0.477 OA
ATOM     12  H   LIG A   1      -8.989   6.629 126.961  0.00  0.00    +0.295 HD
ENDBRANCH   9  11
ENDBRANCH   4   9
TORSDOF 3
ENDMDL
MODEL 3
REMARK VINA RESULT:      -5.4      1.865      4.482
REMARK  Name = NuBBE_1200
REMARK  3 active torsions:
REMARK  status: ('A' for Active; 'I' for Inactive)
REMARK    1  A    between atoms: O_1  and  C_2
REMARK    2  A    between atoms: C_5  and  C_6
REMARK    3  A    between atoms: C_6  and  O_7
REMARK                            x       y       z     vdW  Elec       q    Type
REMARK                         _______ _______ _______ _____ _____    ______ ____
ROOT
ATOM      1  C   LIG A   1     -10.647   6.267 131.877  0.00  0.00    +0.117 A 
ATOM      2  C   LIG A   1      -9.571   6.621 131.068  0.00  0.00    +0.046 A 
ATOM      3  C   LIG A   1      -9.798   7.372 129.911  0.00  0.00    +0.018 A 
ATOM      4  C   LIG A   1     -11.101   7.764 129.570  0.00  0.00    +0.059 A 
ATOM      5  C   LIG A   1     -12.172   7.400 130.395  0.00  0.00    +0.018 A 
ATOM      6  C   LIG A   1     -11.944   6.650 131.551  0.00  0.00    +0.046 A 
ENDROOT
BRANCH   1   7
ATOM      7  O   LIG A   1     -10.471   5.536 133.013  0.00  0.00    -0.507 OA
ATOM      8  H   LIG A   1      -9.652   5.825 133.449  0.00  0.00    +0.292 HD
ENDBRANCH   1   7
BRANCH   4   9
ATOM      9  C   LIG A   1     -11.389   8.561 128.353  0.00  0.00    +0.337 C 
ATOM     10  O   LIG A   1     -10.798   8.485 127.292  0.00  0.00    -0.245 OA
BRANCH   9  11
ATOM     11  O   LIG A   1     -12.409   9.422 128.523  0.00  0.00    -0.477 OA
ATOM     12  H   LIG A   1     -12.415   9.586 129.489  0.00  0.00    +0.295 HD
ENDBRANCH   9  11
ENDBRANCH   4   9
TORSDOF 3
ENDMDL
MODEL 4
REMARK VINA RESULT:      -5.0      2.225      2.830
REMARK  Name = NuBBE_1200
REMARK  3 active torsions:
REMARK  status: ('A' for Active; 'I' for Inactive)
REMARK    1  A    between atoms: O_1  and  C_2
REMARK    2  A    between atoms: C_5  and  C_6
REMARK    3  A    between atoms: C_6  and  O_7
REMARK                            x       y       z     vdW  Elec       q    Type
REMARK                         _______ _______ _______ _____ _____    ______ ____
ROOT
ATOM      1  C   LIG A   1     -11.802   8.316 129.247  0.00  0.00    +0.117 A 
ATOM      2  C   LIG A   1     -12.599   7.819 130.275  0.00  0.00    +0.046 A 
ATOM      3  C   LIG A   1     -12.034   6.976 131.237  0.00  0.00    +0.018 A 
ATOM      4  C   LIG A   1     -10.676   6.636 131.164  0.00  0.00    +0.059 A 
ATOM      5  C   LIG A   1      -9.888   7.144 130.124  0.00  0.00    +0.018 A 
ATOM      6  C   LIG A   1     -10.454   7.986 129.164  0.00  0.00    +0.046 A 
ENDROOT
BRANCH   1   7
ATOM      7  O   LIG A   1     -12.312   9.140 128.289  0.00  0.00    -0.507 OA
ATOM      8  H   LIG A   1     -11.625   9.312 127.625  0.00  0.00    +0.292 HD
ENDBRANCH   1   7
BRANCH   4   9
ATOM      9  C   LIG A   1     -10.034   5.745 132.161  0.00  0.00    +0.337 C 
ATOM     10  O   LIG A   1      -9.703   4.588 131.978  0.00  0.00    -0.245 OA
BRANCH   9  11
ATOM     11  O   LIG A   1      -9.836   6.347 133.348  0.00  0.00    -0.477 OA
ATOM     12  H   LIG A   1      -9.107   5.830 133.751  0.00  0.00    +0.295 HD
ENDBRANCH   9  11
ENDBRANCH   4   9
TORSDOF 3
ENDMDL
MODEL 5
REMARK VINA RESULT:      -4.8     11.951     12.770
REMARK  Name = NuBBE_1200
REMARK  3 active torsions:
REMARK  status: ('A' for Active; 'I' for Inactive)
REMARK    1  A    between atoms: O_1  and  C_2
REMARK    2  A    between atoms: C_5  and  C_6
REMARK    3  A    between atoms: C_6  and  O_7
REMARK                            x       y       z     vdW  Elec       q    Type
REMARK                         _______ _______ _______ _____ _____    ______ ____
ROOT
ATOM      1  C   LIG A   1      -5.214  -3.089 123.417  0.00  0.00    +0.117 A 
ATOM      2  C   LIG A   1      -6.054  -3.797 124.272  0.00  0.00    +0.046 A 
ATOM      3  C   LIG A   1      -7.430  -3.554 124.240  0.00  0.00    +0.018 A 
ATOM      4  C   LIG A   1      -7.957  -2.604 123.354  0.00  0.00    +0.059 A 
ATOM      5  C   LIG A   1      -7.099  -1.900 122.500  0.00  0.00    +0.018 A 
ATOM      6  C   LIG A   1      -5.724  -2.145 122.533  0.00  0.00    +0.046 A 
ENDROOT
BRANCH   1   7
ATOM      7  O   LIG A   1      -3.866  -3.294 123.415  0.00  0.00    -0.507 OA
ATOM      8  H   LIG A   1      -3.679  -4.145 122.985  0.00  0.00    +0.292 HD
ENDBRANCH   1   7
BRANCH   4   9
ATOM      9  C   LIG A   1      -9.410  -2.313 123.285  0.00  0.00    +0.337 C 
ATOM     10  O   LIG A   1      -9.912  -1.222 123.085  0.00  0.00    -0.245 OA
BRANCH   9  11
ATOM     11  O   LIG A   1     -10.171  -3.406 123.474  0.00  0.00    -0.477 OA
ATOM     12  H   LIG A   1     -10.262  -3.783 122.574  0.00  0.00    +0.295 HD
ENDBRANCH   9  11
ENDBRANCH   4   9
TORSDOF 3
ENDMDL
MODEL 6
REMARK VINA RESULT:      -4.6      2.453      4.697
REMARK  Name = NuBBE_1200
REMARK  3 active torsions:
REMARK  status: ('A' for Active; 'I' for Inactive)
REMARK    1  A    between atoms: O_1  and  C_2
REMARK    2  A    between atoms: C_5  and  C_6
REMARK    3  A    between atoms: C_6  and  O_7
REMARK                            x       y       z     vdW  Elec       q    Type
REMARK                         _______ _______ _______ _____ _____    ______ ____
ROOT
ATOM      1  C   LIG A   1      -9.727   6.135 132.483  0.00  0.00    +0.117 A 
ATOM      2  C   LIG A   1     -11.033   6.306 132.035  0.00  0.00    +0.046 A 
ATOM      3  C   LIG A   1     -11.259   6.791 130.743  0.00  0.00    +0.018 A 
ATOM      4  C   LIG A   1     -10.176   7.102 129.908  0.00  0.00    +0.059 A 
ATOM      5  C   LIG A   1      -8.867   6.923 130.374  0.00  0.00    +0.018 A 
ATOM      6  C   LIG A   1      -8.644   6.439 131.665  0.00  0.00    +0.046 A 
ENDROOT
BRANCH   1   7
ATOM      7  O   LIG A   1      -9.461   5.665 133.735  0.00  0.00    -0.507 OA
ATOM      8  H   LIG A   1      -8.595   6.000 134.018  0.00  0.00    +0.292 HD
ENDBRANCH   1   7
BRANCH   4   9
ATOM      9  C   LIG A   1     -10.367   7.618 128.531  0.00  0.00    +0.337 C 
ATOM     10  O   LIG A   1     -10.790   8.720 128.234  0.00  0.00    -0.245 OA
BRANCH   9  11
ATOM     11  O   LIG A   1     -10.019   6.727 127.586  0.00  0.00    -0.477 OA
ATOM     12  H   LIG A   1      -9.310   7.184 127.086  0.00  0.00    +0.295 HD
ENDBRANCH   9  11
ENDBRANCH   4   9
TORSDOF 3
ENDMDL
MODEL 7
REMARK VINA RESULT:      -4.4      8.733     10.690
REMARK  Name = NuBBE_1200
REMARK  3 active torsions:
REMARK  status: ('A' for Active; 'I' for Inactive)
REMARK    1  A    between atoms: O_1  and  C_2
REMARK    2  A    between atoms: C_5  and  C_6
REMARK    3  A    between atoms: C_6  and  O_7
REMARK                            x       y       z     vdW  Elec       q    Type
REMARK                         _______ _______ _______ _____ _____    ______ ____
ROOT
ATOM      1  C   LIG A   1      -7.751   2.746 122.979  0.00  0.00    +0.117 A 
ATOM      2  C   LIG A   1      -8.774   3.049 122.086  0.00  0.00    +0.046 A 
ATOM      3  C   LIG A   1      -8.463   3.650 120.862  0.00  0.00    +0.018 A 
ATOM      4  C   LIG A   1      -7.130   3.944 120.541  0.00  0.00    +0.059 A 
ATOM      5  C   LIG A   1      -6.112   3.633 121.451  0.00  0.00    +0.018 A 
ATOM      6  C   LIG A   1      -6.425   3.032 122.673  0.00  0.00    +0.046 A 
ENDROOT
BRANCH   1   7
ATOM      7  O   LIG A   1      -8.009   2.160 124.183  0.00  0.00    -0.507 OA
ATOM      8  H   LIG A   1      -8.398   2.823 124.777  0.00  0.00    +0.292 HD
ENDBRANCH   1   7
BRANCH   4   9
ATOM      9  C   LIG A   1      -6.753   4.581 119.256  0.00  0.00    +0.337 C 
ATOM     10  O   LIG A   1      -7.335   4.448 118.195  0.00  0.00    -0.245 OA
BRANCH   9  11
ATOM     11  O   LIG A   1      -5.660   5.357 119.359  0.00  0.00    -0.477 OA
ATOM     12  H   LIG A   1      -6.023   6.267 119.387  0.00  0.00    +0.295 HD
ENDBRANCH   9  11
ENDBRANCH   4   9
TORSDOF 3
ENDMDL
MODEL 8
REMARK VINA RESULT:      -4.3     10.551     11.497
REMARK  Name = NuBBE_1200
REMARK  3 active torsions:
REMARK  status: ('A' for Active; 'I' for Inactive)
REMARK    1  A    between atoms: O_1  and  C_2
REMARK    2  A    between atoms: C_5  and  C_6
REMARK    3  A    between atoms: C_6  and  O_7
REMARK                            x       y       z     vdW  Elec       q    Type
REMARK                         _______ _______ _______ _____ _____    ______ ____
ROOT
ATOM      1  C   LIG A   1      -8.025  -2.950 129.042  0.00  0.00    +0.117 A 
ATOM      2  C   LIG A   1      -7.600  -1.755 128.470  0.00  0.00    +0.046 A 
ATOM      3  C   LIG A   1      -7.910  -1.483 127.134  0.00  0.00    +0.018 A 
ATOM      4  C   LIG A   1      -8.644  -2.409 126.379  0.00  0.00    +0.059 A 
ATOM      5  C   LIG A   1      -9.065  -3.607 126.970  0.00  0.00    +0.018 A 
ATOM      6  C   LIG A   1      -8.754  -3.877 128.304  0.00  0.00    +0.046 A 
ENDROOT
BRANCH   1   7
ATOM      7  O   LIG A   1      -7.743  -3.256 130.340  0.00  0.00    -0.507 OA
ATOM      8  H   LIG A   1      -8.029  -2.519 130.904  0.00  0.00    +0.292 HD
ENDBRANCH   1   7
BRANCH   4   9
ATOM      9  C   LIG A   1      -8.997  -2.163 124.960  0.00  0.00    +0.337 C 
ATOM     10  O   LIG A   1      -8.570  -1.261 124.263  0.00  0.00    -0.245 OA
BRANCH   9  11
ATOM     11  O   LIG A   1      -9.874  -3.062 124.477  0.00  0.00    -0.477 OA
ATOM     12  H   LIG A   1      -9.304  -3.728 124.038  0.00  0.00    +0.295 HD
ENDBRANCH   9  11
ENDBRANCH   4   9
TORSDOF 3
ENDMDL
MODEL 9
REMARK VINA RESULT:      -4.3     11.180     11.957
REMARK  Name = NuBBE_1200
REMARK  3 active torsions:
REMARK  status: ('A' for Active; 'I' for Inactive)
REMARK    1  A    between atoms: O_1  and  C_2
REMARK    2  A    between atoms: C_5  and  C_6
REMARK    3  A    between atoms: C_6  and  O_7
REMARK                            x       y       z     vdW  Elec       q    Type
REMARK                         _______ _______ _______ _____ _____    ______ ____
ROOT
ATOM      1  C   LIG A   1      -7.506  -2.696 127.636  0.00  0.00    +0.117 A 
ATOM      2  C   LIG A   1      -8.760  -3.251 127.393  0.00  0.00    +0.046 A 
ATOM      3  C   LIG A   1      -9.246  -3.304 126.084  0.00  0.00    +0.018 A 
ATOM      4  C   LIG A   1      -8.476  -2.802 125.025  0.00  0.00    +0.059 A 
ATOM      5  C   LIG A   1      -7.217  -2.247 125.286  0.00  0.00    +0.018 A 
ATOM      6  C   LIG A   1      -6.732  -2.194 126.595  0.00  0.00    +0.046 A 
ENDROOT
BRANCH   1   7
ATOM      7  O   LIG A   1      -6.994  -2.624 128.897  0.00  0.00    -0.507 OA
ATOM      8  H   LIG A   1      -7.392  -3.325 129.437  0.00  0.00    +0.292 HD
ENDBRANCH   1   7
BRANCH   4   9
ATOM      9  C   LIG A   1      -8.951  -2.837 123.620  0.00  0.00    +0.337 C 
ATOM     10  O   LIG A   1      -8.371  -2.368 122.658  0.00  0.00    -0.245 OA
BRANCH   9  11
ATOM     11  O   LIG A   1     -10.136  -3.458 123.486  0.00  0.00    -0.477 OA
ATOM     12  H   LIG A   1     -10.196  -4.018 124.288  0.00  0.00    +0.295 HD
ENDBRANCH   9  11
ENDBRANCH   4   9
TORSDOF 3
ENDMDL
