MODEL 1
REMARK VINA RESULT:      -5.9      0.000      0.000
REMARK  Name = NuBBE_1649
REMARK  19 active torsions:
REMARK  status: ('A' for Active; 'I' for Inactive)
REMARK    1  A    between atoms: C_1  and  C_2
REMARK    2  A    between atoms: C_1  and  C_17
REMARK    3  A    between atoms: C_2  and  C_3
REMARK    4  A    between atoms: C_3  and  C_4
REMARK    5  A    between atoms: C_4  and  C_5
REMARK    6  A    between atoms: C_5  and  C_6
REMARK    7  A    between atoms: C_6  and  C_7
REMARK    8  A    between atoms: C_8  and  C_9
REMARK    9  A    between atoms: C_9  and  C_10
REMARK   10  A    between atoms: C_10  and  C_11
REMARK   11  A    between atoms: C_11  and  C_12
REMARK   12  A    between atoms: C_12  and  C_13
REMARK   13  A    between atoms: C_13  and  C_14
REMARK   14  A    between atoms: C_14  and  C_15
REMARK   15  A    between atoms: C_15  and  C_16
REMARK   16  A    between atoms: C_17  and  C_18
REMARK   17  A    between atoms: C_18  and  O_20
REMARK   18  A    between atoms: O_20  and  C_21
REMARK   19  A    between atoms: C_21  and  C_22
REMARK                            x       y       z     vdW  Elec       q    Type
REMARK                         _______ _______ _______ _____ _____    ______ ____
ROOT
ATOM      1  C   LIG A   1      -8.676  -2.666 127.094  0.00  0.00    +0.004 C 
ENDROOT
BRANCH   1   2
ATOM      2  C   LIG A   1      -8.629  -3.674 128.232  0.00  0.00    +0.027 C 
BRANCH   2   3
ATOM      3  C   LIG A   1      -7.945  -3.213 129.484  0.00  0.00    -0.031 C 
ATOM      4  C   LIG A   1      -6.700  -2.755 129.670  0.00  0.00    -0.031 C 
BRANCH   4   5
ATOM      5  C   LIG A   1      -5.683  -2.532 128.599  0.00  0.00    +0.027 C 
BRANCH   5   6
ATOM      6  C   LIG A   1      -5.235  -1.065 128.478  0.00  0.00    +0.004 C 
BRANCH   6   7
ATOM      7  C   LIG A   1      -5.957  -0.331 127.320  0.00  0.00    +0.000 C 
BRANCH   7   8
ATOM      8  C   LIG A   1      -5.221  -0.512 125.963  0.00  0.00    +0.000 C 
BRANCH   8   9
ATOM      9  C   LIG A   1      -5.901  -1.398 124.901  0.00  0.00    -0.000 C 
BRANCH   9  10
ATOM     10  C   LIG A   1      -5.380  -2.865 124.787  0.00  0.00    -0.000 C 
BRANCH  10  11
ATOM     11  C   LIG A   1      -4.834  -3.322 123.420  0.00  0.00    -0.003 C 
ATOM     12  C   LIG A   1      -4.210  -4.726 123.453  0.00  0.00    +0.004 C 
ENDBRANCH  10  11
ENDBRANCH   9  10
ENDBRANCH   8   9
ENDBRANCH   7   8
ENDBRANCH   6   7
ENDBRANCH   5   6
ENDBRANCH   4   5
ENDBRANCH   2   3
ENDBRANCH   1   2
BRANCH   1  13
ATOM     13  C   LIG A   1      -9.488  -3.075 125.868  0.00  0.00    +0.000 C 
BRANCH  13  14
ATOM     14  C   LIG A   1      -8.863  -3.684 124.634  0.00  0.00    +0.000 C 
BRANCH  14  15
ATOM     15  C   LIG A   1      -9.316  -3.070 123.306  0.00  0.00    +0.000 C 
BRANCH  15  16
ATOM     16  C   LIG A   1      -8.740  -1.736 122.808  0.00  0.00    +0.011 C 
BRANCH  16  17
ATOM     17  C   LIG A   1      -9.114  -0.371 123.407  0.00  0.00    +0.120 C 
BRANCH  17  18
ATOM     18  C   LIG A   1     -10.038   0.635 122.781  0.00  0.00    +0.307 C 
ATOM     19  O   LIG A   1     -11.291   0.484 122.719  0.00  0.00    -0.251 OA
BRANCH  18  20
ATOM     20  O   LIG A   1      -9.445   1.788 122.421  0.00  0.00    -0.465 OA
BRANCH  20  21
ATOM     21  C   LIG A   1      -8.224   2.073 123.129  0.00  0.00    +0.228 C 
ATOM     22  C   LIG A   1      -7.512   3.164 122.365  0.00  0.00    +0.048 C 
ENDBRANCH  20  21
ENDBRANCH  18  20
ENDBRANCH  17  18
ENDBRANCH  16  17
ENDBRANCH  15  16
ENDBRANCH  14  15
ENDBRANCH  13  14
ENDBRANCH   1  13
TORSDOF 17
ENDMDL
MODEL 2
REMARK VINA RESULT:      -5.5      1.908      5.285
REMARK  Name = NuBBE_1649
REMARK  19 active torsions:
REMARK  status: ('A' for Active; 'I' for Inactive)
REMARK    1  A    between atoms: C_1  and  C_2
REMARK    2  A    between atoms: C_1  and  C_17
REMARK    3  A    between atoms: C_2  and  C_3
REMARK    4  A    between atoms: C_3  and  C_4
REMARK    5  A    between atoms: C_4  and  C_5
REMARK    6  A    between atoms: C_5  and  C_6
REMARK    7  A    between atoms: C_6  and  C_7
REMARK    8  A    between atoms: C_8  and  C_9
REMARK    9  A    between atoms: C_9  and  C_10
REMARK   10  A    between atoms: C_10  and  C_11
REMARK   11  A    between atoms: C_11  and  C_12
REMARK   12  A    between atoms: C_12  and  C_13
REMARK   13  A    between atoms: C_13  and  C_14
REMARK   14  A    between atoms: C_14  and  C_15
REMARK   15  A    between atoms: C_15  and  C_16
REMARK   16  A    between atoms: C_17  and  C_18
REMARK   17  A    between atoms: C_18  and  O_20
REMARK   18  A    between atoms: O_20  and  C_21
REMARK   19  A    between atoms: C_21  and  C_22
REMARK                            x       y       z     vdW  Elec       q    Type
REMARK                         _______ _______ _______ _____ _____    ______ ____
ROOT
ATOM      1  C   LIG A   1      -5.499  -1.897 124.702  0.00  0.00    +0.004 C 
ENDROOT
BRANCH   1   2
ATOM      2  C   LIG A   1      -6.159  -2.651 123.558  0.00  0.00    +0.027 C 
BRANCH   2   3
ATOM      3  C   LIG A   1      -7.383  -2.011 122.974  0.00  0.00    -0.031 C 
ATOM      4  C   LIG A   1      -8.677  -2.322 123.128  0.00  0.00    -0.031 C 
BRANCH   4   5
ATOM      5  C   LIG A   1      -9.218  -3.396 124.014  0.00  0.00    +0.027 C 
BRANCH   5   6
ATOM      6  C   LIG A   1      -9.516  -2.916 125.444  0.00  0.00    +0.004 C 
BRANCH   6   7
ATOM      7  C   LIG A   1      -8.396  -3.316 126.438  0.00  0.00    +0.000 C 
BRANCH   7   8
ATOM      8  C   LIG A   1      -8.969  -3.851 127.780  0.00  0.00    +0.000 C 
BRANCH   8   9
ATOM      9  C   LIG A   1      -8.347  -3.309 129.082  0.00  0.00    -0.000 C 
BRANCH   9  10
ATOM     10  C   LIG A   1      -7.099  -2.386 128.920  0.00  0.00    -0.000 C 
BRANCH  10  11
ATOM     11  C   LIG A   1      -5.732  -2.958 129.340  0.00  0.00    -0.003 C 
ATOM     12  C   LIG A   1      -5.840  -4.202 130.234  0.00  0.00    +0.004 C 
ENDBRANCH  10  11
ENDBRANCH   9  10
ENDBRANCH   8   9
ENDBRANCH   7   8
ENDBRANCH   6   7
ENDBRANCH   5   6
ENDBRANCH   4   5
ENDBRANCH   2   3
ENDBRANCH   1   2
BRANCH   1  13
ATOM     13  C   LIG A   1      -6.145  -0.570 125.092  0.00  0.00    +0.000 C 
BRANCH  13  14
ATOM     14  C   LIG A   1      -5.839   0.141 126.390  0.00  0.00    +0.000 C 
BRANCH  14  15
ATOM     15  C   LIG A   1      -4.930   1.367 126.260  0.00  0.00    +0.000 C 
BRANCH  15  16
ATOM     16  C   LIG A   1      -5.514   2.785 126.170  0.00  0.00    +0.011 C 
BRANCH  16  17
ATOM     17  C   LIG A   1      -6.984   3.121 126.467  0.00  0.00    +0.120 C 
BRANCH  17  18
ATOM     18  C   LIG A   1      -8.078   3.239 125.445  0.00  0.00    +0.307 C 
ATOM     19  O   LIG A   1      -8.817   4.258 125.329  0.00  0.00    -0.251 OA
BRANCH  18  20
ATOM     20  O   LIG A   1      -8.119   2.231 124.553  0.00  0.00    -0.465 OA
BRANCH  20  21
ATOM     21  C   LIG A   1      -9.417   1.627 124.402  0.00  0.00    +0.228 C 
ATOM     22  C   LIG A   1      -9.632   0.730 125.598  0.00  0.00    +0.048 C 
ENDBRANCH  20  21
ENDBRANCH  18  20
ENDBRANCH  17  18
ENDBRANCH  16  17
ENDBRANCH  15  16
ENDBRANCH  14  15
ENDBRANCH  13  14
ENDBRANCH   1  13
TORSDOF 17
ENDMDL
MODEL 3
REMARK VINA RESULT:      -5.4      2.078      5.159
REMARK  Name = NuBBE_1649
REMARK  19 active torsions:
REMARK  status: ('A' for Active; 'I' for Inactive)
REMARK    1  A    between atoms: C_1  and  C_2
REMARK    2  A    between atoms: C_1  and  C_17
REMARK    3  A    between atoms: C_2  and  C_3
REMARK    4  A    between atoms: C_3  and  C_4
REMARK    5  A    between atoms: C_4  and  C_5
REMARK    6  A    between atoms: C_5  and  C_6
REMARK    7  A    between atoms: C_6  and  C_7
REMARK    8  A    between atoms: C_8  and  C_9
REMARK    9  A    between atoms: C_9  and  C_10
REMARK   10  A    between atoms: C_10  and  C_11
REMARK   11  A    between atoms: C_11  and  C_12
REMARK   12  A    between atoms: C_12  and  C_13
REMARK   13  A    between atoms: C_13  and  C_14
REMARK   14  A    between atoms: C_14  and  C_15
REMARK   15  A    between atoms: C_15  and  C_16
REMARK   16  A    between atoms: C_17  and  C_18
REMARK   17  A    between atoms: C_18  and  O_20
REMARK   18  A    between atoms: O_20  and  C_21
REMARK   19  A    between atoms: C_21  and  C_22
REMARK                            x       y       z     vdW  Elec       q    Type
REMARK                         _______ _______ _______ _____ _____    ______ ____
ROOT
ATOM      1  C   LIG A   1      -6.400  -2.035 122.535  0.00  0.00    +0.004 C 
ENDROOT
BRANCH   1   2
ATOM      2  C   LIG A   1      -7.831  -1.669 122.895  0.00  0.00    +0.027 C 
BRANCH   2   3
ATOM      3  C   LIG A   1      -8.771  -2.821 123.086  0.00  0.00    -0.031 C 
ATOM      4  C   LIG A   1      -9.399  -3.249 124.190  0.00  0.00    -0.031 C 
BRANCH   4   5
ATOM      5  C   LIG A   1      -9.346  -2.599 125.533  0.00  0.00    +0.027 C 
BRANCH   5   6
ATOM      6  C   LIG A   1      -8.838  -3.533 126.644  0.00  0.00    +0.004 C 
BRANCH   6   7
ATOM      7  C   LIG A   1      -8.172  -2.750 127.804  0.00  0.00    +0.000 C 
BRANCH   7   8
ATOM      8  C   LIG A   1      -8.460  -3.397 129.188  0.00  0.00    +0.000 C 
BRANCH   8   9
ATOM      9  C   LIG A   1      -7.373  -3.261 130.272  0.00  0.00    -0.000 C 
BRANCH   9  10
ATOM     10  C   LIG A   1      -6.000  -3.935 129.964  0.00  0.00    -0.000 C 
BRANCH  10  11
ATOM     11  C   LIG A   1      -5.485  -4.990 130.962  0.00  0.00    -0.003 C 
ATOM     12  C   LIG A   1      -5.572  -4.536 132.427  0.00  0.00    +0.004 C 
ENDBRANCH  10  11
ENDBRANCH   9  10
ENDBRANCH   8   9
ENDBRANCH   7   8
ENDBRANCH   6   7
ENDBRANCH   5   6
ENDBRANCH   4   5
ENDBRANCH   2   3
ENDBRANCH   1   2
BRANCH   1  13
ATOM     13  C   LIG A   1      -5.546  -2.597 123.669  0.00  0.00    +0.000 C 
BRANCH  13  14
ATOM     14  C   LIG A   1      -5.698  -2.158 125.107  0.00  0.00    +0.000 C 
BRANCH  14  15
ATOM     15  C   LIG A   1      -5.539  -0.653 125.346  0.00  0.00    +0.000 C 
BRANCH  15  16
ATOM     16  C   LIG A   1      -6.625   0.157 126.069  0.00  0.00    +0.011 C 
BRANCH  16  17
ATOM     17  C   LIG A   1      -7.697   0.984 125.342  0.00  0.00    +0.120 C 
BRANCH  17  18
ATOM     18  C   LIG A   1      -7.840   2.478 125.402  0.00  0.00    +0.307 C 
ATOM     19  O   LIG A   1      -8.940   3.079 125.244  0.00  0.00    -0.251 OA
BRANCH  18  20
ATOM     20  O   LIG A   1      -6.727   3.129 125.788  0.00  0.00    -0.465 OA
BRANCH  20  21
ATOM     21  C   LIG A   1      -6.487   4.361 125.082  0.00  0.00    +0.228 C 
ATOM     22  C   LIG A   1      -5.736   4.010 123.819  0.00  0.00    +0.048 C 
ENDBRANCH  20  21
ENDBRANCH  18  20
ENDBRANCH  17  18
ENDBRANCH  16  17
ENDBRANCH  15  16
ENDBRANCH  14  15
ENDBRANCH  13  14
ENDBRANCH   1  13
TORSDOF 17
ENDMDL
MODEL 4
REMARK VINA RESULT:      -5.4      2.355      4.019
REMARK  Name = NuBBE_1649
REMARK  19 active torsions:
REMARK  status: ('A' for Active; 'I' for Inactive)
REMARK    1  A    between atoms: C_1  and  C_2
REMARK    2  A    between atoms: C_1  and  C_17
REMARK    3  A    between atoms: C_2  and  C_3
REMARK    4  A    between atoms: C_3  and  C_4
REMARK    5  A    between atoms: C_4  and  C_5
REMARK    6  A    between atoms: C_5  and  C_6
REMARK    7  A    between atoms: C_6  and  C_7
REMARK    8  A    between atoms: C_8  and  C_9
REMARK    9  A    between atoms: C_9  and  C_10
REMARK   10  A    between atoms: C_10  and  C_11
REMARK   11  A    between atoms: C_11  and  C_12
REMARK   12  A    between atoms: C_12  and  C_13
REMARK   13  A    between atoms: C_13  and  C_14
REMARK   14  A    between atoms: C_14  and  C_15
REMARK   15  A    between atoms: C_15  and  C_16
REMARK   16  A    between atoms: C_17  and  C_18
REMARK   17  A    between atoms: C_18  and  O_20
REMARK   18  A    between atoms: O_20  and  C_21
REMARK   19  A    between atoms: C_21  and  C_22
REMARK                            x       y       z     vdW  Elec       q    Type
REMARK                         _______ _______ _______ _____ _____    ______ ____
ROOT
ATOM      1  C   LIG A   1      -7.128  -0.927 128.691  0.00  0.00    +0.004 C 
ENDROOT
BRANCH   1   2
ATOM      2  C   LIG A   1      -7.003  -2.399 128.333  0.00  0.00    +0.027 C 
BRANCH   2   3
ATOM      3  C   LIG A   1      -8.287  -3.171 128.284  0.00  0.00    -0.031 C 
ATOM      4  C   LIG A   1      -8.948  -3.683 127.237  0.00  0.00    -0.031 C 
BRANCH   4   5
ATOM      5  C   LIG A   1      -8.493  -3.649 125.815  0.00  0.00    +0.027 C 
BRANCH   5   6
ATOM      6  C   LIG A   1      -9.426  -2.846 124.894  0.00  0.00    +0.004 C 
BRANCH   6   7
ATOM      7  C   LIG A   1      -9.161  -3.144 123.396  0.00  0.00    +0.000 C 
BRANCH   7   8
ATOM      8  C   LIG A   1      -8.487  -1.945 122.672  0.00  0.00    +0.000 C 
BRANCH   8   9
ATOM      9  C   LIG A   1      -6.946  -1.933 122.606  0.00  0.00    -0.000 C 
BRANCH   9  10
ATOM     10  C   LIG A   1      -6.205  -1.378 123.862  0.00  0.00    -0.000 C 
BRANCH  10  11
ATOM     11  C   LIG A   1      -5.251  -2.334 124.606  0.00  0.00    -0.003 C 
ATOM     12  C   LIG A   1      -5.193  -3.739 123.988  0.00  0.00    +0.004 C 
ENDBRANCH  10  11
ENDBRANCH   9  10
ENDBRANCH   8   9
ENDBRANCH   7   8
ENDBRANCH   6   7
ENDBRANCH   5   6
ENDBRANCH   4   5
ENDBRANCH   2   3
ENDBRANCH   1   2
BRANCH   1  13
ATOM     13  C   LIG A   1      -7.355   0.030 127.524  0.00  0.00    +0.000 C 
BRANCH  13  14
ATOM     14  C   LIG A   1      -8.586   0.899 127.402  0.00  0.00    +0.000 C 
BRANCH  14  15
ATOM     15  C   LIG A   1      -9.235   0.914 126.015  0.00  0.00    +0.000 C 
BRANCH  15  16
ATOM     16  C   LIG A   1      -8.406   1.183 124.751  0.00  0.00    +0.011 C 
BRANCH  16  17
ATOM     17  C   LIG A   1      -7.651   2.497 124.491  0.00  0.00    +0.120 C 
BRANCH  17  18
ATOM     18  C   LIG A   1      -7.771   3.751 125.308  0.00  0.00    +0.307 C 
ATOM     19  O   LIG A   1      -8.840   4.417 125.407  0.00  0.00    -0.251 OA
BRANCH  18  20
ATOM     20  O   LIG A   1      -6.689   4.035 126.055  0.00  0.00    -0.465 OA
BRANCH  20  21
ATOM     21  C   LIG A   1      -5.632   3.061 125.961  0.00  0.00    +0.228 C 
ATOM     22  C   LIG A   1      -4.333   3.825 125.847  0.00  0.00    +0.048 C 
ENDBRANCH  20  21
ENDBRANCH  18  20
ENDBRANCH  17  18
ENDBRANCH  16  17
ENDBRANCH  15  16
ENDBRANCH  14  15
ENDBRANCH  13  14
ENDBRANCH   1  13
TORSDOF 17
ENDMDL
MODEL 5
REMARK VINA RESULT:      -5.3      3.776      6.884
REMARK  Name = NuBBE_1649
REMARK  19 active torsions:
REMARK  status: ('A' for Active; 'I' for Inactive)
REMARK    1  A    between atoms: C_1  and  C_2
REMARK    2  A    between atoms: C_1  and  C_17
REMARK    3  A    between atoms: C_2  and  C_3
REMARK    4  A    between atoms: C_3  and  C_4
REMARK    5  A    between atoms: C_4  and  C_5
REMARK    6  A    between atoms: C_5  and  C_6
REMARK    7  A    between atoms: C_6  and  C_7
REMARK    8  A    between atoms: C_8  and  C_9
REMARK    9  A    between atoms: C_9  and  C_10
REMARK   10  A    between atoms: C_10  and  C_11
REMARK   11  A    between atoms: C_11  and  C_12
REMARK   12  A    between atoms: C_12  and  C_13
REMARK   13  A    between atoms: C_13  and  C_14
REMARK   14  A    between atoms: C_14  and  C_15
REMARK   15  A    between atoms: C_15  and  C_16
REMARK   16  A    between atoms: C_17  and  C_18
REMARK   17  A    between atoms: C_18  and  O_20
REMARK   18  A    between atoms: O_20  and  C_21
REMARK   19  A    between atoms: C_21  and  C_22
REMARK                            x       y       z     vdW  Elec       q    Type
REMARK                         _______ _______ _______ _____ _____    ______ ____
ROOT
ATOM      1  C   LIG A   1      -9.326  -2.890 125.797  0.00  0.00    +0.004 C 
ENDROOT
BRANCH   1   2
ATOM      2  C   LIG A   1      -9.329  -3.276 124.326  0.00  0.00    +0.027 C 
BRANCH   2   3
ATOM      3  C   LIG A   1      -8.776  -2.251 123.382  0.00  0.00    -0.031 C 
ATOM      4  C   LIG A   1      -7.506  -1.948 123.081  0.00  0.00    -0.031 C 
BRANCH   4   5
ATOM      5  C   LIG A   1      -6.295  -2.647 123.605  0.00  0.00    +0.027 C 
BRANCH   5   6
ATOM      6  C   LIG A   1      -5.423  -1.761 124.512  0.00  0.00    +0.004 C 
BRANCH   6   7
ATOM      7  C   LIG A   1      -5.570  -2.139 126.008  0.00  0.00    +0.000 C 
BRANCH   7   8
ATOM      8  C   LIG A   1      -5.655  -0.884 126.922  0.00  0.00    +0.000 C 
BRANCH   8   9
ATOM      9  C   LIG A   1      -6.547   0.279 126.446  0.00  0.00    -0.000 C 
BRANCH   9  10
ATOM     10  C   LIG A   1      -8.048   0.216 126.866  0.00  0.00    -0.000 C 
BRANCH  10  11
ATOM     11  C   LIG A   1      -9.049   1.068 126.061  0.00  0.00    -0.003 C 
ATOM     12  C   LIG A   1      -8.641   1.260 124.592  0.00  0.00    +0.004 C 
ENDBRANCH  10  11
ENDBRANCH   9  10
ENDBRANCH   8   9
ENDBRANCH   7   8
ENDBRANCH   6   7
ENDBRANCH   5   6
ENDBRANCH   4   5
ENDBRANCH   2   3
ENDBRANCH   1   2
BRANCH   1  13
ATOM     13  C   LIG A   1      -8.632  -3.864 126.745  0.00  0.00    +0.000 C 
BRANCH  13  14
ATOM     14  C   LIG A   1      -8.792  -3.804 128.247  0.00  0.00    +0.000 C 
BRANCH  14  15
ATOM     15  C   LIG A   1      -7.936  -2.745 128.948  0.00  0.00    +0.000 C 
BRANCH  15  16
ATOM     16  C   LIG A   1      -7.724  -2.772 130.469  0.00  0.00    +0.011 C 
BRANCH  16  17
ATOM     17  C   LIG A   1      -6.355  -2.988 131.135  0.00  0.00    +0.120 C 
BRANCH  17  18
ATOM     18  C   LIG A   1      -5.469  -4.185 130.945  0.00  0.00    +0.307 C 
ATOM     19  O   LIG A   1      -5.875  -5.282 130.465  0.00  0.00    -0.251 OA
BRANCH  18  20
ATOM     20  O   LIG A   1      -4.165  -3.958 131.186  0.00  0.00    -0.465 OA
BRANCH  20  21
ATOM     21  C   LIG A   1      -3.574  -2.950 130.345  0.00  0.00    +0.228 C 
ATOM     22  C   LIG A   1      -3.070  -3.648 129.103  0.00  0.00    +0.048 C 
ENDBRANCH  20  21
ENDBRANCH  18  20
ENDBRANCH  17  18
ENDBRANCH  16  17
ENDBRANCH  15  16
ENDBRANCH  14  15
ENDBRANCH  13  14
ENDBRANCH   1  13
TORSDOF 17
ENDMDL
MODEL 6
REMARK VINA RESULT:      -5.2      4.132      7.280
REMARK  Name = NuBBE_1649
REMARK  19 active torsions:
REMARK  status: ('A' for Active; 'I' for Inactive)
REMARK    1  A    between atoms: C_1  and  C_2
REMARK    2  A    between atoms: C_1  and  C_17
REMARK    3  A    between atoms: C_2  and  C_3
REMARK    4  A    between atoms: C_3  and  C_4
REMARK    5  A    between atoms: C_4  and  C_5
REMARK    6  A    between atoms: C_5  and  C_6
REMARK    7  A    between atoms: C_6  and  C_7
REMARK    8  A    between atoms: C_8  and  C_9
REMARK    9  A    between atoms: C_9  and  C_10
REMARK   10  A    between atoms: C_10  and  C_11
REMARK   11  A    between atoms: C_11  and  C_12
REMARK   12  A    between atoms: C_12  and  C_13
REMARK   13  A    between atoms: C_13  and  C_14
REMARK   14  A    between atoms: C_14  and  C_15
REMARK   15  A    between atoms: C_15  and  C_16
REMARK   16  A    between atoms: C_17  and  C_18
REMARK   17  A    between atoms: C_18  and  O_20
REMARK   18  A    between atoms: O_20  and  C_21
REMARK   19  A    between atoms: C_21  and  C_22
REMARK                            x       y       z     vdW  Elec       q    Type
REMARK                         _______ _______ _______ _____ _____    ______ ____
ROOT
ATOM      1  C   LIG A   1      -7.834  -2.370 129.165  0.00  0.00    +0.004 C 
ENDROOT
BRANCH   1   2
ATOM      2  C   LIG A   1      -7.999  -2.212 127.661  0.00  0.00    +0.027 C 
BRANCH   2   3
ATOM      3  C   LIG A   1      -8.455  -3.434 126.922  0.00  0.00    -0.031 C 
ATOM      4  C   LIG A   1      -9.024  -3.552 125.714  0.00  0.00    -0.031 C 
BRANCH   4   5
ATOM      5  C   LIG A   1      -9.286  -2.433 124.760  0.00  0.00    +0.027 C 
BRANCH   5   6
ATOM      6  C   LIG A   1      -8.929  -2.776 123.304  0.00  0.00    +0.004 C 
BRANCH   6   7
ATOM      7  C   LIG A   1      -7.720  -1.953 122.793  0.00  0.00    +0.000 C 
BRANCH   7   8
ATOM      8  C   LIG A   1      -7.157  -1.001 123.885  0.00  0.00    +0.000 C 
BRANCH   8   9
ATOM      9  C   LIG A   1      -5.797  -1.367 124.511  0.00  0.00    -0.000 C 
BRANCH   9  10
ATOM     10  C   LIG A   1      -5.447  -2.887 124.566  0.00  0.00    -0.000 C 
BRANCH  10  11
ATOM     11  C   LIG A   1      -4.424  -3.419 123.545  0.00  0.00    -0.003 C 
ATOM     12  C   LIG A   1      -4.363  -4.953 123.486  0.00  0.00    +0.004 C 
ENDBRANCH  10  11
ENDBRANCH   9  10
ENDBRANCH   8   9
ENDBRANCH   7   8
ENDBRANCH   6   7
ENDBRANCH   5   6
ENDBRANCH   4   5
ENDBRANCH   2   3
ENDBRANCH   1   2
BRANCH   1  13
ATOM     13  C   LIG A   1      -7.255  -3.700 129.640  0.00  0.00    +0.000 C 
BRANCH  13  14
ATOM     14  C   LIG A   1      -5.813  -3.864 130.061  0.00  0.00    +0.000 C 
BRANCH  14  15
ATOM     15  C   LIG A   1      -5.575  -4.887 131.176  0.00  0.00    +0.000 C 
BRANCH  15  16
ATOM     16  C   LIG A   1      -5.713  -4.499 132.656  0.00  0.00    +0.011 C 
BRANCH  16  17
ATOM     17  C   LIG A   1      -6.781  -3.529 133.185  0.00  0.00    +0.120 C 
BRANCH  17  18
ATOM     18  C   LIG A   1      -6.601  -2.050 133.377  0.00  0.00    +0.307 C 
ATOM     19  O   LIG A   1      -7.009  -1.426 134.398  0.00  0.00    -0.251 OA
BRANCH  18  20
ATOM     20  O   LIG A   1      -5.835  -1.456 132.444  0.00  0.00    -0.465 OA
BRANCH  20  21
ATOM     21  C   LIG A   1      -4.543  -1.034 132.920  0.00  0.00    +0.228 C 
ATOM     22  C   LIG A   1      -3.526  -1.477 131.895  0.00  0.00    +0.048 C 
ENDBRANCH  20  21
ENDBRANCH  18  20
ENDBRANCH  17  18
ENDBRANCH  16  17
ENDBRANCH  15  16
ENDBRANCH  14  15
ENDBRANCH  13  14
ENDBRANCH   1  13
TORSDOF 17
ENDMDL
MODEL 7
REMARK VINA RESULT:      -5.2      1.552      2.257
REMARK  Name = NuBBE_1649
REMARK  19 active torsions:
REMARK  status: ('A' for Active; 'I' for Inactive)
REMARK    1  A    between atoms: C_1  and  C_2
REMARK    2  A    between atoms: C_1  and  C_17
REMARK    3  A    between atoms: C_2  and  C_3
REMARK    4  A    between atoms: C_3  and  C_4
REMARK    5  A    between atoms: C_4  and  C_5
REMARK    6  A    between atoms: C_5  and  C_6
REMARK    7  A    between atoms: C_6  and  C_7
REMARK    8  A    between atoms: C_8  and  C_9
REMARK    9  A    between atoms: C_9  and  C_10
REMARK   10  A    between atoms: C_10  and  C_11
REMARK   11  A    between atoms: C_11  and  C_12
REMARK   12  A    between atoms: C_12  and  C_13
REMARK   13  A    between atoms: C_13  and  C_14
REMARK   14  A    between atoms: C_14  and  C_15
REMARK   15  A    between atoms: C_15  and  C_16
REMARK   16  A    between atoms: C_17  and  C_18
REMARK   17  A    between atoms: C_18  and  O_20
REMARK   18  A    between atoms: O_20  and  C_21
REMARK   19  A    between atoms: C_21  and  C_22
REMARK                            x       y       z     vdW  Elec       q    Type
REMARK                         _______ _______ _______ _____ _____    ______ ____
ROOT
ATOM      1  C   LIG A   1      -9.250  -3.230 125.899  0.00  0.00    +0.004 C 
ENDROOT
BRANCH   1   2
ATOM      2  C   LIG A   1      -8.389  -3.932 126.937  0.00  0.00    +0.027 C 
BRANCH   2   3
ATOM      3  C   LIG A   1      -8.838  -3.792 128.360  0.00  0.00    -0.031 C 
ATOM      4  C   LIG A   1      -8.511  -2.877 129.283  0.00  0.00    -0.031 C 
BRANCH   4   5
ATOM      5  C   LIG A   1      -7.626  -1.695 129.065  0.00  0.00    +0.027 C 
BRANCH   5   6
ATOM      6  C   LIG A   1      -6.128  -2.040 129.087  0.00  0.00    +0.004 C 
BRANCH   6   7
ATOM      7  C   LIG A   1      -5.312  -1.152 128.115  0.00  0.00    +0.000 C 
BRANCH   7   8
ATOM      8  C   LIG A   1      -5.930  -1.125 126.689  0.00  0.00    +0.000 C 
BRANCH   8   9
ATOM      9  C   LIG A   1      -5.641  -2.328 125.769  0.00  0.00    -0.000 C 
BRANCH   9  10
ATOM     10  C   LIG A   1      -5.270  -1.993 124.290  0.00  0.00    -0.000 C 
BRANCH  10  11
ATOM     11  C   LIG A   1      -5.298  -3.149 123.271  0.00  0.00    -0.003 C 
ATOM     12  C   LIG A   1      -4.419  -4.342 123.679  0.00  0.00    +0.004 C 
ENDBRANCH  10  11
ENDBRANCH   9  10
ENDBRANCH   8   9
ENDBRANCH   7   8
ENDBRANCH   6   7
ENDBRANCH   5   6
ENDBRANCH   4   5
ENDBRANCH   2   3
ENDBRANCH   1   2
BRANCH   1  13
ATOM     13  C   LIG A   1      -8.919  -3.528 124.439  0.00  0.00    +0.000 C 
BRANCH  13  14
ATOM     14  C   LIG A   1      -9.480  -2.724 123.289  0.00  0.00    +0.000 C 
BRANCH  14  15
ATOM     15  C   LIG A   1      -8.681  -1.469 122.924  0.00  0.00    +0.000 C 
BRANCH  15  16
ATOM     16  C   LIG A   1      -8.929  -0.132 123.636  0.00  0.00    +0.011 C 
BRANCH  16  17
ATOM     17  C   LIG A   1      -8.055   1.117 123.433  0.00  0.00    +0.120 C 
BRANCH  17  18
ATOM     18  C   LIG A   1      -7.974   2.289 124.369  0.00  0.00    +0.307 C 
ATOM     19  O   LIG A   1      -8.631   3.356 124.206  0.00  0.00    -0.251 OA
BRANCH  18  20
ATOM     20  O   LIG A   1      -7.258   2.063 125.485  0.00  0.00    -0.465 OA
BRANCH  20  21
ATOM     21  C   LIG A   1      -6.256   3.060 125.758  0.00  0.00    +0.228 C 
ATOM     22  C   LIG A   1      -4.965   2.328 126.039  0.00  0.00    +0.048 C 
ENDBRANCH  20  21
ENDBRANCH  18  20
ENDBRANCH  17  18
ENDBRANCH  16  17
ENDBRANCH  15  16
ENDBRANCH  14  15
ENDBRANCH  13  14
ENDBRANCH   1  13
TORSDOF 17
ENDMDL
MODEL 8
REMARK VINA RESULT:      -5.1      3.699      6.903
REMARK  Name = NuBBE_1649
REMARK  19 active torsions:
REMARK  status: ('A' for Active; 'I' for Inactive)
REMARK    1  A    between atoms: C_1  and  C_2
REMARK    2  A    between atoms: C_1  and  C_17
REMARK    3  A    between atoms: C_2  and  C_3
REMARK    4  A    between atoms: C_3  and  C_4
REMARK    5  A    between atoms: C_4  and  C_5
REMARK    6  A    between atoms: C_5  and  C_6
REMARK    7  A    between atoms: C_6  and  C_7
REMARK    8  A    between atoms: C_8  and  C_9
REMARK    9  A    between atoms: C_9  and  C_10
REMARK   10  A    between atoms: C_10  and  C_11
REMARK   11  A    between atoms: C_11  and  C_12
REMARK   12  A    between atoms: C_12  and  C_13
REMARK   13  A    between atoms: C_13  and  C_14
REMARK   14  A    between atoms: C_14  and  C_15
REMARK   15  A    between atoms: C_15  and  C_16
REMARK   16  A    between atoms: C_17  and  C_18
REMARK   17  A    between atoms: C_18  and  O_20
REMARK   18  A    between atoms: O_20  and  C_21
REMARK   19  A    between atoms: C_21  and  C_22
REMARK                            x       y       z     vdW  Elec       q    Type
REMARK                         _______ _______ _______ _____ _____    ______ ____
ROOT
ATOM      1  C   LIG A   1      -9.050  -3.884 127.680  0.00  0.00    +0.004 C 
ENDROOT
BRANCH   1   2
ATOM      2  C   LIG A   1      -8.862  -2.982 126.471  0.00  0.00    +0.027 C 
BRANCH   2   3
ATOM      3  C   LIG A   1      -8.658  -3.681 125.160  0.00  0.00    -0.031 C 
ATOM      4  C   LIG A   1      -7.562  -3.777 124.393  0.00  0.00    -0.031 C 
BRANCH   4   5
ATOM      5  C   LIG A   1      -6.213  -3.230 124.726  0.00  0.00    +0.027 C 
BRANCH   5   6
ATOM      6  C   LIG A   1      -5.591  -2.404 123.587  0.00  0.00    +0.004 C 
BRANCH   6   7
ATOM      7  C   LIG A   1      -6.660  -1.611 122.793  0.00  0.00    +0.000 C 
BRANCH   7   8
ATOM      8  C   LIG A   1      -6.822  -0.158 123.321  0.00  0.00    +0.000 C 
BRANCH   8   9
ATOM      9  C   LIG A   1      -6.614   0.073 124.831  0.00  0.00    -0.000 C 
BRANCH   9  10
ATOM     10  C   LIG A   1      -7.874   0.509 125.644  0.00  0.00    -0.000 C 
BRANCH  10  11
ATOM     11  C   LIG A   1      -9.254   0.254 125.009  0.00  0.00    -0.003 C 
ATOM     12  C   LIG A   1      -9.916   1.527 124.459  0.00  0.00    +0.004 C 
ENDBRANCH  10  11
ENDBRANCH   9  10
ENDBRANCH   8   9
ENDBRANCH   7   8
ENDBRANCH   6   7
ENDBRANCH   5   6
ENDBRANCH   4   5
ENDBRANCH   2   3
ENDBRANCH   1   2
BRANCH   1  13
ATOM     13  C   LIG A   1      -8.104  -3.641 128.853  0.00  0.00    +0.000 C 
BRANCH  13  14
ATOM     14  C   LIG A   1      -8.045  -2.329 129.601  0.00  0.00    +0.000 C 
BRANCH  14  15
ATOM     15  C   LIG A   1      -7.119  -1.273 128.987  0.00  0.00    +0.000 C 
BRANCH  15  16
ATOM     16  C   LIG A   1      -5.842  -1.675 128.235  0.00  0.00    +0.011 C 
BRANCH  16  17
ATOM     17  C   LIG A   1      -4.443  -1.675 128.871  0.00  0.00    +0.120 C 
BRANCH  17  18
ATOM     18  C   LIG A   1      -3.914  -2.710 129.822  0.00  0.00    +0.307 C 
ATOM     19  O   LIG A   1      -2.816  -3.313 129.653  0.00  0.00    -0.251 OA
BRANCH  18  20
ATOM     20  O   LIG A   1      -4.628  -2.843 130.955  0.00  0.00    -0.465 OA
BRANCH  20  21
ATOM     21  C   LIG A   1      -4.458  -4.111 131.616  0.00  0.00    +0.228 C 
ATOM     22  C   LIG A   1      -5.486  -5.055 131.036  0.00  0.00    +0.048 C 
ENDBRANCH  20  21
ENDBRANCH  18  20
ENDBRANCH  17  18
ENDBRANCH  16  17
ENDBRANCH  15  16
ENDBRANCH  14  15
ENDBRANCH  13  14
ENDBRANCH   1  13
TORSDOF 17
ENDMDL
MODEL 9
REMARK VINA RESULT:      -5.1      2.912      4.956
REMARK  Name = NuBBE_1649
REMARK  19 active torsions:
REMARK  status: ('A' for Active; 'I' for Inactive)
REMARK    1  A    between atoms: C_1  and  C_2
REMARK    2  A    between atoms: C_1  and  C_17
REMARK    3  A    between atoms: C_2  and  C_3
REMARK    4  A    between atoms: C_3  and  C_4
REMARK    5  A    between atoms: C_4  and  C_5
REMARK    6  A    between atoms: C_5  and  C_6
REMARK    7  A    between atoms: C_6  and  C_7
REMARK    8  A    between atoms: C_8  and  C_9
REMARK    9  A    between atoms: C_9  and  C_10
REMARK   10  A    between atoms: C_10  and  C_11
REMARK   11  A    between atoms: C_11  and  C_12
REMARK   12  A    between atoms: C_12  and  C_13
REMARK   13  A    between atoms: C_13  and  C_14
REMARK   14  A    between atoms: C_14  and  C_15
REMARK   15  A    between atoms: C_15  and  C_16
REMARK   16  A    between atoms: C_17  and  C_18
REMARK   17  A    between atoms: C_18  and  O_20
REMARK   18  A    between atoms: O_20  and  C_21
REMARK   19  A    between atoms: C_21  and  C_22
REMARK                            x       y       z     vdW  Elec       q    Type
REMARK                         _______ _______ _______ _____ _____    ______ ____
ROOT
ATOM      1  C   LIG A   1      -9.429  -0.874 122.345  0.00  0.00    +0.004 C 
ENDROOT
BRANCH   1   2
ATOM      2  C   LIG A   1      -8.561  -1.986 122.913  0.00  0.00    +0.027 C 
BRANCH   2   3
ATOM      3  C   LIG A   1      -9.281  -3.041 123.696  0.00  0.00    -0.031 C 
ATOM      4  C   LIG A   1      -9.456  -3.168 125.019  0.00  0.00    -0.031 C 
BRANCH   4   5
ATOM      5  C   LIG A   1      -8.997  -2.197 126.057  0.00  0.00    +0.027 C 
BRANCH   5   6
ATOM      6  C   LIG A   1      -8.103  -2.832 127.135  0.00  0.00    +0.004 C 
BRANCH   6   7
ATOM      7  C   LIG A   1      -6.700  -2.176 127.188  0.00  0.00    +0.000 C 
BRANCH   7   8
ATOM      8  C   LIG A   1      -6.486  -1.160 126.031  0.00  0.00    +0.000 C 
BRANCH   8   9
ATOM      9  C   LIG A   1      -5.488  -1.550 124.923  0.00  0.00    -0.000 C 
BRANCH   9  10
ATOM     10  C   LIG A   1      -5.546  -3.030 124.429  0.00  0.00    -0.000 C 
BRANCH  10  11
ATOM     11  C   LIG A   1      -4.528  -3.462 123.356  0.00  0.00    -0.003 C 
ATOM     12  C   LIG A   1      -4.127  -4.942 123.457  0.00  0.00    +0.004 C 
ENDBRANCH  10  11
ENDBRANCH   9  10
ENDBRANCH   8   9
ENDBRANCH   7   8
ENDBRANCH   6   7
ENDBRANCH   5   6
ENDBRANCH   4   5
ENDBRANCH   2   3
ENDBRANCH   1   2
BRANCH   1  13
ATOM     13  C   LIG A   1      -9.727   0.291 123.284  0.00  0.00    +0.000 C 
BRANCH  13  14
ATOM     14  C   LIG A   1      -8.728   0.808 124.294  0.00  0.00    +0.000 C 
BRANCH  14  15
ATOM     15  C   LIG A   1      -7.631   1.709 123.719  0.00  0.00    +0.000 C 
BRANCH  15  16
ATOM     16  C   LIG A   1      -7.194   2.991 124.444  0.00  0.00    +0.011 C 
BRANCH  16  17
ATOM     17  C   LIG A   1      -5.727   3.425 124.595  0.00  0.00    +0.120 C 
BRANCH  17  18
ATOM     18  C   LIG A   1      -5.144   4.140 125.780  0.00  0.00    +0.307 C 
ATOM     19  O   LIG A   1      -5.558   5.262 126.189  0.00  0.00    -0.251 OA
BRANCH  18  20
ATOM     20  O   LIG A   1      -4.240   3.424 126.474  0.00  0.00    -0.465 OA
BRANCH  20  21
ATOM     21  C   LIG A   1      -3.108   4.187 126.934  0.00  0.00    +0.228 C 
ATOM     22  C   LIG A   1      -3.028   4.002 128.431  0.00  0.00    +0.048 C 
ENDBRANCH  20  21
ENDBRANCH  18  20
ENDBRANCH  17  18
ENDBRANCH  16  17
ENDBRANCH  15  16
ENDBRANCH  14  15
ENDBRANCH  13  14
ENDBRANCH   1  13
TORSDOF 17
ENDMDL
