MODEL 1
REMARK VINA RESULT:      -8.2      0.000      0.000
REMARK  Name = NuBBE_1359
REMARK  2 active torsions:
REMARK  status: ('A' for Active; 'I' for Inactive)
REMARK    1  A    between atoms: C_2  and  C_3
REMARK    2  A    between atoms: C_8  and  C_9
REMARK                            x       y       z     vdW  Elec       q    Type
REMARK                         _______ _______ _______ _____ _____    ______ ____
ROOT
ATOM      1  C   LIG A   1      -5.903  -0.369 126.069  0.00  0.00    +0.089 C 
ATOM      2  C   LIG A   1      -5.953  -0.401 124.491  0.00  0.00    +0.028 C 
ATOM      3  C   LIG A   1      -7.159   0.225 123.707  0.00  0.00    +0.062 C 
ATOM      4  C   LIG A   1      -7.199   1.763 123.708  0.00  0.00    +0.019 C 
ATOM      5  C   LIG A   1      -8.355   2.293 122.864  0.00  0.00    +0.003 C 
ATOM      6  C   LIG A   1      -9.662   1.676 123.343  0.00  0.00    +0.015 C 
ATOM      7  C   LIG A   1      -9.583   0.153 123.300  0.00  0.00    +0.085 C 
ATOM      8  N   LIG A   1      -8.454  -0.381 124.078  0.00  0.00    -0.299 NA
ATOM      9  C   LIG A   1      -8.412  -1.847 123.929  0.00  0.00    +0.089 C 
ATOM     10  C   LIG A   1      -5.910  -1.881 124.080  0.00  0.00    +0.013 C 
ATOM     11  C   LIG A   1      -7.199  -2.522 124.596  0.00  0.00    +0.021 C 
ATOM     12  C   LIG A   1      -7.181  -2.481 126.142  0.00  0.00    +0.062 C 
ATOM     13  N   LIG A   1      -6.985  -1.137 126.740  0.00  0.00    -0.292 NA
ATOM     14  C   LIG A   1      -6.729  -1.302 128.190  0.00  0.00    +0.085 C 
ATOM     15  C   LIG A   1      -7.917  -1.959 128.895  0.00  0.00    +0.015 C 
ATOM     16  C   LIG A   1      -8.299  -3.287 128.253  0.00  0.00    +0.003 C 
ATOM     17  C   LIG A   1      -8.441  -3.128 126.744  0.00  0.00    +0.019 C 
ENDROOT
BRANCH   1  25
ATOM     18  O   LIG A   1      -3.054   4.873 127.395  0.00  0.00    -0.276 OA
ATOM     19  C   LIG A   1      -3.155   3.700 127.028  0.00  0.00    +0.216 C 
ATOM     20  C   LIG A   1      -1.932   2.965 126.534  0.00  0.00    +0.110 C 
ATOM     21  N   LIG A   1      -4.367   2.999 127.057  0.00  0.00    -0.278 N 
ATOM     22  C   LIG A   1      -5.535   3.727 127.557  0.00  0.00    +0.113 C 
ATOM     23  C   LIG A   1      -6.593   2.813 128.157  0.00  0.00    +0.024 C 
ATOM     24  C   LIG A   1      -6.944   1.692 127.193  0.00  0.00    +0.035 C 
ATOM     25  C   LIG A   1      -5.709   1.045 126.616  0.00  0.00    -0.038 C 
ATOM     26  C   LIG A   1      -4.544   1.717 126.555  0.00  0.00    +0.078 C 
ENDBRANCH   1  25
TORSDOF 1
ENDMDL
MODEL 2
REMARK VINA RESULT:      -8.1      2.569      4.967
REMARK  Name = NuBBE_1359
REMARK  2 active torsions:
REMARK  status: ('A' for Active; 'I' for Inactive)
REMARK    1  A    between atoms: C_2  and  C_3
REMARK    2  A    between atoms: C_8  and  C_9
REMARK                            x       y       z     vdW  Elec       q    Type
REMARK                         _______ _______ _______ _____ _____    ______ ____
ROOT
ATOM      1  C   LIG A   1      -8.947  -2.003 125.652  0.00  0.00    +0.089 C 
ATOM      2  C   LIG A   1      -8.660  -3.218 124.685  0.00  0.00    +0.028 C 
ATOM      3  C   LIG A   1      -7.246  -3.416 124.033  0.00  0.00    +0.062 C 
ATOM      4  C   LIG A   1      -6.151  -3.889 125.004  0.00  0.00    +0.019 C 
ATOM      5  C   LIG A   1      -4.828  -4.131 124.281  0.00  0.00    +0.003 C 
ATOM      6  C   LIG A   1      -4.428  -2.876 123.517  0.00  0.00    +0.015 C 
ATOM      7  C   LIG A   1      -5.532  -2.461 122.551  0.00  0.00    +0.085 C 
ATOM      8  N   LIG A   1      -6.827  -2.257 123.220  0.00  0.00    -0.299 NA
ATOM      9  C   LIG A   1      -7.849  -1.925 122.211  0.00  0.00    +0.089 C 
ATOM     10  C   LIG A   1      -9.646  -3.089 123.513  0.00  0.00    +0.013 C 
ATOM     11  C   LIG A   1      -9.281  -1.807 122.765  0.00  0.00    +0.021 C 
ATOM     12  C   LIG A   1      -9.533  -0.604 123.704  0.00  0.00    +0.062 C 
ATOM     13  N   LIG A   1      -8.841  -0.664 125.015  0.00  0.00    -0.292 NA
ATOM     14  C   LIG A   1      -9.387   0.406 125.883  0.00  0.00    +0.085 C 
ATOM     15  C   LIG A   1      -9.137   1.792 125.285  0.00  0.00    +0.015 C 
ATOM     16  C   LIG A   1      -9.680   1.908 123.866  0.00  0.00    +0.003 C 
ATOM     17  C   LIG A   1      -9.208   0.734 123.016  0.00  0.00    +0.019 C 
ENDROOT
BRANCH   1  25
ATOM     18  O   LIG A   1      -5.103  -0.518 130.165  0.00  0.00    -0.276 OA
ATOM     19  C   LIG A   1      -5.624  -0.442 129.050  0.00  0.00    +0.216 C 
ATOM     20  C   LIG A   1      -5.202   0.656 128.103  0.00  0.00    +0.110 C 
ATOM     21  N   LIG A   1      -6.597  -1.345 128.606  0.00  0.00    -0.278 N 
ATOM     22  C   LIG A   1      -6.976  -2.412 129.535  0.00  0.00    +0.113 C 
ATOM     23  C   LIG A   1      -7.492  -3.658 128.831  0.00  0.00    +0.024 C 
ATOM     24  C   LIG A   1      -8.586  -3.300 127.838  0.00  0.00    +0.035 C 
ATOM     25  C   LIG A   1      -8.196  -2.125 126.978  0.00  0.00    -0.038 C 
ATOM     26  C   LIG A   1      -7.282  -1.232 127.404  0.00  0.00    +0.078 C 
ENDBRANCH   1  25
TORSDOF 1
ENDMDL
MODEL 3
REMARK VINA RESULT:      -8.0      1.343      2.239
REMARK  Name = NuBBE_1359
REMARK  2 active torsions:
REMARK  status: ('A' for Active; 'I' for Inactive)
REMARK    1  A    between atoms: C_2  and  C_3
REMARK    2  A    between atoms: C_8  and  C_9
REMARK                            x       y       z     vdW  Elec       q    Type
REMARK                         _______ _______ _______ _____ _____    ______ ____
ROOT
ATOM      1  C   LIG A   1      -6.138  -0.804 125.901  0.00  0.00    +0.089 C 
ATOM      2  C   LIG A   1      -6.149  -0.682 124.327  0.00  0.00    +0.028 C 
ATOM      3  C   LIG A   1      -7.306   0.071 123.582  0.00  0.00    +0.062 C 
ATOM      4  C   LIG A   1      -7.278   1.602 123.731  0.00  0.00    +0.019 C 
ATOM      5  C   LIG A   1      -8.387   2.265 122.918  0.00  0.00    +0.003 C 
ATOM      6  C   LIG A   1      -9.732   1.666 123.307  0.00  0.00    +0.015 C 
ATOM      7  C   LIG A   1      -9.720   0.152 123.119  0.00  0.00    +0.085 C 
ATOM      8  N   LIG A   1      -8.636  -0.506 123.865  0.00  0.00    -0.299 NA
ATOM      9  C   LIG A   1      -8.655  -1.951 123.576  0.00  0.00    +0.089 C 
ATOM     10  C   LIG A   1      -6.162  -2.117 123.775  0.00  0.00    +0.013 C 
ATOM     11  C   LIG A   1      -7.491  -2.743 124.200  0.00  0.00    +0.021 C 
ATOM     12  C   LIG A   1      -7.510  -2.851 125.743  0.00  0.00    +0.062 C 
ATOM     13  N   LIG A   1      -7.270  -1.581 126.472  0.00  0.00    -0.292 NA
ATOM     14  C   LIG A   1      -7.058  -1.895 127.904  0.00  0.00    +0.085 C 
ATOM     15  C   LIG A   1      -8.291  -2.561 128.518  0.00  0.00    +0.015 C 
ATOM     16  C   LIG A   1      -8.715  -3.802 127.743  0.00  0.00    +0.003 C 
ATOM     17  C   LIG A   1      -8.812  -3.493 126.253  0.00  0.00    +0.019 C 
ENDROOT
BRANCH   1  25
ATOM     18  O   LIG A   1      -7.166   3.975 129.569  0.00  0.00    -0.276 OA
ATOM     19  C   LIG A   1      -7.432   2.935 128.963  0.00  0.00    +0.216 C 
ATOM     20  C   LIG A   1      -8.779   2.280 129.159  0.00  0.00    +0.110 C 
ATOM     21  N   LIG A   1      -6.536   2.324 128.077  0.00  0.00    -0.278 N 
ATOM     22  C   LIG A   1      -5.244   2.988 127.889  0.00  0.00    +0.113 C 
ATOM     23  C   LIG A   1      -4.617   2.696 126.534  0.00  0.00    +0.024 C 
ATOM     24  C   LIG A   1      -4.575   1.199 126.272  0.00  0.00    +0.035 C 
ATOM     25  C   LIG A   1      -5.895   0.541 126.587  0.00  0.00    -0.038 C 
ATOM     26  C   LIG A   1      -6.755   1.101 127.458  0.00  0.00    +0.078 C 
ENDBRANCH   1  25
TORSDOF 1
ENDMDL
MODEL 4
REMARK VINA RESULT:      -7.8      2.049      4.406
REMARK  Name = NuBBE_1359
REMARK  2 active torsions:
REMARK  status: ('A' for Active; 'I' for Inactive)
REMARK    1  A    between atoms: C_2  and  C_3
REMARK    2  A    between atoms: C_8  and  C_9
REMARK                            x       y       z     vdW  Elec       q    Type
REMARK                         _______ _______ _______ _____ _____    ______ ____
ROOT
ATOM      1  C   LIG A   1      -8.227  -0.856 124.283  0.00  0.00    +0.089 C 
ATOM      2  C   LIG A   1      -9.063  -0.931 125.620  0.00  0.00    +0.028 C 
ATOM      3  C   LIG A   1      -8.489  -0.365 126.966  0.00  0.00    +0.062 C 
ATOM      4  C   LIG A   1      -8.438   1.170 127.048  0.00  0.00    +0.019 C 
ATOM      5  C   LIG A   1      -7.940   1.642 128.412  0.00  0.00    +0.003 C 
ATOM      6  C   LIG A   1      -6.595   0.996 128.716  0.00  0.00    +0.015 C 
ATOM      7  C   LIG A   1      -6.702  -0.524 128.648  0.00  0.00    +0.085 C 
ATOM      8  N   LIG A   1      -7.214  -1.001 127.353  0.00  0.00    -0.299 NA
ATOM      9  C   LIG A   1      -7.348  -2.468 127.395  0.00  0.00    +0.089 C 
ATOM     10  C   LIG A   1      -9.344  -2.420 125.879  0.00  0.00    +0.013 C 
ATOM     11  C   LIG A   1      -7.993  -3.087 126.141  0.00  0.00    +0.021 C 
ATOM     12  C   LIG A   1      -7.148  -3.004 124.848  0.00  0.00    +0.062 C 
ATOM     13  N   LIG A   1      -6.963  -1.639 124.296  0.00  0.00    -0.292 NA
ATOM     14  C   LIG A   1      -6.372  -1.757 122.942  0.00  0.00    +0.085 C 
ATOM     15  C   LIG A   1      -5.000  -2.433 122.990  0.00  0.00    +0.015 C 
ATOM     16  C   LIG A   1      -5.055  -3.788 123.683  0.00  0.00    +0.003 C 
ATOM     17  C   LIG A   1      -5.774  -3.674 125.022  0.00  0.00    +0.019 C 
ENDROOT
BRANCH   1  25
ATOM     18  O   LIG A   1      -5.829   4.735 123.704  0.00  0.00    -0.276 OA
ATOM     19  C   LIG A   1      -5.988   3.617 124.198  0.00  0.00    +0.216 C 
ATOM     20  C   LIG A   1      -5.113   3.178 125.348  0.00  0.00    +0.110 C 
ATOM     21  N   LIG A   1      -6.964   2.721 123.745  0.00  0.00    -0.278 N 
ATOM     22  C   LIG A   1      -7.812   3.177 122.641  0.00  0.00    +0.113 C 
ATOM     23  C   LIG A   1      -9.178   2.507 122.626  0.00  0.00    +0.024 C 
ATOM     24  C   LIG A   1      -9.037   0.996 122.699  0.00  0.00    +0.035 C 
ATOM     25  C   LIG A   1      -8.067   0.578 123.777  0.00  0.00    -0.038 C 
ATOM     26  C   LIG A   1      -7.105   1.418 124.202  0.00  0.00    +0.078 C 
ENDBRANCH   1  25
TORSDOF 1
ENDMDL
MODEL 5
REMARK VINA RESULT:      -7.7      2.465      4.956
REMARK  Name = NuBBE_1359
REMARK  2 active torsions:
REMARK  status: ('A' for Active; 'I' for Inactive)
REMARK    1  A    between atoms: C_2  and  C_3
REMARK    2  A    between atoms: C_8  and  C_9
REMARK                            x       y       z     vdW  Elec       q    Type
REMARK                         _______ _______ _______ _____ _____    ______ ____
ROOT
ATOM      1  C   LIG A   1      -8.405   1.413 126.542  0.00  0.00    +0.089 C 
ATOM      2  C   LIG A   1      -9.487   0.470 125.883  0.00  0.00    +0.028 C 
ATOM      3  C   LIG A   1      -9.090  -0.932 125.300  0.00  0.00    +0.062 C 
ATOM      4  C   LIG A   1      -8.760  -1.998 126.358  0.00  0.00    +0.019 C 
ATOM      5  C   LIG A   1      -8.459  -3.350 125.716  0.00  0.00    +0.003 C 
ATOM      6  C   LIG A   1      -7.351  -3.189 124.684  0.00  0.00    +0.015 C 
ATOM      7  C   LIG A   1      -7.734  -2.142 123.644  0.00  0.00    +0.085 C 
ATOM      8  N   LIG A   1      -8.064  -0.839 124.242  0.00  0.00    -0.299 NA
ATOM      9  C   LIG A   1      -8.486   0.092 123.180  0.00  0.00    +0.089 C 
ATOM     10  C   LIG A   1     -10.096   1.254 124.709  0.00  0.00    +0.013 C 
ATOM     11  C   LIG A   1      -8.979   1.460 123.686  0.00  0.00    +0.021 C 
ATOM     12  C   LIG A   1      -7.895   2.364 124.321  0.00  0.00    +0.062 C 
ATOM     13  N   LIG A   1      -7.345   1.886 125.613  0.00  0.00    -0.292 NA
ATOM     14  C   LIG A   1      -6.533   2.973 126.208  0.00  0.00    +0.085 C 
ATOM     15  C   LIG A   1      -5.354   3.347 125.307  0.00  0.00    +0.015 C 
ATOM     16  C   LIG A   1      -5.806   3.710 123.898  0.00  0.00    +0.003 C 
ATOM     17  C   LIG A   1      -6.739   2.639 123.344  0.00  0.00    +0.019 C 
ENDROOT
BRANCH   1  25
ATOM     18  O   LIG A   1      -5.056  -2.024 130.326  0.00  0.00    -0.276 OA
ATOM     19  C   LIG A   1      -5.531  -1.660 129.248  0.00  0.00    +0.216 C 
ATOM     20  C   LIG A   1      -5.105  -2.349 127.974  0.00  0.00    +0.110 C 
ATOM     21  N   LIG A   1      -6.471  -0.628 129.145  0.00  0.00    -0.278 N 
ATOM     22  C   LIG A   1      -6.883   0.013 130.396  0.00  0.00    +0.113 C 
ATOM     23  C   LIG A   1      -8.279   0.615 130.325  0.00  0.00    +0.024 C 
ATOM     24  C   LIG A   1      -8.415   1.515 129.107  0.00  0.00    +0.035 C 
ATOM     25  C   LIG A   1      -7.875   0.856 127.863  0.00  0.00    -0.038 C 
ATOM     26  C   LIG A   1      -6.949  -0.119 127.945  0.00  0.00    +0.078 C 
ENDBRANCH   1  25
TORSDOF 1
ENDMDL
MODEL 6
REMARK VINA RESULT:      -7.6      2.659      5.271
REMARK  Name = NuBBE_1359
REMARK  2 active torsions:
REMARK  status: ('A' for Active; 'I' for Inactive)
REMARK    1  A    between atoms: C_2  and  C_3
REMARK    2  A    between atoms: C_8  and  C_9
REMARK                            x       y       z     vdW  Elec       q    Type
REMARK                         _______ _______ _______ _____ _____    ______ ____
ROOT
ATOM      1  C   LIG A   1      -8.262   1.392 126.541  0.00  0.00    +0.089 C 
ATOM      2  C   LIG A   1      -9.373   0.447 125.936  0.00  0.00    +0.028 C 
ATOM      3  C   LIG A   1      -9.000  -0.941 125.306  0.00  0.00    +0.062 C 
ATOM      4  C   LIG A   1      -8.592  -2.020 126.324  0.00  0.00    +0.019 C 
ATOM      5  C   LIG A   1      -8.318  -3.358 125.641  0.00  0.00    +0.003 C 
ATOM      6  C   LIG A   1      -7.279  -3.168 124.544  0.00  0.00    +0.015 C 
ATOM      7  C   LIG A   1      -7.739  -2.109 123.548  0.00  0.00    +0.085 C 
ATOM      8  N   LIG A   1      -8.043  -0.819 124.188  0.00  0.00    -0.299 NA
ATOM      9  C   LIG A   1      -8.541   0.123 123.169  0.00  0.00    +0.089 C 
ATOM     10  C   LIG A   1     -10.064   1.242 124.817  0.00  0.00    +0.013 C 
ATOM     11  C   LIG A   1      -9.015   1.477 123.728  0.00  0.00    +0.021 C 
ATOM     12  C   LIG A   1      -7.904   2.384 124.308  0.00  0.00    +0.062 C 
ATOM     13  N   LIG A   1      -7.267   1.891 125.555  0.00  0.00    -0.292 NA
ATOM     14  C   LIG A   1      -6.431   2.979 126.115  0.00  0.00    +0.085 C 
ATOM     15  C   LIG A   1      -5.316   3.380 125.148  0.00  0.00    +0.015 C 
ATOM     16  C   LIG A   1      -5.859   3.760 123.776  0.00  0.00    +0.003 C 
ATOM     17  C   LIG A   1      -6.815   2.687 123.265  0.00  0.00    +0.019 C 
ENDROOT
BRANCH   1  25
ATOM     18  O   LIG A   1      -7.749  -0.056 132.456  0.00  0.00    -0.276 OA
ATOM     19  C   LIG A   1      -8.227   0.495 131.463  0.00  0.00    +0.216 C 
ATOM     20  C   LIG A   1      -9.476   1.333 131.603  0.00  0.00    +0.110 C 
ATOM     21  N   LIG A   1      -7.656   0.390 130.189  0.00  0.00    -0.278 N 
ATOM     22  C   LIG A   1      -6.435  -0.413 130.081  0.00  0.00    +0.113 C 
ATOM     23  C   LIG A   1      -5.545   0.010 128.923  0.00  0.00    +0.024 C 
ATOM     24  C   LIG A   1      -6.342   0.081 127.630  0.00  0.00    +0.035 C 
ATOM     25  C   LIG A   1      -7.643   0.820 127.816  0.00  0.00    -0.038 C 
ATOM     26  C   LIG A   1      -8.220   0.905 129.030  0.00  0.00    +0.078 C 
ENDBRANCH   1  25
TORSDOF 1
ENDMDL
MODEL 7
REMARK VINA RESULT:      -7.6      4.953      7.860
REMARK  Name = NuBBE_1359
REMARK  2 active torsions:
REMARK  status: ('A' for Active; 'I' for Inactive)
REMARK    1  A    between atoms: C_2  and  C_3
REMARK    2  A    between atoms: C_8  and  C_9
REMARK                            x       y       z     vdW  Elec       q    Type
REMARK                         _______ _______ _______ _____ _____    ______ ____
ROOT
ATOM      1  C   LIG A   1      -5.819   3.659 129.213  0.00  0.00    +0.089 C 
ATOM      2  C   LIG A   1      -4.328   3.966 129.633  0.00  0.00    +0.028 C 
ATOM      3  C   LIG A   1      -3.851   5.435 129.905  0.00  0.00    +0.062 C 
ATOM      4  C   LIG A   1      -4.379   6.051 131.212  0.00  0.00    +0.019 C 
ATOM      5  C   LIG A   1      -3.811   7.449 131.442  0.00  0.00    +0.003 C 
ATOM      6  C   LIG A   1      -4.098   8.322 130.228  0.00  0.00    +0.015 C 
ATOM      7  C   LIG A   1      -3.535   7.685 128.963  0.00  0.00    +0.085 C 
ATOM      8  N   LIG A   1      -4.041   6.321 128.739  0.00  0.00    -0.299 NA
ATOM      9  C   LIG A   1      -3.399   5.756 127.539  0.00  0.00    +0.089 C 
ATOM     10  C   LIG A   1      -3.435   3.440 128.498  0.00  0.00    +0.013 C 
ATOM     11  C   LIG A   1      -3.748   4.282 127.260  0.00  0.00    +0.021 C 
ATOM     12  C   LIG A   1      -5.214   4.013 126.845  0.00  0.00    +0.062 C 
ATOM     13  N   LIG A   1      -6.227   4.238 127.905  0.00  0.00    -0.292 NA
ATOM     14  C   LIG A   1      -7.523   3.690 127.439  0.00  0.00    +0.085 C 
ATOM     15  C   LIG A   1      -8.006   4.401 126.173  0.00  0.00    +0.015 C 
ATOM     16  C   LIG A   1      -6.964   4.360 125.063  0.00  0.00    +0.003 C 
ATOM     17  C   LIG A   1      -5.605   4.811 125.589  0.00  0.00    +0.019 C 
ENDROOT
BRANCH   1  25
ATOM     18  O   LIG A   1     -10.291   6.418 132.333  0.00  0.00    -0.276 OA
ATOM     19  C   LIG A   1      -9.442   6.286 131.449  0.00  0.00    +0.216 C 
ATOM     20  C   LIG A   1      -9.318   7.335 130.370  0.00  0.00    +0.110 C 
ATOM     21  N   LIG A   1      -8.563   5.197 131.400  0.00  0.00    -0.278 N 
ATOM     22  C   LIG A   1      -8.690   4.202 132.467  0.00  0.00    +0.113 C 
ATOM     23  C   LIG A   1      -7.393   3.454 132.740  0.00  0.00    +0.024 C 
ATOM     24  C   LIG A   1      -6.815   2.892 131.451  0.00  0.00    +0.035 C 
ATOM     25  C   LIG A   1      -6.809   3.920 130.348  0.00  0.00    -0.038 C 
ATOM     26  C   LIG A   1      -7.668   4.957 130.366  0.00  0.00    +0.078 C 
ENDBRANCH   1  25
TORSDOF 1
ENDMDL
MODEL 8
REMARK VINA RESULT:      -7.5      2.366      5.226
REMARK  Name = NuBBE_1359
REMARK  2 active torsions:
REMARK  status: ('A' for Active; 'I' for Inactive)
REMARK    1  A    between atoms: C_2  and  C_3
REMARK    2  A    between atoms: C_8  and  C_9
REMARK                            x       y       z     vdW  Elec       q    Type
REMARK                         _______ _______ _______ _____ _____    ______ ____
ROOT
ATOM      1  C   LIG A   1      -7.378  -0.465 128.701  0.00  0.00    +0.089 C 
ATOM      2  C   LIG A   1      -6.920  -0.983 130.121  0.00  0.00    +0.028 C 
ATOM      3  C   LIG A   1      -5.579  -1.777 130.298  0.00  0.00    +0.062 C 
ATOM      4  C   LIG A   1      -4.304  -0.926 130.164  0.00  0.00    +0.019 C 
ATOM      5  C   LIG A   1      -3.048  -1.753 130.423  0.00  0.00    +0.003 C 
ATOM      6  C   LIG A   1      -3.038  -2.967 129.505  0.00  0.00    +0.015 C 
ATOM      7  C   LIG A   1      -4.307  -3.792 129.692  0.00  0.00    +0.085 C 
ATOM      8  N   LIG A   1      -5.533  -3.006 129.482  0.00  0.00    -0.299 NA
ATOM      9  C   LIG A   1      -6.707  -3.858 129.746  0.00  0.00    +0.089 C 
ATOM     10  C   LIG A   1      -8.030  -1.919 130.626  0.00  0.00    +0.013 C 
ATOM     11  C   LIG A   1      -8.058  -3.122 129.682  0.00  0.00    +0.021 C 
ATOM     12  C   LIG A   1      -8.483  -2.632 128.277  0.00  0.00    +0.062 C 
ATOM     13  N   LIG A   1      -7.658  -1.536 127.710  0.00  0.00    -0.292 NA
ATOM     14  C   LIG A   1      -8.343  -1.010 126.505  0.00  0.00    +0.085 C 
ATOM     15  C   LIG A   1      -8.490  -2.089 125.431  0.00  0.00    +0.015 C 
ATOM     16  C   LIG A   1      -9.196  -3.331 125.962  0.00  0.00    +0.003 C 
ATOM     17  C   LIG A   1      -8.556  -3.790 127.268  0.00  0.00    +0.019 C 
ENDROOT
BRANCH   1  25
ATOM     18  O   LIG A   1      -4.992   5.137 128.173  0.00  0.00    -0.276 OA
ATOM     19  C   LIG A   1      -5.791   4.278 128.551  0.00  0.00    +0.216 C 
ATOM     20  C   LIG A   1      -6.902   4.657 129.501  0.00  0.00    +0.110 C 
ATOM     21  N   LIG A   1      -5.725   2.944 128.129  0.00  0.00    -0.278 N 
ATOM     22  C   LIG A   1      -4.651   2.604 127.193  0.00  0.00    +0.113 C 
ATOM     23  C   LIG A   1      -4.987   1.413 126.309  0.00  0.00    +0.024 C 
ATOM     24  C   LIG A   1      -5.456   0.236 127.149  0.00  0.00    +0.035 C 
ATOM     25  C   LIG A   1      -6.480   0.655 128.174  0.00  0.00    -0.038 C 
ATOM     26  C   LIG A   1      -6.537   1.927 128.611  0.00  0.00    +0.078 C 
ENDBRANCH   1  25
TORSDOF 1
ENDMDL
MODEL 9
REMARK VINA RESULT:      -7.2      2.007      4.572
REMARK  Name = NuBBE_1359
REMARK  2 active torsions:
REMARK  status: ('A' for Active; 'I' for Inactive)
REMARK    1  A    between atoms: C_2  and  C_3
REMARK    2  A    between atoms: C_8  and  C_9
REMARK                            x       y       z     vdW  Elec       q    Type
REMARK                         _______ _______ _______ _____ _____    ______ ____
ROOT
ATOM      1  C   LIG A   1      -8.219   2.258 126.012  0.00  0.00    +0.089 C 
ATOM      2  C   LIG A   1      -9.052   0.936 125.782  0.00  0.00    +0.028 C 
ATOM      3  C   LIG A   1      -8.348  -0.465 125.730  0.00  0.00    +0.062 C 
ATOM      4  C   LIG A   1      -7.845  -0.982 127.089  0.00  0.00    +0.019 C 
ATOM      5  C   LIG A   1      -7.242  -2.379 126.967  0.00  0.00    +0.003 C 
ATOM      6  C   LIG A   1      -6.152  -2.374 125.904  0.00  0.00    +0.015 C 
ATOM      7  C   LIG A   1      -6.704  -1.879 124.572  0.00  0.00    +0.085 C 
ATOM      8  N   LIG A   1      -7.323  -0.548 124.671  0.00  0.00    -0.299 NA
ATOM      9  C   LIG A   1      -7.887  -0.176 123.361  0.00  0.00    +0.089 C 
ATOM     10  C   LIG A   1      -9.765   1.096 124.429  0.00  0.00    +0.013 C 
ATOM     11  C   LIG A   1      -8.675   1.147 123.357  0.00  0.00    +0.021 C 
ATOM     12  C   LIG A   1      -7.832   2.425 123.579  0.00  0.00    +0.062 C 
ATOM     13  N   LIG A   1      -7.245   2.573 124.934  0.00  0.00    -0.292 NA
ATOM     14  C   LIG A   1      -6.703   3.946 125.063  0.00  0.00    +0.085 C 
ATOM     15  C   LIG A   1      -5.594   4.206 124.042  0.00  0.00    +0.015 C 
ATOM     16  C   LIG A   1      -6.055   3.932 122.616  0.00  0.00    +0.003 C 
ATOM     17  C   LIG A   1      -6.720   2.563 122.524  0.00  0.00    +0.019 C 
ENDROOT
BRANCH   1  25
ATOM     18  O   LIG A   1      -4.015   2.923 130.397  0.00  0.00    -0.276 OA
ATOM     19  C   LIG A   1      -4.440   2.769 129.250  0.00  0.00    +0.216 C 
ATOM     20  C   LIG A   1      -3.472   2.745 128.092  0.00  0.00    +0.110 C 
ATOM     21  N   LIG A   1      -5.800   2.601 128.963  0.00  0.00    -0.278 N 
ATOM     22  C   LIG A   1      -6.718   2.609 130.105  0.00  0.00    +0.113 C 
ATOM     23  C   LIG A   1      -7.993   1.819 129.849  0.00  0.00    +0.024 C 
ATOM     24  C   LIG A   1      -8.642   2.254 128.544  0.00  0.00    +0.035 C 
ATOM     25  C   LIG A   1      -7.637   2.340 127.423  0.00  0.00    -0.038 C 
ATOM     26  C   LIG A   1      -6.329   2.531 127.682  0.00  0.00    +0.078 C 
ENDBRANCH   1  25
TORSDOF 1
ENDMDL
