MODEL 1
REMARK VINA RESULT:      -7.2      0.000      0.000
REMARK  Name = NuBBE_7
REMARK  5 active torsions:
REMARK  status: ('A' for Active; 'I' for Inactive)
REMARK    1  A    between atoms: C_1  and  C_2
REMARK    2  A    between atoms: C_4  and  O_5
REMARK    3  A    between atoms: C_9  and  O_11
REMARK    4  A    between atoms: C_20  and  O_22
REMARK    5  A    between atoms: C_23  and  O_25
REMARK                            x       y       z     vdW  Elec       q    Type
REMARK                         _______ _______ _______ _____ _____    ______ ____
ROOT
ATOM      1  C   LIG A   1     -11.049   8.657 128.037  0.00  0.00    +0.044 C 
ATOM      2  C   LIG A   1     -10.661   7.898 129.267  0.00  0.00    -0.046 A 
ATOM      3  C   LIG A   1     -11.632   7.267 130.048  0.00  0.00    +0.049 A 
ATOM      4  C   LIG A   1     -11.251   6.539 131.172  0.00  0.00    +0.123 A 
ATOM      5  C   LIG A   1      -9.314   7.789 129.634  0.00  0.00    +0.015 A 
ATOM      6  C   LIG A   1      -8.941   7.033 130.758  0.00  0.00    +0.027 A 
ATOM      7  C   LIG A   1      -9.906   6.413 131.550  0.00  0.00    +0.033 A 
ATOM      8  C   LIG A   1      -9.535   5.543 132.725  0.00  0.00    +0.155 C 
ATOM      9  C   LIG A   1      -8.082   5.721 133.214  0.00  0.00    +0.064 C 
ATOM     10  C   LIG A   1      -7.083   5.790 132.055  0.00  0.00    +0.069 C 
ATOM     11  C   LIG A   1      -7.493   6.849 131.048  0.00  0.00    +0.167 C 
ATOM     12  O   LIG A   1      -6.656   7.494 130.425  0.00  0.00    -0.292 OA
ATOM     13  C   LIG A   1      -6.872   4.450 131.351  0.00  0.00    +0.014 C 
ATOM     14  C   LIG A   1      -6.496   3.335 132.324  0.00  0.00    +0.034 C 
ATOM     15  C   LIG A   1      -7.399   3.246 133.555  0.00  0.00    +0.143 C 
ATOM     16  C   LIG A   1      -7.632   4.630 134.209  0.00  0.00    +0.149 C 
ENDROOT
BRANCH   4  17
ATOM     17  O   LIG A   1     -12.197   5.874 131.903  0.00  0.00    -0.506 OA
ATOM     18  H   LIG A   1     -13.076   6.247 131.716  0.00  0.00    +0.292 HD
ENDBRANCH   4  17
BRANCH   8  19
ATOM     19  O   LIG A   1      -9.767   4.182 132.363  0.00  0.00    -0.387 OA
ATOM     20  H   LIG A   1      -9.056   3.896 131.765  0.00  0.00    +0.210 HD
ENDBRANCH   8  19
BRANCH  15  21
ATOM     21  O   LIG A   1      -6.788   2.361 134.501  0.00  0.00    -0.389 OA
ATOM     22  H   LIG A   1      -6.079   2.861 134.940  0.00  0.00    +0.210 HD
ENDBRANCH  15  21
BRANCH  16  23
ATOM     23  O   LIG A   1      -8.583   4.557 135.278  0.00  0.00    -0.389 OA
ATOM     24  H   LIG A   1      -8.877   5.466 135.465  0.00  0.00    +0.210 HD
ENDBRANCH  16  23
TORSDOF 4
ENDMDL
MODEL 2
REMARK VINA RESULT:      -7.2      2.025      3.540
REMARK  Name = NuBBE_7
REMARK  5 active torsions:
REMARK  status: ('A' for Active; 'I' for Inactive)
REMARK    1  A    between atoms: C_1  and  C_2
REMARK    2  A    between atoms: C_4  and  O_5
REMARK    3  A    between atoms: C_9  and  O_11
REMARK    4  A    between atoms: C_20  and  O_22
REMARK    5  A    between atoms: C_23  and  O_25
REMARK                            x       y       z     vdW  Elec       q    Type
REMARK                         _______ _______ _______ _____ _____    ______ ____
ROOT
ATOM      1  C   LIG A   1     -13.336   9.889 128.740  0.00  0.00    +0.044 C 
ATOM      2  C   LIG A   1     -12.434   8.704 128.892  0.00  0.00    -0.046 A 
ATOM      3  C   LIG A   1     -11.643   8.273 127.824  0.00  0.00    +0.049 A 
ATOM      4  C   LIG A   1     -10.787   7.188 127.992  0.00  0.00    +0.123 A 
ATOM      5  C   LIG A   1     -12.355   8.029 130.116  0.00  0.00    +0.015 A 
ATOM      6  C   LIG A   1     -11.471   6.948 130.278  0.00  0.00    +0.027 A 
ATOM      7  C   LIG A   1     -10.689   6.505 129.214  0.00  0.00    +0.033 A 
ATOM      8  C   LIG A   1      -9.685   5.390 129.371  0.00  0.00    +0.155 C 
ATOM      9  C   LIG A   1      -9.878   4.536 130.643  0.00  0.00    +0.064 C 
ATOM     10  C   LIG A   1     -10.171   5.392 131.878  0.00  0.00    +0.069 C 
ATOM     11  C   LIG A   1     -11.335   6.332 131.625  0.00  0.00    +0.167 C 
ATOM     12  O   LIG A   1     -12.110   6.643 132.524  0.00  0.00    -0.292 OA
ATOM     13  C   LIG A   1      -8.959   6.180 132.375  0.00  0.00    +0.014 C 
ATOM     14  C   LIG A   1      -7.741   5.288 132.609  0.00  0.00    +0.034 C 
ATOM     15  C   LIG A   1      -7.425   4.342 131.450  0.00  0.00    +0.143 C 
ATOM     16  C   LIG A   1      -8.687   3.602 130.941  0.00  0.00    +0.149 C 
ENDROOT
BRANCH   4  17
ATOM     17  O   LIG A   1      -9.970   6.803 126.964  0.00  0.00    -0.506 OA
ATOM     18  H   LIG A   1      -9.825   7.554 126.363  0.00  0.00    +0.292 HD
ENDBRANCH   4  17
BRANCH   8  19
ATOM     19  O   LIG A   1      -8.378   5.962 129.360  0.00  0.00    -0.387 OA
ATOM     20  H   LIG A   1      -7.790   5.402 129.896  0.00  0.00    +0.210 HD
ENDBRANCH   8  19
BRANCH  15  21
ATOM     21  O   LIG A   1      -6.454   3.390 131.897  0.00  0.00    -0.389 OA
ATOM     22  H   LIG A   1      -6.546   2.604 131.331  0.00  0.00    +0.210 HD
ENDBRANCH  15  21
BRANCH  16  23
ATOM     23  O   LIG A   1      -8.406   2.821 129.773  0.00  0.00    -0.389 OA
ATOM     24  H   LIG A   1      -8.023   1.979 130.075  0.00  0.00    +0.210 HD
ENDBRANCH  16  23
TORSDOF 4
ENDMDL
MODEL 3
REMARK VINA RESULT:      -7.1      9.037     11.209
REMARK  Name = NuBBE_7
REMARK  5 active torsions:
REMARK  status: ('A' for Active; 'I' for Inactive)
REMARK    1  A    between atoms: C_1  and  C_2
REMARK    2  A    between atoms: C_4  and  O_5
REMARK    3  A    between atoms: C_9  and  O_11
REMARK    4  A    between atoms: C_20  and  O_22
REMARK    5  A    between atoms: C_23  and  O_25
REMARK                            x       y       z     vdW  Elec       q    Type
REMARK                         _______ _______ _______ _____ _____    ______ ____
ROOT
ATOM      1  C   LIG A   1      -5.506  -4.517 131.297  0.00  0.00    +0.044 C 
ATOM      2  C   LIG A   1      -5.942  -3.665 130.146  0.00  0.00    -0.046 A 
ATOM      3  C   LIG A   1      -5.117  -2.644 129.666  0.00  0.00    +0.049 A 
ATOM      4  C   LIG A   1      -5.525  -1.882 128.575  0.00  0.00    +0.123 A 
ATOM      5  C   LIG A   1      -7.172  -3.901 129.519  0.00  0.00    +0.015 A 
ATOM      6  C   LIG A   1      -7.561  -3.137 128.405  0.00  0.00    +0.027 A 
ATOM      7  C   LIG A   1      -6.750  -2.109 127.930  0.00  0.00    +0.033 A 
ATOM      8  C   LIG A   1      -7.109  -1.314 126.699  0.00  0.00    +0.155 C 
ATOM      9  C   LIG A   1      -8.585  -1.445 126.266  0.00  0.00    +0.064 C 
ATOM     10  C   LIG A   1      -9.083  -2.891 126.332  0.00  0.00    +0.069 C 
ATOM     11  C   LIG A   1      -8.822  -3.494 127.700  0.00  0.00    +0.167 C 
ATOM     12  O   LIG A   1      -9.589  -4.315 128.192  0.00  0.00    -0.292 OA
ATOM     13  C   LIG A   1      -8.497  -3.789 125.243  0.00  0.00    +0.014 C 
ATOM     14  C   LIG A   1      -8.695  -3.211 123.843  0.00  0.00    +0.034 C 
ATOM     15  C   LIG A   1      -8.295  -1.741 123.709  0.00  0.00    +0.143 C 
ATOM     16  C   LIG A   1      -8.863  -0.874 124.860  0.00  0.00    +0.149 C 
ENDROOT
BRANCH   4  17
ATOM     17  O   LIG A   1      -4.692  -0.921 128.070  0.00  0.00    -0.506 OA
ATOM     18  H   LIG A   1      -4.414  -0.321 128.783  0.00  0.00    +0.292 HD
ENDBRANCH   4  17
BRANCH   8  19
ATOM     19  O   LIG A   1      -6.249  -1.723 125.637  0.00  0.00    -0.387 OA
ATOM     20  H   LIG A   1      -5.473  -2.168 126.021  0.00  0.00    +0.210 HD
ENDBRANCH   8  19
BRANCH  15  21
ATOM     21  O   LIG A   1      -8.777  -1.254 122.453  0.00  0.00    -0.389 OA
ATOM     22  H   LIG A   1      -8.184  -1.604 121.766  0.00  0.00    +0.210 HD
ENDBRANCH  15  21
BRANCH  16  23
ATOM     23  O   LIG A   1      -8.375   0.471 124.799  0.00  0.00    -0.389 OA
ATOM     24  H   LIG A   1      -7.752   0.585 125.539  0.00  0.00    +0.210 HD
ENDBRANCH  16  23
TORSDOF 4
ENDMDL
MODEL 4
REMARK VINA RESULT:      -7.0      1.869      2.257
REMARK  Name = NuBBE_7
REMARK  5 active torsions:
REMARK  status: ('A' for Active; 'I' for Inactive)
REMARK    1  A    between atoms: C_1  and  C_2
REMARK    2  A    between atoms: C_4  and  O_5
REMARK    3  A    between atoms: C_9  and  O_11
REMARK    4  A    between atoms: C_20  and  O_22
REMARK    5  A    between atoms: C_23  and  O_25
REMARK                            x       y       z     vdW  Elec       q    Type
REMARK                         _______ _______ _______ _____ _____    ______ ____
ROOT
ATOM      1  C   LIG A   1     -13.516   7.572 127.050  0.00  0.00    +0.044 C 
ATOM      2  C   LIG A   1     -12.742   7.339 128.309  0.00  0.00    -0.046 A 
ATOM      3  C   LIG A   1     -13.292   7.667 129.551  0.00  0.00    +0.049 A 
ATOM      4  C   LIG A   1     -12.570   7.415 130.715  0.00  0.00    +0.123 A 
ATOM      5  C   LIG A   1     -11.466   6.765 128.257  0.00  0.00    +0.015 A 
ATOM      6  C   LIG A   1     -10.757   6.496 129.441  0.00  0.00    +0.027 A 
ATOM      7  C   LIG A   1     -11.293   6.833 130.683  0.00  0.00    +0.033 A 
ATOM      8  C   LIG A   1     -10.587   6.501 131.973  0.00  0.00    +0.155 C 
ATOM      9  C   LIG A   1      -9.094   6.147 131.808  0.00  0.00    +0.064 C 
ATOM     10  C   LIG A   1      -8.846   5.216 130.618  0.00  0.00    +0.069 C 
ATOM     11  C   LIG A   1      -9.454   5.783 129.349  0.00  0.00    +0.167 C 
ATOM     12  O   LIG A   1      -8.932   5.600 128.254  0.00  0.00    -0.292 OA
ATOM     13  C   LIG A   1      -9.343   3.789 130.845  0.00  0.00    +0.014 C 
ATOM     14  C   LIG A   1      -8.794   3.180 132.134  0.00  0.00    +0.034 C 
ATOM     15  C   LIG A   1      -8.930   4.081 133.361  0.00  0.00    +0.143 C 
ATOM     16  C   LIG A   1      -8.466   5.531 133.076  0.00  0.00    +0.149 C 
ENDROOT
BRANCH   4  17
ATOM     17  O   LIG A   1     -13.132   7.682 131.933  0.00  0.00    -0.506 OA
ATOM     18  H   LIG A   1     -12.693   7.150 132.620  0.00  0.00    +0.292 HD
ENDBRANCH   4  17
BRANCH   8  19
ATOM     19  O   LIG A   1     -11.280   5.420 132.596  0.00  0.00    -0.387 OA
ATOM     20  H   LIG A   1     -10.629   4.749 132.866  0.00  0.00    +0.210 HD
ENDBRANCH   8  19
BRANCH  15  21
ATOM     21  O   LIG A   1      -8.147   3.522 134.421  0.00  0.00    -0.389 OA
ATOM     22  H   LIG A   1      -8.205   2.555 134.339  0.00  0.00    +0.210 HD
ENDBRANCH  15  21
BRANCH  16  23
ATOM     23  O   LIG A   1      -8.721   6.396 134.188  0.00  0.00    -0.389 OA
ATOM     24  H   LIG A   1      -9.686   6.496 134.260  0.00  0.00    +0.210 HD
ENDBRANCH  16  23
TORSDOF 4
ENDMDL
MODEL 5
REMARK VINA RESULT:      -7.0      8.548     10.278
REMARK  Name = NuBBE_7
REMARK  5 active torsions:
REMARK  status: ('A' for Active; 'I' for Inactive)
REMARK    1  A    between atoms: C_1  and  C_2
REMARK    2  A    between atoms: C_4  and  O_5
REMARK    3  A    between atoms: C_9  and  O_11
REMARK    4  A    between atoms: C_20  and  O_22
REMARK    5  A    between atoms: C_23  and  O_25
REMARK                            x       y       z     vdW  Elec       q    Type
REMARK                         _______ _______ _______ _____ _____    ______ ____
ROOT
ATOM      1  C   LIG A   1      -7.871  -4.607 124.712  0.00  0.00    +0.044 C 
ATOM      2  C   LIG A   1      -7.962  -3.150 124.384  0.00  0.00    -0.046 A 
ATOM      3  C   LIG A   1      -9.016  -2.662 123.608  0.00  0.00    +0.049 A 
ATOM      4  C   LIG A   1      -9.103  -1.298 123.337  0.00  0.00    +0.123 A 
ATOM      5  C   LIG A   1      -7.004  -2.254 124.874  0.00  0.00    +0.015 A 
ATOM      6  C   LIG A   1      -7.115  -0.878 124.611  0.00  0.00    +0.027 A 
ATOM      7  C   LIG A   1      -8.156  -0.386 123.826  0.00  0.00    +0.033 A 
ATOM      8  C   LIG A   1      -8.340   1.091 123.579  0.00  0.00    +0.155 C 
ATOM      9  C   LIG A   1      -7.098   1.949 123.904  0.00  0.00    +0.064 C 
ATOM     10  C   LIG A   1      -6.439   1.539 125.224  0.00  0.00    +0.069 C 
ATOM     11  C   LIG A   1      -6.140   0.052 125.244  0.00  0.00    +0.167 C 
ATOM     12  O   LIG A   1      -5.159  -0.394 125.830  0.00  0.00    -0.292 OA
ATOM     13  C   LIG A   1      -7.252   1.927 126.459  0.00  0.00    +0.014 C 
ATOM     14  C   LIG A   1      -7.617   3.410 126.472  0.00  0.00    +0.034 C 
ATOM     15  C   LIG A   1      -8.212   3.922 125.159  0.00  0.00    +0.143 C 
ATOM     16  C   LIG A   1      -7.390   3.464 123.929  0.00  0.00    +0.149 C 
ENDROOT
BRANCH   4  17
ATOM     17  O   LIG A   1     -10.166  -0.814 122.626  0.00  0.00    -0.506 OA
ATOM     18  H   LIG A   1     -10.996  -1.056 123.073  0.00  0.00    +0.292 HD
ENDBRANCH   4  17
BRANCH   8  19
ATOM     19  O   LIG A   1      -9.457   1.536 124.346  0.00  0.00    -0.387 OA
ATOM     20  H   LIG A   1     -10.173   1.783 123.735  0.00  0.00    +0.210 HD
ENDBRANCH   8  19
BRANCH  15  21
ATOM     21  O   LIG A   1      -8.252   5.352 125.208  0.00  0.00    -0.389 OA
ATOM     22  H   LIG A   1      -7.339   5.658 125.338  0.00  0.00    +0.210 HD
ENDBRANCH  15  21
BRANCH  16  23
ATOM     23  O   LIG A   1      -8.026   3.835 122.700  0.00  0.00    -0.389 OA
ATOM     24  H   LIG A   1      -8.938   4.095 122.916  0.00  0.00    +0.210 HD
ENDBRANCH  16  23
TORSDOF 4
ENDMDL
MODEL 6
REMARK VINA RESULT:      -6.7      7.861      9.521
REMARK  Name = NuBBE_7
REMARK  5 active torsions:
REMARK  status: ('A' for Active; 'I' for Inactive)
REMARK    1  A    between atoms: C_1  and  C_2
REMARK    2  A    between atoms: C_4  and  O_5
REMARK    3  A    between atoms: C_9  and  O_11
REMARK    4  A    between atoms: C_20  and  O_22
REMARK    5  A    between atoms: C_23  and  O_25
REMARK                            x       y       z     vdW  Elec       q    Type
REMARK                         _______ _______ _______ _____ _____    ______ ____
ROOT
ATOM      1  C   LIG A   1      -2.273   3.480 126.770  0.00  0.00    +0.044 C 
ATOM      2  C   LIG A   1      -3.667   3.240 126.281  0.00  0.00    -0.046 A 
ATOM      3  C   LIG A   1      -4.333   4.213 125.532  0.00  0.00    +0.049 A 
ATOM      4  C   LIG A   1      -5.618   3.962 125.058  0.00  0.00    +0.123 A 
ATOM      5  C   LIG A   1      -4.309   2.024 126.546  0.00  0.00    +0.015 A 
ATOM      6  C   LIG A   1      -5.598   1.775 126.043  0.00  0.00    +0.027 A 
ATOM      7  C   LIG A   1      -6.274   2.746 125.307  0.00  0.00    +0.033 A 
ATOM      8  C   LIG A   1      -7.630   2.487 124.700  0.00  0.00    +0.155 C 
ATOM      9  C   LIG A   1      -8.363   1.259 125.282  0.00  0.00    +0.064 C 
ATOM     10  C   LIG A   1      -7.433   0.055 125.453  0.00  0.00    +0.069 C 
ATOM     11  C   LIG A   1      -6.199   0.429 126.252  0.00  0.00    +0.167 C 
ATOM     12  O   LIG A   1      -5.655  -0.376 127.001  0.00  0.00    -0.292 OA
ATOM     13  C   LIG A   1      -7.025  -0.592 124.129  0.00  0.00    +0.014 C 
ATOM     14  C   LIG A   1      -8.229  -0.955 123.263  0.00  0.00    +0.034 C 
ATOM     15  C   LIG A   1      -9.251   0.172 123.106  0.00  0.00    +0.143 C 
ATOM     16  C   LIG A   1      -9.599   0.837 124.461  0.00  0.00    +0.149 C 
ENDROOT
BRANCH   4  17
ATOM     17  O   LIG A   1      -6.247   4.891 124.276  0.00  0.00    -0.506 OA
ATOM     18  H   LIG A   1      -6.815   5.454 124.830  0.00  0.00    +0.292 HD
ENDBRANCH   4  17
BRANCH   8  19
ATOM     19  O   LIG A   1      -7.467   2.337 123.291  0.00  0.00    -0.387 OA
ATOM     20  H   LIG A   1      -7.160   3.183 122.923  0.00  0.00    +0.210 HD
ENDBRANCH   8  19
BRANCH  15  21
ATOM     21  O   LIG A   1     -10.436  -0.372 122.516  0.00  0.00    -0.389 OA
ATOM     22  H   LIG A   1     -11.175  -0.157 123.111  0.00  0.00    +0.210 HD
ENDBRANCH  15  21
BRANCH  16  23
ATOM     23  O   LIG A   1     -10.453   1.974 124.288  0.00  0.00    -0.389 OA
ATOM     24  H   LIG A   1     -10.745   2.252 125.174  0.00  0.00    +0.210 HD
ENDBRANCH  16  23
TORSDOF 4
ENDMDL
MODEL 7
REMARK VINA RESULT:      -6.7      8.020      9.535
REMARK  Name = NuBBE_7
REMARK  5 active torsions:
REMARK  status: ('A' for Active; 'I' for Inactive)
REMARK    1  A    between atoms: C_1  and  C_2
REMARK    2  A    between atoms: C_4  and  O_5
REMARK    3  A    between atoms: C_9  and  O_11
REMARK    4  A    between atoms: C_20  and  O_22
REMARK    5  A    between atoms: C_23  and  O_25
REMARK                            x       y       z     vdW  Elec       q    Type
REMARK                         _______ _______ _______ _____ _____    ______ ____
ROOT
ATOM      1  C   LIG A   1      -7.539   4.463 118.417  0.00  0.00    +0.044 C 
ATOM      2  C   LIG A   1      -6.989   4.239 119.790  0.00  0.00    -0.046 A 
ATOM      3  C   LIG A   1      -5.715   4.702 120.128  0.00  0.00    +0.049 A 
ATOM      4  C   LIG A   1      -5.230   4.511 121.420  0.00  0.00    +0.123 A 
ATOM      5  C   LIG A   1      -7.758   3.584 120.760  0.00  0.00    +0.015 A 
ATOM      6  C   LIG A   1      -7.264   3.417 122.066  0.00  0.00    +0.027 A 
ATOM      7  C   LIG A   1      -5.989   3.864 122.407  0.00  0.00    +0.033 A 
ATOM      8  C   LIG A   1      -5.456   3.758 123.814  0.00  0.00    +0.155 C 
ATOM      9  C   LIG A   1      -6.238   2.780 124.717  0.00  0.00    +0.064 C 
ATOM     10  C   LIG A   1      -7.753   2.924 124.555  0.00  0.00    +0.069 C 
ATOM     11  C   LIG A   1      -8.156   2.817 123.096  0.00  0.00    +0.167 C 
ATOM     12  O   LIG A   1      -9.226   2.316 122.764  0.00  0.00    -0.292 OA
ATOM     13  C   LIG A   1      -8.312   4.212 125.160  0.00  0.00    +0.014 C 
ATOM     14  C   LIG A   1      -7.904   4.393 126.620  0.00  0.00    +0.034 C 
ATOM     15  C   LIG A   1      -6.412   4.187 126.885  0.00  0.00    +0.143 C 
ATOM     16  C   LIG A   1      -5.872   2.901 126.211  0.00  0.00    +0.149 C 
ENDROOT
BRANCH   4  17
ATOM     17  O   LIG A   1      -4.007   5.015 121.767  0.00  0.00    -0.506 OA
ATOM     18  H   LIG A   1      -3.545   5.330 120.970  0.00  0.00    +0.292 HD
ENDBRANCH   4  17
BRANCH   8  19
ATOM     19  O   LIG A   1      -5.455   5.063 124.390  0.00  0.00    -0.387 OA
ATOM     20  H   LIG A   1      -5.154   4.994 125.313  0.00  0.00    +0.210 HD
ENDBRANCH   8  19
BRANCH  15  21
ATOM     21  O   LIG A   1      -6.209   4.114 128.300  0.00  0.00    -0.389 OA
ATOM     22  H   LIG A   1      -7.018   4.452 128.721  0.00  0.00    +0.210 HD
ENDBRANCH  15  21
BRANCH  16  23
ATOM     23  O   LIG A   1      -4.451   2.787 126.353  0.00  0.00    -0.389 OA
ATOM     24  H   LIG A   1      -4.283   2.234 127.135  0.00  0.00    +0.210 HD
ENDBRANCH  16  23
TORSDOF 4
ENDMDL
MODEL 8
REMARK VINA RESULT:      -6.6      8.900     10.928
REMARK  Name = NuBBE_7
REMARK  5 active torsions:
REMARK  status: ('A' for Active; 'I' for Inactive)
REMARK    1  A    between atoms: C_1  and  C_2
REMARK    2  A    between atoms: C_4  and  O_5
REMARK    3  A    between atoms: C_9  and  O_11
REMARK    4  A    between atoms: C_20  and  O_22
REMARK    5  A    between atoms: C_23  and  O_25
REMARK                            x       y       z     vdW  Elec       q    Type
REMARK                         _______ _______ _______ _____ _____    ______ ____
ROOT
ATOM      1  C   LIG A   1      -4.415  -4.722 123.597  0.00  0.00    +0.044 C 
ATOM      2  C   LIG A   1      -5.177  -3.590 124.212  0.00  0.00    -0.046 A 
ATOM      3  C   LIG A   1      -4.786  -3.057 125.443  0.00  0.00    +0.049 A 
ATOM      4  C   LIG A   1      -5.487  -1.984 125.986  0.00  0.00    +0.123 A 
ATOM      5  C   LIG A   1      -6.275  -3.033 123.545  0.00  0.00    +0.015 A 
ATOM      6  C   LIG A   1      -6.961  -1.936 124.094  0.00  0.00    +0.027 A 
ATOM      7  C   LIG A   1      -6.585  -1.409 125.328  0.00  0.00    +0.033 A 
ATOM      8  C   LIG A   1      -7.259  -0.193 125.914  0.00  0.00    +0.155 C 
ATOM      9  C   LIG A   1      -8.614   0.158 125.265  0.00  0.00    +0.064 C 
ATOM     10  C   LIG A   1      -8.571   0.053 123.738  0.00  0.00    +0.069 C 
ATOM     11  C   LIG A   1      -8.049  -1.303 123.301  0.00  0.00    +0.167 C 
ATOM     12  O   LIG A   1      -8.455  -1.843 122.277  0.00  0.00    -0.292 OA
ATOM     13  C   LIG A   1      -7.761   1.165 123.072  0.00  0.00    +0.014 C 
ATOM     14  C   LIG A   1      -8.217   2.556 123.508  0.00  0.00    +0.034 C 
ATOM     15  C   LIG A   1      -8.363   2.724 125.020  0.00  0.00    +0.143 C 
ATOM     16  C   LIG A   1      -9.143   1.551 125.664  0.00  0.00    +0.149 C 
ENDROOT
BRANCH   4  17
ATOM     17  O   LIG A   1      -5.070  -1.426 127.163  0.00  0.00    -0.506 OA
ATOM     18  H   LIG A   1      -4.098  -1.431 127.200  0.00  0.00    +0.292 HD
ENDBRANCH   4  17
BRANCH   8  19
ATOM     19  O   LIG A   1      -6.362   0.911 125.803  0.00  0.00    -0.387 OA
ATOM     20  H   LIG A   1      -6.577   1.403 124.992  0.00  0.00    +0.210 HD
ENDBRANCH   8  19
BRANCH  15  21
ATOM     21  O   LIG A   1      -9.046   3.956 125.275  0.00  0.00    -0.389 OA
ATOM     22  H   LIG A   1      -8.552   4.655 124.813  0.00  0.00    +0.210 HD
ENDBRANCH  15  21
BRANCH  16  23
ATOM     23  O   LIG A   1      -9.160   1.649 127.094  0.00  0.00    -0.389 OA
ATOM     24  H   LIG A   1      -9.110   0.743 127.445  0.00  0.00    +0.210 HD
ENDBRANCH  16  23
TORSDOF 4
ENDMDL
MODEL 9
REMARK VINA RESULT:      -6.5      1.708      5.147
REMARK  Name = NuBBE_7
REMARK  5 active torsions:
REMARK  status: ('A' for Active; 'I' for Inactive)
REMARK    1  A    between atoms: C_1  and  C_2
REMARK    2  A    between atoms: C_4  and  O_5
REMARK    3  A    between atoms: C_9  and  O_11
REMARK    4  A    between atoms: C_20  and  O_22
REMARK    5  A    between atoms: C_23  and  O_25
REMARK                            x       y       z     vdW  Elec       q    Type
REMARK                         _______ _______ _______ _____ _____    ______ ____
ROOT
ATOM      1  C   LIG A   1      -4.426   6.417 135.146  0.00  0.00    +0.044 C 
ATOM      2  C   LIG A   1      -5.648   5.949 134.419  0.00  0.00    -0.046 A 
ATOM      3  C   LIG A   1      -6.715   5.380 135.119  0.00  0.00    +0.049 A 
ATOM      4  C   LIG A   1      -7.857   4.978 134.431  0.00  0.00    +0.123 A 
ATOM      5  C   LIG A   1      -5.746   6.102 133.031  0.00  0.00    +0.015 A 
ATOM      6  C   LIG A   1      -6.913   5.711 132.352  0.00  0.00    +0.027 A 
ATOM      7  C   LIG A   1      -7.975   5.130 133.041  0.00  0.00    +0.033 A 
ATOM      8  C   LIG A   1      -9.265   4.759 132.353  0.00  0.00    +0.155 C 
ATOM      9  C   LIG A   1      -9.168   4.692 130.814  0.00  0.00    +0.064 C 
ATOM     10  C   LIG A   1      -8.379   5.867 130.230  0.00  0.00    +0.069 C 
ATOM     11  C   LIG A   1      -7.021   5.994 130.895  0.00  0.00    +0.167 C 
ATOM     12  O   LIG A   1      -6.041   6.390 130.273  0.00  0.00    -0.292 OA
ATOM     13  C   LIG A   1      -9.125   7.199 130.304  0.00  0.00    +0.014 C 
ATOM     14  C   LIG A   1     -10.518   7.121 129.685  0.00  0.00    +0.034 C 
ATOM     15  C   LIG A   1     -11.348   5.925 130.156  0.00  0.00    +0.143 C 
ATOM     16  C   LIG A   1     -10.541   4.604 130.117  0.00  0.00    +0.149 C 
ENDROOT
BRANCH   4  17
ATOM     17  O   LIG A   1      -8.924   4.474 135.124  0.00  0.00    -0.506 OA
ATOM     18  H   LIG A   1      -9.640   4.251 134.504  0.00  0.00    +0.292 HD
ENDBRANCH   4  17
BRANCH   8  19
ATOM     19  O   LIG A   1     -10.264   5.701 132.740  0.00  0.00    -0.387 OA
ATOM     20  H   LIG A   1     -10.737   5.350 133.515  0.00  0.00    +0.210 HD
ENDBRANCH   8  19
BRANCH  15  21
ATOM     21  O   LIG A   1     -12.500   5.814 129.313  0.00  0.00    -0.389 OA
ATOM     22  H   LIG A   1     -12.626   4.868 129.128  0.00  0.00    +0.210 HD
ENDBRANCH  15  21
BRANCH  16  23
ATOM     23  O   LIG A   1     -11.281   3.516 130.683  0.00  0.00    -0.389 OA
ATOM     24  H   LIG A   1     -12.223   3.757 130.645  0.00  0.00    +0.210 HD
ENDBRANCH  16  23
TORSDOF 4
ENDMDL
