MODEL 1
REMARK VINA RESULT:      -7.5      0.000      0.000
REMARK  Name = NuBBE_2100
REMARK  10 active torsions:
REMARK  status: ('A' for Active; 'I' for Inactive)
REMARK    1  A    between atoms: C_1  and  C_2
REMARK    2  A    between atoms: C_1  and  C_4
REMARK    3  A    between atoms: C_6  and  O_7
REMARK    4  A    between atoms: O_7  and  C_8
REMARK    5  A    between atoms: C_11  and  O_14
REMARK    6  A    between atoms: O_14  and  C_15
REMARK    7  A    between atoms: C_17  and  C_22
REMARK    8  A    between atoms: C_19  and  C_21
REMARK    9  A    between atoms: C_26  and  O_28
REMARK   10  A    between atoms: O_28  and  C_29
REMARK                            x       y       z     vdW  Elec       q    Type
REMARK                         _______ _______ _______ _____ _____    ______ ____
ROOT
ATOM      1  C   LIG A   1      -6.475  -1.463 125.522  0.00  0.00    +0.044 C 
ATOM      2  C   LIG A   1      -6.763  -1.324 126.992  0.00  0.00    +0.150 C 
ATOM      3  C   LIG A   1      -7.702  -2.015 127.678  0.00  0.00    +0.203 C 
ATOM      4  C   LIG A   1      -8.509  -3.035 126.922  0.00  0.00    +0.229 C 
ATOM      5  O   LIG A   1      -9.139  -3.899 127.561  0.00  0.00    -0.286 OA
ATOM      6  C   LIG A   1      -8.481  -3.048 125.374  0.00  0.00    +0.193 C 
ATOM      7  C   LIG A   1      -7.803  -1.791 124.822  0.00  0.00    +0.055 C 
ATOM      8  O   LIG A   1      -6.014  -0.333 127.576  0.00  0.00    -0.484 OA
ATOM      9  C   LIG A   1      -5.270   0.358 126.562  0.00  0.00    +0.207 C 
ATOM     10  C   LIG A   1      -5.885  -0.059 125.205  0.00  0.00    +0.045 C 
ATOM     11  C   LIG A   1      -6.886   0.952 124.633  0.00  0.00    +0.012 C 
ENDROOT
BRANCH   9  12
ATOM     12  C   LIG A   1      -5.195   1.836 126.909  0.00  0.00    +0.000 A 
ATOM     13  C   LIG A   1      -3.957   2.496 126.904  0.00  0.00    +0.057 A 
ATOM     14  C   LIG A   1      -3.928   3.832 127.247  0.00  0.00    +0.170 A 
ATOM     15  C   LIG A   1      -5.056   4.525 127.625  0.00  0.00    +0.207 A 
ATOM     16  C   LIG A   1      -6.290   3.913 127.686  0.00  0.00    +0.166 A 
ATOM     17  C   LIG A   1      -6.353   2.568 127.295  0.00  0.00    +0.057 A 
ATOM     18  O   LIG A   1      -4.775   5.826 127.908  0.00  0.00    -0.449 OA
ATOM     19  C   LIG A   1      -3.351   5.853 127.747  0.00  0.00    +0.467 C 
ATOM     20  O   LIG A   1      -2.810   4.610 127.264  0.00  0.00    -0.453 OA
BRANCH  16  21
ATOM     21  O   LIG A   1      -7.463   4.488 128.090  0.00  0.00    -0.491 OA
ATOM     22  C   LIG A   1      -7.744   4.365 129.485  0.00  0.00    +0.277 C 
ENDBRANCH  16  21
ENDBRANCH   9  12
BRANCH   3  23
ATOM     23  O   LIG A   1      -7.985  -1.900 129.023  0.00  0.00    -0.489 OA
ATOM     24  C   LIG A   1      -7.145  -2.578 129.949  0.00  0.00    +0.277 C 
ENDBRANCH   3  23
BRANCH   6  25
ATOM     25  O   LIG A   1      -9.746  -3.109 124.711  0.00  0.00    -0.372 OA
ATOM     26  C   LIG A   1      -9.669  -3.172 123.293  0.00  0.00    +0.195 C 
ENDBRANCH   6  25
BRANCH   1  27
ATOM     27  C   LIG A   1      -5.391  -2.572 125.349  0.00  0.00    +0.041 C 
BRANCH  27  28
ATOM     28  C   LIG A   1      -5.068  -2.913 123.920  0.00  0.00    -0.034 C 
ATOM     29  C   LIG A   1      -4.410  -4.016 123.543  0.00  0.00    +0.004 C 
ENDBRANCH  27  28
ENDBRANCH   1  27
TORSDOF 6
ENDMDL
MODEL 2
REMARK VINA RESULT:      -7.4      3.687      6.681
REMARK  Name = NuBBE_2100
REMARK  10 active torsions:
REMARK  status: ('A' for Active; 'I' for Inactive)
REMARK    1  A    between atoms: C_1  and  C_2
REMARK    2  A    between atoms: C_1  and  C_4
REMARK    3  A    between atoms: C_6  and  O_7
REMARK    4  A    between atoms: O_7  and  C_8
REMARK    5  A    between atoms: C_11  and  O_14
REMARK    6  A    between atoms: O_14  and  C_15
REMARK    7  A    between atoms: C_17  and  C_22
REMARK    8  A    between atoms: C_19  and  C_21
REMARK    9  A    between atoms: C_26  and  O_28
REMARK   10  A    between atoms: O_28  and  C_29
REMARK                            x       y       z     vdW  Elec       q    Type
REMARK                         _______ _______ _______ _____ _____    ______ ____
ROOT
ATOM      1  C   LIG A   1      -6.593  -2.396 130.578  0.00  0.00    +0.044 C 
ATOM      2  C   LIG A   1      -6.790  -0.922 130.351  0.00  0.00    +0.150 C 
ATOM      3  C   LIG A   1      -7.064  -0.009 131.310  0.00  0.00    +0.203 C 
ATOM      4  C   LIG A   1      -7.148  -0.493 132.732  0.00  0.00    +0.229 C 
ATOM      5  O   LIG A   1      -7.077   0.338 133.657  0.00  0.00    -0.286 OA
ATOM      6  C   LIG A   1      -7.240  -2.011 133.026  0.00  0.00    +0.193 C 
ATOM      7  C   LIG A   1      -7.505  -2.808 131.746  0.00  0.00    +0.055 C 
ATOM      8  O   LIG A   1      -6.748  -0.593 129.019  0.00  0.00    -0.484 OA
ATOM      9  C   LIG A   1      -6.654  -1.792 128.237  0.00  0.00    +0.207 C 
ATOM     10  C   LIG A   1      -6.997  -2.964 129.187  0.00  0.00    +0.045 C 
ATOM     11  C   LIG A   1      -8.447  -3.453 129.081  0.00  0.00    +0.012 C 
ENDROOT
BRANCH   9  12
ATOM     12  C   LIG A   1      -7.459  -1.625 126.958  0.00  0.00    +0.000 A 
ATOM     13  C   LIG A   1      -7.320  -2.553 125.915  0.00  0.00    +0.057 A 
ATOM     14  C   LIG A   1      -8.050  -2.354 124.762  0.00  0.00    +0.170 A 
ATOM     15  C   LIG A   1      -8.877  -1.267 124.588  0.00  0.00    +0.207 A 
ATOM     16  C   LIG A   1      -9.018  -0.305 125.566  0.00  0.00    +0.166 A 
ATOM     17  C   LIG A   1      -8.323  -0.511 126.765  0.00  0.00    +0.057 A 
ATOM     18  O   LIG A   1      -9.494  -1.295 123.375  0.00  0.00    -0.449 OA
ATOM     19  C   LIG A   1      -8.908  -2.461 122.782  0.00  0.00    +0.467 C 
ATOM     20  O   LIG A   1      -8.039  -3.178 123.678  0.00  0.00    -0.453 OA
BRANCH  16  21
ATOM     21  O   LIG A   1      -9.772   0.833 125.483  0.00  0.00    -0.491 OA
ATOM     22  C   LIG A   1      -9.155   1.913 124.779  0.00  0.00    +0.277 C 
ENDBRANCH  16  21
ENDBRANCH   9  12
BRANCH   3  23
ATOM     23  O   LIG A   1      -7.252   1.345 131.123  0.00  0.00    -0.489 OA
ATOM     24  C   LIG A   1      -8.560   1.808 130.813  0.00  0.00    +0.277 C 
ENDBRANCH   3  23
BRANCH   6  25
ATOM     25  O   LIG A   1      -8.260  -2.426 133.938  0.00  0.00    -0.372 OA
ATOM     26  C   LIG A   1      -8.093  -3.739 134.455  0.00  0.00    +0.195 C 
ENDBRANCH   6  25
BRANCH   1  27
ATOM     27  C   LIG A   1      -5.077  -2.640 130.857  0.00  0.00    +0.041 C 
BRANCH  27  28
ATOM     28  C   LIG A   1      -4.481  -3.796 130.101  0.00  0.00    -0.034 C 
ATOM     29  C   LIG A   1      -3.447  -3.684 129.257  0.00  0.00    +0.004 C 
ENDBRANCH  27  28
ENDBRANCH   1  27
TORSDOF 6
ENDMDL
MODEL 3
REMARK VINA RESULT:      -7.4      1.760      7.330
REMARK  Name = NuBBE_2100
REMARK  10 active torsions:
REMARK  status: ('A' for Active; 'I' for Inactive)
REMARK    1  A    between atoms: C_1  and  C_2
REMARK    2  A    between atoms: C_1  and  C_4
REMARK    3  A    between atoms: C_6  and  O_7
REMARK    4  A    between atoms: O_7  and  C_8
REMARK    5  A    between atoms: C_11  and  O_14
REMARK    6  A    between atoms: O_14  and  C_15
REMARK    7  A    between atoms: C_17  and  C_22
REMARK    8  A    between atoms: C_19  and  C_21
REMARK    9  A    between atoms: C_26  and  O_28
REMARK   10  A    between atoms: O_28  and  C_29
REMARK                            x       y       z     vdW  Elec       q    Type
REMARK                         _______ _______ _______ _____ _____    ______ ____
ROOT
ATOM      1  C   LIG A   1      -5.725   3.014 125.827  0.00  0.00    +0.044 C 
ATOM      2  C   LIG A   1      -6.518   3.099 127.103  0.00  0.00    +0.150 C 
ATOM      3  C   LIG A   1      -6.212   3.873 128.168  0.00  0.00    +0.203 C 
ATOM      4  C   LIG A   1      -4.998   4.755 128.066  0.00  0.00    +0.229 C 
ATOM      5  O   LIG A   1      -4.867   5.698 128.869  0.00  0.00    -0.286 OA
ATOM      6  C   LIG A   1      -3.975   4.530 126.923  0.00  0.00    +0.193 C 
ATOM      7  C   LIG A   1      -4.244   3.213 126.191  0.00  0.00    +0.055 C 
ATOM      8  O   LIG A   1      -7.571   2.219 127.117  0.00  0.00    -0.484 OA
ATOM      9  C   LIG A   1      -7.513   1.391 125.947  0.00  0.00    +0.207 C 
ATOM     10  C   LIG A   1      -6.104   1.586 125.340  0.00  0.00    +0.045 C 
ATOM     11  C   LIG A   1      -5.103   0.485 125.712  0.00  0.00    +0.012 C 
ENDROOT
BRANCH   9  12
ATOM     12  C   LIG A   1      -7.971  -0.015 126.300  0.00  0.00    +0.000 A 
ATOM     13  C   LIG A   1      -7.639  -0.570 127.544  0.00  0.00    +0.057 A 
ATOM     14  C   LIG A   1      -8.054  -1.857 127.817  0.00  0.00    +0.170 A 
ATOM     15  C   LIG A   1      -8.748  -2.621 126.905  0.00  0.00    +0.207 A 
ATOM     16  C   LIG A   1      -9.064  -2.137 125.654  0.00  0.00    +0.166 A 
ATOM     17  C   LIG A   1      -8.695  -0.815 125.371  0.00  0.00    +0.057 A 
ATOM     18  O   LIG A   1      -9.051  -3.849 127.408  0.00  0.00    -0.449 OA
ATOM     19  C   LIG A   1      -8.410  -3.801 128.688  0.00  0.00    +0.467 C 
ATOM     20  O   LIG A   1      -7.829  -2.519 128.986  0.00  0.00    -0.453 OA
BRANCH  16  21
ATOM     21  O   LIG A   1      -9.705  -2.820 124.658  0.00  0.00    -0.491 OA
ATOM     22  C   LIG A   1      -8.951  -2.980 123.455  0.00  0.00    +0.277 C 
ENDBRANCH  16  21
ENDBRANCH   9  12
BRANCH   3  23
ATOM     23  O   LIG A   1      -6.923   3.962 129.347  0.00  0.00    -0.489 OA
ATOM     24  C   LIG A   1      -6.608   3.055 130.395  0.00  0.00    +0.277 C 
ENDBRANCH   3  23
BRANCH   6  25
ATOM     25  O   LIG A   1      -2.597   4.471 127.300  0.00  0.00    -0.372 OA
ATOM     26  C   LIG A   1      -1.926   3.283 126.901  0.00  0.00    +0.195 C 
ENDBRANCH   6  25
BRANCH   1  27
ATOM     27  C   LIG A   1      -6.275   4.098 124.848  0.00  0.00    +0.041 C 
BRANCH  27  28
ATOM     28  C   LIG A   1      -5.523   4.205 123.549  0.00  0.00    -0.034 C 
ATOM     29  C   LIG A   1      -6.021   3.829 122.364  0.00  0.00    +0.004 C 
ENDBRANCH  27  28
ENDBRANCH   1  27
TORSDOF 6
ENDMDL
MODEL 4
REMARK VINA RESULT:      -7.2      2.578      4.412
REMARK  Name = NuBBE_2100
REMARK  10 active torsions:
REMARK  status: ('A' for Active; 'I' for Inactive)
REMARK    1  A    between atoms: C_1  and  C_2
REMARK    2  A    between atoms: C_1  and  C_4
REMARK    3  A    between atoms: C_6  and  O_7
REMARK    4  A    between atoms: O_7  and  C_8
REMARK    5  A    between atoms: C_11  and  O_14
REMARK    6  A    between atoms: O_14  and  C_15
REMARK    7  A    between atoms: C_17  and  C_22
REMARK    8  A    between atoms: C_19  and  C_21
REMARK    9  A    between atoms: C_26  and  O_28
REMARK   10  A    between atoms: O_28  and  C_29
REMARK                            x       y       z     vdW  Elec       q    Type
REMARK                         _______ _______ _______ _____ _____    ______ ____
ROOT
ATOM      1  C   LIG A   1      -7.221  -1.669 126.259  0.00  0.00    +0.044 C 
ATOM      2  C   LIG A   1      -7.853  -0.690 125.307  0.00  0.00    +0.150 C 
ATOM      3  C   LIG A   1      -7.743  -0.720 123.960  0.00  0.00    +0.203 C 
ATOM      4  C   LIG A   1      -6.951  -1.843 123.349  0.00  0.00    +0.229 C 
ATOM      5  O   LIG A   1      -7.091  -2.090 122.136  0.00  0.00    -0.286 OA
ATOM      6  C   LIG A   1      -6.042  -2.722 124.243  0.00  0.00    +0.193 C 
ATOM      7  C   LIG A   1      -5.886  -2.115 125.640  0.00  0.00    +0.055 C 
ATOM      8  O   LIG A   1      -8.506   0.323 125.965  0.00  0.00    -0.484 OA
ATOM      9  C   LIG A   1      -8.272   0.201 127.375  0.00  0.00    +0.207 C 
ATOM     10  C   LIG A   1      -7.102  -0.797 127.541  0.00  0.00    +0.045 C 
ATOM     11  C   LIG A   1      -5.736  -0.132 127.750  0.00  0.00    +0.012 C 
ENDROOT
BRANCH   9  12
ATOM     12  C   LIG A   1      -8.147   1.587 127.988  0.00  0.00    +0.000 A 
ATOM     13  C   LIG A   1      -8.394   1.775 129.355  0.00  0.00    +0.057 A 
ATOM     14  C   LIG A   1      -8.292   3.051 129.869  0.00  0.00    +0.170 A 
ATOM     15  C   LIG A   1      -7.992   4.143 129.085  0.00  0.00    +0.207 A 
ATOM     16  C   LIG A   1      -7.780   4.018 127.728  0.00  0.00    +0.166 A 
ATOM     17  C   LIG A   1      -7.831   2.724 127.192  0.00  0.00    +0.057 A 
ATOM     18  O   LIG A   1      -7.940   5.288 129.819  0.00  0.00    -0.449 OA
ATOM     19  C   LIG A   1      -8.316   4.813 131.117  0.00  0.00    +0.467 C 
ATOM     20  O   LIG A   1      -8.478   3.385 131.176  0.00  0.00    -0.453 OA
BRANCH  16  21
ATOM     21  O   LIG A   1      -7.523   5.035 126.850  0.00  0.00    -0.491 OA
ATOM     22  C   LIG A   1      -7.770   4.722 125.478  0.00  0.00    +0.277 C 
ENDBRANCH  16  21
ENDBRANCH   9  12
BRANCH   3  23
ATOM     23  O   LIG A   1      -8.311   0.170 123.071  0.00  0.00    -0.489 OA
ATOM     24  C   LIG A   1      -9.700   0.050 122.792  0.00  0.00    +0.277 C 
ENDBRANCH   3  23
BRANCH   6  25
ATOM     25  O   LIG A   1      -4.706  -2.939 123.782  0.00  0.00    -0.372 OA
ATOM     26  C   LIG A   1      -4.326  -4.305 123.690  0.00  0.00    +0.195 C 
ENDBRANCH   6  25
BRANCH   1  27
ATOM     27  C   LIG A   1      -8.227  -2.842 126.477  0.00  0.00    +0.041 C 
BRANCH  27  28
ATOM     28  C   LIG A   1      -8.326  -3.323 127.899  0.00  0.00    -0.034 C 
ATOM     29  C   LIG A   1      -9.271  -4.162 128.341  0.00  0.00    +0.004 C 
ENDBRANCH  27  28
ENDBRANCH   1  27
TORSDOF 6
ENDMDL
MODEL 5
REMARK VINA RESULT:      -7.1      3.017      6.169
REMARK  Name = NuBBE_2100
REMARK  10 active torsions:
REMARK  status: ('A' for Active; 'I' for Inactive)
REMARK    1  A    between atoms: C_1  and  C_2
REMARK    2  A    between atoms: C_1  and  C_4
REMARK    3  A    between atoms: C_6  and  O_7
REMARK    4  A    between atoms: O_7  and  C_8
REMARK    5  A    between atoms: C_11  and  O_14
REMARK    6  A    between atoms: O_14  and  C_15
REMARK    7  A    between atoms: C_17  and  C_22
REMARK    8  A    between atoms: C_19  and  C_21
REMARK    9  A    between atoms: C_26  and  O_28
REMARK   10  A    between atoms: O_28  and  C_29
REMARK                            x       y       z     vdW  Elec       q    Type
REMARK                         _______ _______ _______ _____ _____    ______ ____
ROOT
ATOM      1  C   LIG A   1      -7.753  -0.919 125.934  0.00  0.00    +0.044 C 
ATOM      2  C   LIG A   1      -8.210  -0.044 127.069  0.00  0.00    +0.150 C 
ATOM      3  C   LIG A   1      -8.502   1.273 126.978  0.00  0.00    +0.203 C 
ATOM      4  C   LIG A   1      -8.398   1.920 125.625  0.00  0.00    +0.229 C 
ATOM      5  O   LIG A   1      -8.955   3.018 125.436  0.00  0.00    -0.286 OA
ATOM      6  C   LIG A   1      -7.675   1.182 124.470  0.00  0.00    +0.193 C 
ATOM      7  C   LIG A   1      -6.916  -0.044 124.987  0.00  0.00    +0.055 C 
ATOM      8  O   LIG A   1      -8.220  -0.714 128.267  0.00  0.00    -0.484 OA
ATOM      9  C   LIG A   1      -7.663  -2.024 128.083  0.00  0.00    +0.207 C 
ATOM     10  C   LIG A   1      -6.959  -2.012 126.706  0.00  0.00    +0.045 C 
ATOM     11  C   LIG A   1      -5.444  -1.784 126.778  0.00  0.00    +0.012 C 
ENDROOT
BRANCH   9  12
ATOM     12  C   LIG A   1      -6.859  -2.408 129.314  0.00  0.00    +0.000 A 
ATOM     13  C   LIG A   1      -6.643  -3.760 129.618  0.00  0.00    +0.057 A 
ATOM     14  C   LIG A   1      -5.927  -4.068 130.756  0.00  0.00    +0.170 A 
ATOM     15  C   LIG A   1      -5.451  -3.103 131.616  0.00  0.00    +0.207 A 
ATOM     16  C   LIG A   1      -5.671  -1.762 131.385  0.00  0.00    +0.166 A 
ATOM     17  C   LIG A   1      -6.355  -1.423 130.209  0.00  0.00    +0.057 A 
ATOM     18  O   LIG A   1      -4.773  -3.652 132.659  0.00  0.00    -0.449 OA
ATOM     19  C   LIG A   1      -4.942  -5.053 132.408  0.00  0.00    +0.467 C 
ATOM     20  O   LIG A   1      -5.617  -5.330 131.167  0.00  0.00    -0.453 OA
BRANCH  16  21
ATOM     21  O   LIG A   1      -5.287  -0.726 132.190  0.00  0.00    -0.491 OA
ATOM     22  C   LIG A   1      -4.266   0.112 131.648  0.00  0.00    +0.277 C 
ENDBRANCH  16  21
ENDBRANCH   9  12
BRANCH   3  23
ATOM     23  O   LIG A   1      -8.919   2.093 128.007  0.00  0.00    -0.489 OA
ATOM     24  C   LIG A   1      -7.930   2.748 128.790  0.00  0.00    +0.277 C 
ENDBRANCH   3  23
BRANCH   6  25
ATOM     25  O   LIG A   1      -6.706   1.935 123.736  0.00  0.00    -0.372 OA
ATOM     26  C   LIG A   1      -7.215   2.583 122.578  0.00  0.00    +0.195 C 
ENDBRANCH   6  25
BRANCH   1  27
ATOM     27  C   LIG A   1      -9.021  -1.528 125.258  0.00  0.00    +0.041 C 
BRANCH  27  28
ATOM     28  C   LIG A   1      -8.789  -2.845 124.568  0.00  0.00    -0.034 C 
ATOM     29  C   LIG A   1      -9.472  -3.256 123.491  0.00  0.00    +0.004 C 
ENDBRANCH  27  28
ENDBRANCH   1  27
TORSDOF 6
ENDMDL
MODEL 6
REMARK VINA RESULT:      -7.1      4.022      6.924
REMARK  Name = NuBBE_2100
REMARK  10 active torsions:
REMARK  status: ('A' for Active; 'I' for Inactive)
REMARK    1  A    between atoms: C_1  and  C_2
REMARK    2  A    between atoms: C_1  and  C_4
REMARK    3  A    between atoms: C_6  and  O_7
REMARK    4  A    between atoms: O_7  and  C_8
REMARK    5  A    between atoms: C_11  and  O_14
REMARK    6  A    between atoms: O_14  and  C_15
REMARK    7  A    between atoms: C_17  and  C_22
REMARK    8  A    between atoms: C_19  and  C_21
REMARK    9  A    between atoms: C_26  and  O_28
REMARK   10  A    between atoms: O_28  and  C_29
REMARK                            x       y       z     vdW  Elec       q    Type
REMARK                         _______ _______ _______ _____ _____    ______ ____
ROOT
ATOM      1  C   LIG A   1      -4.404   3.934 128.534  0.00  0.00    +0.044 C 
ATOM      2  C   LIG A   1      -5.907   3.997 128.573  0.00  0.00    +0.150 C 
ATOM      3  C   LIG A   1      -6.685   3.592 129.602  0.00  0.00    +0.203 C 
ATOM      4  C   LIG A   1      -5.997   3.063 130.830  0.00  0.00    +0.229 C 
ATOM      5  O   LIG A   1      -6.639   2.986 131.895  0.00  0.00    -0.286 OA
ATOM      6  C   LIG A   1      -4.492   2.700 130.777  0.00  0.00    +0.193 C 
ATOM      7  C   LIG A   1      -3.975   2.694 129.336  0.00  0.00    +0.055 C 
ATOM      8  O   LIG A   1      -6.437   4.443 127.387  0.00  0.00    -0.484 OA
ATOM      9  C   LIG A   1      -5.384   4.591 126.423  0.00  0.00    +0.207 C 
ATOM     10  C   LIG A   1      -4.152   3.854 127.001  0.00  0.00    +0.045 C 
ATOM     11  C   LIG A   1      -3.953   2.438 126.448  0.00  0.00    +0.012 C 
ENDROOT
BRANCH   9  12
ATOM     12  C   LIG A   1      -5.898   4.193 125.049  0.00  0.00    +0.000 A 
ATOM     13  C   LIG A   1      -5.164   4.527 123.901  0.00  0.00    +0.057 A 
ATOM     14  C   LIG A   1      -5.676   4.168 122.671  0.00  0.00    +0.170 A 
ATOM     15  C   LIG A   1      -6.888   3.530 122.531  0.00  0.00    +0.207 A 
ATOM     16  C   LIG A   1      -7.667   3.216 123.624  0.00  0.00    +0.166 A 
ATOM     17  C   LIG A   1      -7.146   3.527 124.887  0.00  0.00    +0.057 A 
ATOM     18  O   LIG A   1      -7.172   3.275 121.224  0.00  0.00    -0.449 OA
ATOM     19  C   LIG A   1      -6.058   3.889 120.564  0.00  0.00    +0.467 C 
ATOM     20  O   LIG A   1      -5.069   4.401 121.474  0.00  0.00    -0.453 OA
BRANCH  16  21
ATOM     21  O   LIG A   1      -8.901   2.628 123.599  0.00  0.00    -0.491 OA
ATOM     22  C   LIG A   1      -8.888   1.204 123.478  0.00  0.00    +0.277 C 
ENDBRANCH  16  21
ENDBRANCH   9  12
BRANCH   3  23
ATOM     23  O   LIG A   1      -8.062   3.638 129.655  0.00  0.00    -0.489 OA
ATOM     24  C   LIG A   1      -8.687   4.895 129.884  0.00  0.00    +0.277 C 
ENDBRANCH   3  23
BRANCH   6  25
ATOM     25  O   LIG A   1      -4.121   1.425 131.309  0.00  0.00    -0.372 OA
ATOM     26  C   LIG A   1      -4.299   0.336 130.413  0.00  0.00    +0.195 C 
ENDBRANCH   6  25
BRANCH   1  27
ATOM     27  C   LIG A   1      -3.853   5.272 129.118  0.00  0.00    +0.041 C 
BRANCH  27  28
ATOM     28  C   LIG A   1      -2.526   5.701 128.552  0.00  0.00    -0.034 C 
ATOM     29  C   LIG A   1      -2.261   6.942 128.126  0.00  0.00    +0.004 C 
ENDBRANCH  27  28
ENDBRANCH   1  27
TORSDOF 6
ENDMDL
MODEL 7
REMARK VINA RESULT:      -7.0      4.805      8.431
REMARK  Name = NuBBE_2100
REMARK  10 active torsions:
REMARK  status: ('A' for Active; 'I' for Inactive)
REMARK    1  A    between atoms: C_1  and  C_2
REMARK    2  A    between atoms: C_1  and  C_4
REMARK    3  A    between atoms: C_6  and  O_7
REMARK    4  A    between atoms: O_7  and  C_8
REMARK    5  A    between atoms: C_11  and  O_14
REMARK    6  A    between atoms: O_14  and  C_15
REMARK    7  A    between atoms: C_17  and  C_22
REMARK    8  A    between atoms: C_19  and  C_21
REMARK    9  A    between atoms: C_26  and  O_28
REMARK   10  A    between atoms: O_28  and  C_29
REMARK                            x       y       z     vdW  Elec       q    Type
REMARK                         _______ _______ _______ _____ _____    ______ ____
ROOT
ATOM      1  C   LIG A   1      -7.833   3.919 130.879  0.00  0.00    +0.044 C 
ATOM      2  C   LIG A   1      -8.341   3.737 129.475  0.00  0.00    +0.150 C 
ATOM      3  C   LIG A   1      -7.671   3.133 128.468  0.00  0.00    +0.203 C 
ATOM      4  C   LIG A   1      -6.314   2.562 128.777  0.00  0.00    +0.229 C 
ATOM      5  O   LIG A   1      -5.814   1.736 127.990  0.00  0.00    -0.286 OA
ATOM      6  C   LIG A   1      -5.598   2.944 130.096  0.00  0.00    +0.193 C 
ATOM      7  C   LIG A   1      -6.309   4.105 130.796  0.00  0.00    +0.055 C 
ATOM      8  O   LIG A   1      -9.560   4.339 129.284  0.00  0.00    -0.484 OA
ATOM      9  C   LIG A   1      -9.917   5.074 130.464  0.00  0.00    +0.207 C 
ATOM     10  C   LIG A   1      -8.633   5.178 131.321  0.00  0.00    +0.045 C 
ATOM     11  C   LIG A   1      -7.886   6.509 131.170  0.00  0.00    +0.012 C 
ENDROOT
BRANCH   9  12
ATOM     12  C   LIG A   1     -10.638   6.351 130.065  0.00  0.00    +0.000 A 
ATOM     13  C   LIG A   1     -11.571   6.932 130.937  0.00  0.00    +0.057 A 
ATOM     14  C   LIG A   1     -12.221   8.078 130.528  0.00  0.00    +0.170 A 
ATOM     15  C   LIG A   1     -12.013   8.647 129.291  0.00  0.00    +0.207 A 
ATOM     16  C   LIG A   1     -11.138   8.092 128.382  0.00  0.00    +0.166 A 
ATOM     17  C   LIG A   1     -10.430   6.954 128.793  0.00  0.00    +0.057 A 
ATOM     18  O   LIG A   1     -12.762   9.771 129.125  0.00  0.00    -0.449 OA
ATOM     19  C   LIG A   1     -13.513   9.800 130.345  0.00  0.00    +0.467 C 
ATOM     20  O   LIG A   1     -13.131   8.768 131.272  0.00  0.00    -0.453 OA
BRANCH  16  21
ATOM     21  O   LIG A   1     -10.890   8.543 127.115  0.00  0.00    -0.491 OA
ATOM     22  C   LIG A   1     -11.129   7.589 126.079  0.00  0.00    +0.277 C 
ENDBRANCH  16  21
ENDBRANCH   9  12
BRANCH   3  23
ATOM     23  O   LIG A   1      -8.117   2.960 127.174  0.00  0.00    -0.489 OA
ATOM     24  C   LIG A   1      -7.779   3.944 126.206  0.00  0.00    +0.277 C 
ENDBRANCH   3  23
BRANCH   6  25
ATOM     25  O   LIG A   1      -4.233   3.356 129.988  0.00  0.00    -0.372 OA
ATOM     26  C   LIG A   1      -4.053   4.738 129.712  0.00  0.00    +0.195 C 
ENDBRANCH   6  25
BRANCH   1  27
ATOM     27  C   LIG A   1      -8.262   2.670 131.711  0.00  0.00    +0.041 C 
BRANCH  27  28
ATOM     28  C   LIG A   1      -7.891   2.732 133.167  0.00  0.00    -0.034 C 
ATOM     29  C   LIG A   1      -6.910   2.007 133.721  0.00  0.00    +0.004 C 
ENDBRANCH  27  28
ENDBRANCH   1  27
TORSDOF 6
ENDMDL
MODEL 8
REMARK VINA RESULT:      -6.9      2.592      4.349
REMARK  Name = NuBBE_2100
REMARK  10 active torsions:
REMARK  status: ('A' for Active; 'I' for Inactive)
REMARK    1  A    between atoms: C_1  and  C_2
REMARK    2  A    between atoms: C_1  and  C_4
REMARK    3  A    between atoms: C_6  and  O_7
REMARK    4  A    between atoms: O_7  and  C_8
REMARK    5  A    between atoms: C_11  and  O_14
REMARK    6  A    between atoms: O_14  and  C_15
REMARK    7  A    between atoms: C_17  and  C_22
REMARK    8  A    between atoms: C_19  and  C_21
REMARK    9  A    between atoms: C_26  and  O_28
REMARK   10  A    between atoms: O_28  and  C_29
REMARK                            x       y       z     vdW  Elec       q    Type
REMARK                         _______ _______ _______ _____ _____    ______ ____
ROOT
ATOM      1  C   LIG A   1      -7.289   2.413 123.666  0.00  0.00    +0.044 C 
ATOM      2  C   LIG A   1      -6.763   1.279 124.503  0.00  0.00    +0.150 C 
ATOM      3  C   LIG A   1      -7.250   0.018 124.514  0.00  0.00    +0.203 C 
ATOM      4  C   LIG A   1      -8.393  -0.297 123.589  0.00  0.00    +0.229 C 
ATOM      5  O   LIG A   1      -8.653  -1.488 123.334  0.00  0.00    -0.286 OA
ATOM      6  C   LIG A   1      -9.175   0.854 122.908  0.00  0.00    +0.193 C 
ATOM      7  C   LIG A   1      -8.806   2.209 123.517  0.00  0.00    +0.055 C 
ATOM      8  O   LIG A   1      -5.759   1.683 125.348  0.00  0.00    -0.484 OA
ATOM      9  C   LIG A   1      -5.608   3.107 125.260  0.00  0.00    +0.207 C 
ATOM     10  C   LIG A   1      -6.863   3.637 124.527  0.00  0.00    +0.045 C 
ATOM     11  C   LIG A   1      -7.950   4.184 125.460  0.00  0.00    +0.012 C 
ENDROOT
BRANCH   9  12
ATOM     12  C   LIG A   1      -5.271   3.665 126.634  0.00  0.00    +0.000 A 
ATOM     13  C   LIG A   1      -5.595   2.935 127.787  0.00  0.00    +0.057 A 
ATOM     14  C   LIG A   1      -5.292   3.486 129.015  0.00  0.00    +0.170 A 
ATOM     15  C   LIG A   1      -4.721   4.732 129.147  0.00  0.00    +0.207 A 
ATOM     16  C   LIG A   1      -4.420   5.507 128.047  0.00  0.00    +0.166 A 
ATOM     17  C   LIG A   1      -4.674   4.948 126.787  0.00  0.00    +0.057 A 
ATOM     18  O   LIG A   1      -4.513   5.052 130.453  0.00  0.00    -0.449 OA
ATOM     19  C   LIG A   1      -5.084   3.919 131.121  0.00  0.00    +0.467 C 
ATOM     20  O   LIG A   1      -5.523   2.889 130.217  0.00  0.00    -0.453 OA
BRANCH  16  21
ATOM     21  O   LIG A   1      -3.897   6.770 128.062  0.00  0.00    -0.491 OA
ATOM     22  C   LIG A   1      -2.475   6.832 128.177  0.00  0.00    +0.277 C 
ENDBRANCH  16  21
ENDBRANCH   9  12
BRANCH   3  23
ATOM     23  O   LIG A   1      -6.784  -1.034 125.276  0.00  0.00    -0.489 OA
ATOM     24  C   LIG A   1      -5.589  -1.686 124.867  0.00  0.00    +0.277 C 
ENDBRANCH   3  23
BRANCH   6  25
ATOM     25  O   LIG A   1     -10.602   0.791 122.982  0.00  0.00    -0.372 OA
ATOM     26  C   LIG A   1     -11.153   1.281 124.197  0.00  0.00    +0.195 C 
ENDBRANCH   6  25
BRANCH   1  27
ATOM     27  C   LIG A   1      -6.524   2.399 122.305  0.00  0.00    +0.041 C 
BRANCH  27  28
ATOM     28  C   LIG A   1      -6.273   3.761 121.716  0.00  0.00    -0.034 C 
ATOM     29  C   LIG A   1      -5.152   4.101 121.068  0.00  0.00    +0.004 C 
ENDBRANCH  27  28
ENDBRANCH   1  27
TORSDOF 6
ENDMDL
MODEL 9
REMARK VINA RESULT:      -6.7      3.036      8.352
REMARK  Name = NuBBE_2100
REMARK  10 active torsions:
REMARK  status: ('A' for Active; 'I' for Inactive)
REMARK    1  A    between atoms: C_1  and  C_2
REMARK    2  A    between atoms: C_1  and  C_4
REMARK    3  A    between atoms: C_6  and  O_7
REMARK    4  A    between atoms: O_7  and  C_8
REMARK    5  A    between atoms: C_11  and  O_14
REMARK    6  A    between atoms: O_14  and  C_15
REMARK    7  A    between atoms: C_17  and  C_22
REMARK    8  A    between atoms: C_19  and  C_21
REMARK    9  A    between atoms: C_26  and  O_28
REMARK   10  A    between atoms: O_28  and  C_29
REMARK                            x       y       z     vdW  Elec       q    Type
REMARK                         _______ _______ _______ _____ _____    ______ ____
ROOT
ATOM      1  C   LIG A   1      -8.241   2.759 131.377  0.00  0.00    +0.044 C 
ATOM      2  C   LIG A   1      -7.575   2.622 130.035  0.00  0.00    +0.150 C 
ATOM      3  C   LIG A   1      -7.833   3.383 128.948  0.00  0.00    +0.203 C 
ATOM      4  C   LIG A   1      -8.845   4.486 129.091  0.00  0.00    +0.229 C 
ATOM      5  O   LIG A   1      -8.875   5.392 128.238  0.00  0.00    -0.286 OA
ATOM      6  C   LIG A   1      -9.775   4.524 130.330  0.00  0.00    +0.193 C 
ATOM      7  C   LIG A   1      -9.687   3.220 131.127  0.00  0.00    +0.055 C 
ATOM      8  O   LIG A   1      -6.710   1.556 129.993  0.00  0.00    -0.484 OA
ATOM      9  C   LIG A   1      -6.808   0.818 131.220  0.00  0.00    +0.207 C 
ATOM     10  C   LIG A   1      -8.090   1.313 131.930  0.00  0.00    +0.045 C 
ATOM     11  C   LIG A   1      -9.310   0.407 131.723  0.00  0.00    +0.012 C 
ENDROOT
BRANCH   9  12
ATOM     12  C   LIG A   1      -6.657  -0.667 130.929  0.00  0.00    +0.000 A 
ATOM     13  C   LIG A   1      -6.044  -1.508 131.870  0.00  0.00    +0.057 A 
ATOM     14  C   LIG A   1      -5.906  -2.845 131.559  0.00  0.00    +0.170 A 
ATOM     15  C   LIG A   1      -6.314  -3.371 130.354  0.00  0.00    +0.207 A 
ATOM     16  C   LIG A   1      -6.886  -2.580 129.380  0.00  0.00    +0.166 A 
ATOM     17  C   LIG A   1      -7.080  -1.227 129.692  0.00  0.00    +0.057 A 
ATOM     18  O   LIG A   1      -6.080  -4.709 130.287  0.00  0.00    -0.449 OA
ATOM     19  C   LIG A   1      -5.414  -4.947 131.533  0.00  0.00    +0.467 C 
ATOM     20  O   LIG A   1      -5.356  -3.784 132.378  0.00  0.00    -0.453 OA
BRANCH  16  21
ATOM     21  O   LIG A   1      -7.284  -2.985 128.136  0.00  0.00    -0.491 OA
ATOM     22  C   LIG A   1      -7.030  -2.048 127.088  0.00  0.00    +0.277 C 
ENDBRANCH  16  21
ENDBRANCH   9  12
BRANCH   3  23
ATOM     23  O   LIG A   1      -7.236   3.270 127.709  0.00  0.00    -0.489 OA
ATOM     24  C   LIG A   1      -7.806   2.374 126.764  0.00  0.00    +0.277 C 
ENDBRANCH   3  23
BRANCH   6  25
ATOM     25  O   LIG A   1     -11.170   4.711 130.078  0.00  0.00    -0.372 OA
ATOM     26  C   LIG A   1     -11.668   5.993 130.434  0.00  0.00    +0.195 C 
ENDBRANCH   6  25
BRANCH   1  27
ATOM     27  C   LIG A   1      -7.406   3.768 132.226  0.00  0.00    +0.041 C 
BRANCH  27  28
ATOM     28  C   LIG A   1      -7.543   3.595 133.714  0.00  0.00    -0.034 C 
ATOM     29  C   LIG A   1      -8.455   4.232 134.460  0.00  0.00    +0.004 C 
ENDBRANCH  27  28
ENDBRANCH   1  27
TORSDOF 6
ENDMDL
