MODEL 1
REMARK VINA RESULT:      -7.6      0.000      0.000
REMARK  Name = NuBBE_1108
REMARK  14 active torsions:
REMARK  status: ('A' for Active; 'I' for Inactive)
REMARK    1  A    between atoms: C_1  and  C_2
REMARK    2  A    between atoms: C_2  and  C_3
REMARK    3  A    between atoms: C_3  and  C_4
REMARK    4  A    between atoms: C_4  and  C_5
REMARK    5  A    between atoms: C_5  and  O_6
REMARK    6  A    between atoms: C_5  and  C_7
REMARK    7  A    between atoms: C_7  and  O_8
REMARK    8  A    between atoms: C_7  and  C_9
REMARK    9  A    between atoms: C_7  and  C_10
REMARK   10  A    between atoms: C_11  and  C_12
REMARK   11  A    between atoms: C_12  and  C_13
REMARK   12  A    between atoms: C_14  and  O_15
REMARK   13  A    between atoms: O_15  and  C_16
REMARK   14  A    between atoms: N_19  and  C_20
REMARK                            x       y       z     vdW  Elec       q    Type
REMARK                         _______ _______ _______ _____ _____    ______ ____
ROOT
ATOM      1  C   LIG A   1      -7.268   2.232 124.915  0.00  0.00    +0.071 C 
ENDROOT
BRANCH   1   2
ATOM      2  C   LIG A   1      -7.272   2.948 123.574  0.00  0.00    +0.063 A 
ATOM      3  C   LIG A   1      -8.257   2.990 122.645  0.00  0.00    +0.138 A 
ATOM      4  C   LIG A   1      -7.992   3.593 121.311  0.00  0.00    +0.041 A 
ATOM      5  C   LIG A   1      -6.726   4.112 121.011  0.00  0.00    +0.055 A 
ATOM      6  N   LIG A   1      -5.735   4.147 122.027  0.00  0.00    -0.311 N 
ATOM      7  C   LIG A   1      -4.441   4.756 121.757  0.00  0.00    +0.152 C 
ATOM      8  C   LIG A   1      -5.972   3.653 123.299  0.00  0.00    +0.259 A 
ATOM      9  O   LIG A   1      -5.141   3.766 124.210  0.00  0.00    -0.267 OA
ATOM     10  C   LIG A   1      -6.466   4.605 119.717  0.00  0.00    +0.026 A 
ATOM     11  C   LIG A   1      -7.457   4.611 118.734  0.00  0.00    +0.002 A 
ATOM     12  C   LIG A   1      -8.722   4.130 119.034  0.00  0.00    +0.001 A 
ATOM     13  C   LIG A   1      -8.985   3.624 120.309  0.00  0.00    +0.013 A 
BRANCH   3  14
ATOM     14  O   LIG A   1      -9.524   2.454 122.723  0.00  0.00    -0.494 OA
ATOM     15  C   LIG A   1      -9.710   1.055 122.845  0.00  0.00    +0.277 C 
ENDBRANCH   3  14
ENDBRANCH   1   2
BRANCH   1  18
ATOM     16  C   LIG A   1      -6.920   0.156 127.237  0.00  0.00    +0.038 C 
ATOM     17  C   LIG A   1      -6.339   0.034 125.854  0.00  0.00    -0.076 C 
ATOM     18  C   LIG A   1      -6.511   0.927 124.856  0.00  0.00    -0.023 C 
BRANCH  17  19
ATOM     19  C   LIG A   1      -5.462  -1.186 125.639  0.00  0.00    +0.033 C 
BRANCH  19  20
ATOM     20  C   LIG A   1      -6.238  -2.372 125.051  0.00  0.00    +0.038 C 
BRANCH  20  21
ATOM     21  C   LIG A   1      -7.486  -1.909 124.274  0.00  0.00    +0.146 C 
BRANCH  21  22
ATOM     22  C   LIG A   1      -8.809  -2.576 124.757  0.00  0.00    +0.086 C 
ATOM     23  C   LIG A   1      -9.521  -3.307 123.614  0.00  0.00    +0.043 C 
ATOM     24  C   LIG A   1      -8.550  -3.561 125.904  0.00  0.00    +0.043 C 
BRANCH  22  25
ATOM     25  O   LIG A   1      -9.673  -1.562 125.296  0.00  0.00    -0.387 OA
ATOM     26  H   LIG A   1     -10.351  -1.349 124.632  0.00  0.00    +0.210 HD
ENDBRANCH  22  25
ENDBRANCH  21  22
BRANCH  21  27
ATOM     27  O   LIG A   1      -7.273  -2.204 122.888  0.00  0.00    -0.389 OA
ATOM     28  H   LIG A   1      -7.508  -3.144 122.772  0.00  0.00    +0.210 HD
ENDBRANCH  21  27
ENDBRANCH  20  21
ENDBRANCH  19  20
ENDBRANCH  17  19
ENDBRANCH   1  18
TORSDOF 9
ENDMDL
MODEL 2
REMARK VINA RESULT:      -7.4      4.895      7.992
REMARK  Name = NuBBE_1108
REMARK  14 active torsions:
REMARK  status: ('A' for Active; 'I' for Inactive)
REMARK    1  A    between atoms: C_1  and  C_2
REMARK    2  A    between atoms: C_2  and  C_3
REMARK    3  A    between atoms: C_3  and  C_4
REMARK    4  A    between atoms: C_4  and  C_5
REMARK    5  A    between atoms: C_5  and  O_6
REMARK    6  A    between atoms: C_5  and  C_7
REMARK    7  A    between atoms: C_7  and  O_8
REMARK    8  A    between atoms: C_7  and  C_9
REMARK    9  A    between atoms: C_7  and  C_10
REMARK   10  A    between atoms: C_11  and  C_12
REMARK   11  A    between atoms: C_12  and  C_13
REMARK   12  A    between atoms: C_14  and  O_15
REMARK   13  A    between atoms: O_15  and  C_16
REMARK   14  A    between atoms: N_19  and  C_20
REMARK                            x       y       z     vdW  Elec       q    Type
REMARK                         _______ _______ _______ _____ _____    ______ ____
ROOT
ATOM      1  C   LIG A   1      -7.648   1.486 127.993  0.00  0.00    +0.071 C 
ENDROOT
BRANCH   1   2
ATOM      2  C   LIG A   1      -8.172   0.584 126.888  0.00  0.00    +0.063 A 
ATOM      3  C   LIG A   1      -8.230  -0.770 126.862  0.00  0.00    +0.138 A 
ATOM      4  C   LIG A   1      -8.607  -1.470 125.605  0.00  0.00    +0.041 A 
ATOM      5  C   LIG A   1      -8.898  -0.737 124.448  0.00  0.00    +0.055 A 
ATOM      6  N   LIG A   1      -8.926   0.681 124.518  0.00  0.00    -0.311 N 
ATOM      7  C   LIG A   1      -9.305   1.457 123.346  0.00  0.00    +0.152 C 
ATOM      8  C   LIG A   1      -8.644   1.362 125.690  0.00  0.00    +0.259 A 
ATOM      9  O   LIG A   1      -8.757   2.593 125.775  0.00  0.00    -0.267 OA
ATOM     10  C   LIG A   1      -9.173  -1.417 123.245  0.00  0.00    +0.026 A 
ATOM     11  C   LIG A   1      -9.189  -2.811 123.191  0.00  0.00    +0.002 A 
ATOM     12  C   LIG A   1      -8.935  -3.544 124.341  0.00  0.00    +0.001 A 
ATOM     13  C   LIG A   1      -8.645  -2.880 125.535  0.00  0.00    +0.013 A 
BRANCH   3  14
ATOM     14  O   LIG A   1      -7.894  -1.654 127.863  0.00  0.00    -0.494 OA
ATOM     15  C   LIG A   1      -6.537  -1.895 128.189  0.00  0.00    +0.277 C 
ENDBRANCH   3  14
ENDBRANCH   1   2
BRANCH   1  18
ATOM     16  C   LIG A   1      -7.981   4.340 129.246  0.00  0.00    +0.038 C 
ATOM     17  C   LIG A   1      -8.894   3.166 129.477  0.00  0.00    -0.076 C 
ATOM     18  C   LIG A   1      -8.750   1.946 128.916  0.00  0.00    -0.023 C 
BRANCH  17  19
ATOM     19  C   LIG A   1     -10.020   3.422 130.461  0.00  0.00    +0.033 C 
BRANCH  19  20
ATOM     20  C   LIG A   1     -10.051   4.875 130.954  0.00  0.00    +0.038 C 
BRANCH  20  21
ATOM     21  C   LIG A   1     -11.422   5.533 130.708  0.00  0.00    +0.146 C 
BRANCH  21  22
ATOM     22  C   LIG A   1     -11.364   6.774 129.767  0.00  0.00    +0.086 C 
ATOM     23  C   LIG A   1     -12.392   7.836 130.171  0.00  0.00    +0.043 C 
ATOM     24  C   LIG A   1      -9.964   7.401 129.760  0.00  0.00    +0.043 C 
BRANCH  22  25
ATOM     25  O   LIG A   1     -11.612   6.348 128.418  0.00  0.00    -0.387 OA
ATOM     26  H   LIG A   1     -12.573   6.347 128.266  0.00  0.00    +0.210 HD
ENDBRANCH  22  25
ENDBRANCH  21  22
BRANCH  21  27
ATOM     27  O   LIG A   1     -11.960   5.914 131.981  0.00  0.00    -0.389 OA
ATOM     28  H   LIG A   1     -12.092   6.881 131.939  0.00  0.00    +0.210 HD
ENDBRANCH  21  27
ENDBRANCH  20  21
ENDBRANCH  19  20
ENDBRANCH  17  19
ENDBRANCH   1  18
TORSDOF 9
ENDMDL
MODEL 3
REMARK VINA RESULT:      -7.3      6.869      9.305
REMARK  Name = NuBBE_1108
REMARK  14 active torsions:
REMARK  status: ('A' for Active; 'I' for Inactive)
REMARK    1  A    between atoms: C_1  and  C_2
REMARK    2  A    between atoms: C_2  and  C_3
REMARK    3  A    between atoms: C_3  and  C_4
REMARK    4  A    between atoms: C_4  and  C_5
REMARK    5  A    between atoms: C_5  and  O_6
REMARK    6  A    between atoms: C_5  and  C_7
REMARK    7  A    between atoms: C_7  and  O_8
REMARK    8  A    between atoms: C_7  and  C_9
REMARK    9  A    between atoms: C_7  and  C_10
REMARK   10  A    between atoms: C_11  and  C_12
REMARK   11  A    between atoms: C_12  and  C_13
REMARK   12  A    between atoms: C_14  and  O_15
REMARK   13  A    between atoms: O_15  and  C_16
REMARK   14  A    between atoms: N_19  and  C_20
REMARK                            x       y       z     vdW  Elec       q    Type
REMARK                         _______ _______ _______ _____ _____    ______ ____
ROOT
ATOM      1  C   LIG A   1      -6.293   6.492 131.384  0.00  0.00    +0.071 C 
ENDROOT
BRANCH   1   2
ATOM      2  C   LIG A   1      -5.502   5.865 130.247  0.00  0.00    +0.063 A 
ATOM      3  C   LIG A   1      -5.731   4.694 129.606  0.00  0.00    +0.138 A 
ATOM      4  C   LIG A   1      -4.727   4.168 128.644  0.00  0.00    +0.041 A 
ATOM      5  C   LIG A   1      -3.543   4.877 128.401  0.00  0.00    +0.055 A 
ATOM      6  N   LIG A   1      -3.363   6.148 129.007  0.00  0.00    -0.311 N 
ATOM      7  C   LIG A   1      -2.176   6.934 128.701  0.00  0.00    +0.152 C 
ATOM      8  C   LIG A   1      -4.309   6.695 129.856  0.00  0.00    +0.259 A 
ATOM      9  O   LIG A   1      -4.194   7.841 130.312  0.00  0.00    -0.267 OA
ATOM     10  C   LIG A   1      -2.566   4.325 127.549  0.00  0.00    +0.026 A 
ATOM     11  C   LIG A   1      -2.767   3.096 126.919  0.00  0.00    +0.002 A 
ATOM     12  C   LIG A   1      -3.950   2.404 127.129  0.00  0.00    +0.001 A 
ATOM     13  C   LIG A   1      -4.919   2.935 127.984  0.00  0.00    +0.013 A 
BRANCH   3  14
ATOM     14  O   LIG A   1      -6.781   3.820 129.783  0.00  0.00    -0.494 OA
ATOM     15  C   LIG A   1      -6.849   2.993 130.930  0.00  0.00    +0.277 C 
ENDBRANCH   3  14
ENDBRANCH   1   2
BRANCH   1  18
ATOM     16  C   LIG A   1      -8.979   5.623 132.746  0.00  0.00    +0.038 C 
ATOM     17  C   LIG A   1      -8.854   6.490 131.522  0.00  0.00    -0.076 C 
ATOM     18  C   LIG A   1      -7.690   6.873 130.956  0.00  0.00    -0.023 C 
BRANCH  17  19
ATOM     19  C   LIG A   1     -10.175   6.897 130.896  0.00  0.00    +0.033 C 
BRANCH  19  20
ATOM     20  C   LIG A   1     -10.080   7.053 129.372  0.00  0.00    +0.038 C 
BRANCH  20  21
ATOM     21  C   LIG A   1     -11.112   8.063 128.836  0.00  0.00    +0.146 C 
BRANCH  21  22
ATOM     22  C   LIG A   1     -12.298   7.403 128.072  0.00  0.00    +0.086 C 
ATOM     23  C   LIG A   1     -13.561   8.268 128.136  0.00  0.00    +0.043 C 
ATOM     24  C   LIG A   1     -11.937   7.141 126.604  0.00  0.00    +0.043 C 
BRANCH  22  25
ATOM     25  O   LIG A   1     -12.564   6.113 128.647  0.00  0.00    -0.387 OA
ATOM     26  H   LIG A   1     -13.488   6.095 128.951  0.00  0.00    +0.210 HD
ENDBRANCH  22  25
ENDBRANCH  21  22
BRANCH  21  27
ATOM     27  O   LIG A   1     -10.424   8.974 127.969  0.00  0.00    -0.389 OA
ATOM     28  H   LIG A   1     -10.544   9.861 128.359  0.00  0.00    +0.210 HD
ENDBRANCH  21  27
ENDBRANCH  20  21
ENDBRANCH  19  20
ENDBRANCH  17  19
ENDBRANCH   1  18
TORSDOF 9
ENDMDL
MODEL 4
REMARK VINA RESULT:      -7.2      7.754     10.076
REMARK  Name = NuBBE_1108
REMARK  14 active torsions:
REMARK  status: ('A' for Active; 'I' for Inactive)
REMARK    1  A    between atoms: C_1  and  C_2
REMARK    2  A    between atoms: C_2  and  C_3
REMARK    3  A    between atoms: C_3  and  C_4
REMARK    4  A    between atoms: C_4  and  C_5
REMARK    5  A    between atoms: C_5  and  O_6
REMARK    6  A    between atoms: C_5  and  C_7
REMARK    7  A    between atoms: C_7  and  O_8
REMARK    8  A    between atoms: C_7  and  C_9
REMARK    9  A    between atoms: C_7  and  C_10
REMARK   10  A    between atoms: C_11  and  C_12
REMARK   11  A    between atoms: C_12  and  C_13
REMARK   12  A    between atoms: C_14  and  O_15
REMARK   13  A    between atoms: O_15  and  C_16
REMARK   14  A    between atoms: N_19  and  C_20
REMARK                            x       y       z     vdW  Elec       q    Type
REMARK                         _______ _______ _______ _____ _____    ______ ____
ROOT
ATOM      1  C   LIG A   1      -6.505   6.492 131.794  0.00  0.00    +0.071 C 
ENDROOT
BRANCH   1   2
ATOM      2  C   LIG A   1      -5.549   5.656 130.959  0.00  0.00    +0.063 A 
ATOM      3  C   LIG A   1      -4.802   6.039 129.896  0.00  0.00    +0.138 A 
ATOM      4  C   LIG A   1      -4.070   5.019 129.099  0.00  0.00    +0.041 A 
ATOM      5  C   LIG A   1      -4.155   3.662 129.440  0.00  0.00    +0.055 A 
ATOM      6  N   LIG A   1      -4.864   3.288 130.612  0.00  0.00    -0.311 N 
ATOM      7  C   LIG A   1      -4.894   1.893 131.026  0.00  0.00    +0.152 C 
ATOM      8  C   LIG A   1      -5.500   4.221 131.412  0.00  0.00    +0.259 A 
ATOM      9  O   LIG A   1      -6.040   3.907 132.482  0.00  0.00    -0.267 OA
ATOM     10  C   LIG A   1      -3.523   2.701 128.627  0.00  0.00    +0.026 A 
ATOM     11  C   LIG A   1      -2.789   3.077 127.501  0.00  0.00    +0.002 A 
ATOM     12  C   LIG A   1      -2.673   4.419 127.176  0.00  0.00    +0.001 A 
ATOM     13  C   LIG A   1      -3.309   5.380 127.966  0.00  0.00    +0.013 A 
BRANCH   3  14
ATOM     14  O   LIG A   1      -4.673   7.300 129.358  0.00  0.00    -0.494 OA
ATOM     15  C   LIG A   1      -3.887   8.285 130.005  0.00  0.00    +0.277 C 
ENDBRANCH   3  14
ENDBRANCH   1   2
BRANCH   1  18
ATOM     16  C   LIG A   1      -9.095   5.413 133.190  0.00  0.00    +0.038 C 
ATOM     17  C   LIG A   1      -9.024   6.007 131.808  0.00  0.00    -0.076 C 
ATOM     18  C   LIG A   1      -7.904   6.486 131.225  0.00  0.00    -0.023 C 
BRANCH  17  19
ATOM     19  C   LIG A   1     -10.335   5.998 131.045  0.00  0.00    +0.033 C 
BRANCH  19  20
ATOM     20  C   LIG A   1     -10.467   7.192 130.090  0.00  0.00    +0.038 C 
BRANCH  20  21
ATOM     21  C   LIG A   1     -11.921   7.389 129.621  0.00  0.00    +0.146 C 
BRANCH  21  22
ATOM     22  C   LIG A   1     -12.045   8.103 128.241  0.00  0.00    +0.086 C 
ATOM     23  C   LIG A   1     -10.691   8.200 127.532  0.00  0.00    +0.043 C 
ATOM     24  C   LIG A   1     -13.045   7.381 127.328  0.00  0.00    +0.043 C 
BRANCH  22  25
ATOM     25  O   LIG A   1     -12.580   9.421 128.446  0.00  0.00    -0.387 OA
ATOM     26  H   LIG A   1     -13.409   9.500 127.943  0.00  0.00    +0.210 HD
ENDBRANCH  22  25
ENDBRANCH  21  22
BRANCH  21  27
ATOM     27  O   LIG A   1     -12.606   8.150 130.624  0.00  0.00    -0.389 OA
ATOM     28  H   LIG A   1     -13.551   7.922 130.538  0.00  0.00    +0.210 HD
ENDBRANCH  21  27
ENDBRANCH  20  21
ENDBRANCH  19  20
ENDBRANCH  17  19
ENDBRANCH   1  18
TORSDOF 9
ENDMDL
MODEL 5
REMARK VINA RESULT:      -7.1      5.728      9.432
REMARK  Name = NuBBE_1108
REMARK  14 active torsions:
REMARK  status: ('A' for Active; 'I' for Inactive)
REMARK    1  A    between atoms: C_1  and  C_2
REMARK    2  A    between atoms: C_2  and  C_3
REMARK    3  A    between atoms: C_3  and  C_4
REMARK    4  A    between atoms: C_4  and  C_5
REMARK    5  A    between atoms: C_5  and  O_6
REMARK    6  A    between atoms: C_5  and  C_7
REMARK    7  A    between atoms: C_7  and  O_8
REMARK    8  A    between atoms: C_7  and  C_9
REMARK    9  A    between atoms: C_7  and  C_10
REMARK   10  A    between atoms: C_11  and  C_12
REMARK   11  A    between atoms: C_12  and  C_13
REMARK   12  A    between atoms: C_14  and  O_15
REMARK   13  A    between atoms: O_15  and  C_16
REMARK   14  A    between atoms: N_19  and  C_20
REMARK                            x       y       z     vdW  Elec       q    Type
REMARK                         _______ _______ _______ _____ _____    ______ ____
ROOT
ATOM      1  C   LIG A   1      -7.141   1.928 130.042  0.00  0.00    +0.071 C 
ENDROOT
BRANCH   1   2
ATOM      2  C   LIG A   1      -7.329   0.527 129.482  0.00  0.00    +0.063 A 
ATOM      3  C   LIG A   1      -7.668   0.161 128.223  0.00  0.00    +0.138 A 
ATOM      4  C   LIG A   1      -7.986  -1.261 127.925  0.00  0.00    +0.041 A 
ATOM      5  C   LIG A   1      -7.939  -2.222 128.943  0.00  0.00    +0.055 A 
ATOM      6  N   LIG A   1      -7.489  -1.840 130.234  0.00  0.00    -0.311 N 
ATOM      7  C   LIG A   1      -7.357  -2.842 131.281  0.00  0.00    +0.152 C 
ATOM      8  C   LIG A   1      -7.123  -0.537 130.526  0.00  0.00    +0.259 A 
ATOM      9  O   LIG A   1      -6.645  -0.223 131.624  0.00  0.00    -0.267 OA
ATOM     10  C   LIG A   1      -8.321  -3.549 128.662  0.00  0.00    +0.026 A 
ATOM     11  C   LIG A   1      -8.720  -3.931 127.381  0.00  0.00    +0.002 A 
ATOM     12  C   LIG A   1      -8.736  -2.992 126.361  0.00  0.00    +0.001 A 
ATOM     13  C   LIG A   1      -8.375  -1.670 126.631  0.00  0.00    +0.013 A 
BRANCH   3  14
ATOM     14  O   LIG A   1      -7.855   0.971 127.124  0.00  0.00    -0.494 OA
ATOM     15  C   LIG A   1      -6.751   1.574 126.474  0.00  0.00    +0.277 C 
ENDBRANCH   3  14
ENDBRANCH   1   2
BRANCH   1  18
ATOM     16  C   LIG A   1      -9.562   1.875 132.031  0.00  0.00    +0.038 C 
ATOM     17  C   LIG A   1      -9.463   2.720 130.789  0.00  0.00    -0.076 C 
ATOM     18  C   LIG A   1      -8.405   2.747 129.949  0.00  0.00    -0.023 C 
BRANCH  17  19
ATOM     19  C   LIG A   1     -10.696   3.549 130.485  0.00  0.00    +0.033 C 
BRANCH  19  20
ATOM     20  C   LIG A   1     -10.527   5.022 130.881  0.00  0.00    +0.038 C 
BRANCH  20  21
ATOM     21  C   LIG A   1     -11.809   5.835 130.617  0.00  0.00    +0.146 C 
BRANCH  21  22
ATOM     22  C   LIG A   1     -11.609   7.017 129.621  0.00  0.00    +0.086 C 
ATOM     23  C   LIG A   1     -12.503   8.209 129.974  0.00  0.00    +0.043 C 
ATOM     24  C   LIG A   1     -10.145   7.474 129.588  0.00  0.00    +0.043 C 
BRANCH  22  25
ATOM     25  O   LIG A   1     -11.909   6.562 128.292  0.00  0.00    -0.387 OA
ATOM     26  H   LIG A   1     -12.496   5.789 128.355  0.00  0.00    +0.210 HD
ENDBRANCH  22  25
ENDBRANCH  21  22
BRANCH  21  27
ATOM     27  O   LIG A   1     -12.277   6.336 131.876  0.00  0.00    -0.389 OA
ATOM     28  H   LIG A   1     -12.345   7.305 131.772  0.00  0.00    +0.210 HD
ENDBRANCH  21  27
ENDBRANCH  20  21
ENDBRANCH  19  20
ENDBRANCH  17  19
ENDBRANCH   1  18
TORSDOF 9
ENDMDL
MODEL 6
REMARK VINA RESULT:      -7.1      4.546      7.669
REMARK  Name = NuBBE_1108
REMARK  14 active torsions:
REMARK  status: ('A' for Active; 'I' for Inactive)
REMARK    1  A    between atoms: C_1  and  C_2
REMARK    2  A    between atoms: C_2  and  C_3
REMARK    3  A    between atoms: C_3  and  C_4
REMARK    4  A    between atoms: C_4  and  C_5
REMARK    5  A    between atoms: C_5  and  O_6
REMARK    6  A    between atoms: C_5  and  C_7
REMARK    7  A    between atoms: C_7  and  O_8
REMARK    8  A    between atoms: C_7  and  C_9
REMARK    9  A    between atoms: C_7  and  C_10
REMARK   10  A    between atoms: C_11  and  C_12
REMARK   11  A    between atoms: C_12  and  C_13
REMARK   12  A    between atoms: C_14  and  O_15
REMARK   13  A    between atoms: O_15  and  C_16
REMARK   14  A    between atoms: N_19  and  C_20
REMARK                            x       y       z     vdW  Elec       q    Type
REMARK                         _______ _______ _______ _____ _____    ______ ____
ROOT
ATOM      1  C   LIG A   1      -7.607   1.345 128.086  0.00  0.00    +0.071 C 
ENDROOT
BRANCH   1   2
ATOM      2  C   LIG A   1      -8.112   0.407 127.000  0.00  0.00    +0.063 A 
ATOM      3  C   LIG A   1      -8.031  -0.944 126.949  0.00  0.00    +0.138 A 
ATOM      4  C   LIG A   1      -8.420  -1.663 125.707  0.00  0.00    +0.041 A 
ATOM      5  C   LIG A   1      -8.865  -0.947 124.587  0.00  0.00    +0.055 A 
ATOM      6  N   LIG A   1      -9.034   0.459 124.689  0.00  0.00    -0.311 N 
ATOM      7  C   LIG A   1      -9.573   1.207 123.562  0.00  0.00    +0.152 C 
ATOM      8  C   LIG A   1      -8.744   1.149 125.853  0.00  0.00    +0.259 A 
ATOM      9  O   LIG A   1      -8.978   2.360 125.972  0.00  0.00    -0.267 OA
ATOM     10  C   LIG A   1      -9.152  -1.636 123.392  0.00  0.00    +0.026 A 
ATOM     11  C   LIG A   1      -9.027  -3.023 123.310  0.00  0.00    +0.002 A 
ATOM     12  C   LIG A   1      -8.620  -3.741 124.424  0.00  0.00    +0.001 A 
ATOM     13  C   LIG A   1      -8.317  -3.067 125.609  0.00  0.00    +0.013 A 
BRANCH   3  14
ATOM     14  O   LIG A   1      -7.536  -1.802 127.906  0.00  0.00    -0.494 OA
ATOM     15  C   LIG A   1      -6.140  -1.950 128.092  0.00  0.00    +0.277 C 
ENDBRANCH   3  14
ENDBRANCH   1   2
BRANCH   1  18
ATOM     16  C   LIG A   1      -6.347   0.540 130.840  0.00  0.00    +0.038 C 
ATOM     17  C   LIG A   1      -7.810   0.776 130.578  0.00  0.00    -0.076 C 
ATOM     18  C   LIG A   1      -8.339   1.141 129.391  0.00  0.00    -0.023 C 
BRANCH  17  19
ATOM     19  C   LIG A   1      -8.716   0.526 131.769  0.00  0.00    +0.033 C 
BRANCH  19  20
ATOM     20  C   LIG A   1      -9.818   1.585 131.904  0.00  0.00    +0.038 C 
BRANCH  20  21
ATOM     21  C   LIG A   1      -9.449   2.663 132.941  0.00  0.00    +0.146 C 
BRANCH  21  22
ATOM     22  C   LIG A   1      -9.316   4.095 132.338  0.00  0.00    +0.086 C 
ATOM     23  C   LIG A   1      -7.853   4.544 132.271  0.00  0.00    +0.043 C 
ATOM     24  C   LIG A   1      -9.933   4.167 130.936  0.00  0.00    +0.043 C 
BRANCH  22  25
ATOM     25  O   LIG A   1     -10.068   5.013 133.148  0.00  0.00    -0.387 OA
ATOM     26  H   LIG A   1     -11.013   4.894 132.952  0.00  0.00    +0.210 HD
ENDBRANCH  22  25
ENDBRANCH  21  22
BRANCH  21  27
ATOM     27  O   LIG A   1      -8.211   2.278 133.552  0.00  0.00    -0.389 OA
ATOM     28  H   LIG A   1      -7.557   2.954 133.287  0.00  0.00    +0.210 HD
ENDBRANCH  21  27
ENDBRANCH  20  21
ENDBRANCH  19  20
ENDBRANCH  17  19
ENDBRANCH   1  18
TORSDOF 9
ENDMDL
MODEL 7
REMARK VINA RESULT:      -7.0      6.414     11.009
REMARK  Name = NuBBE_1108
REMARK  14 active torsions:
REMARK  status: ('A' for Active; 'I' for Inactive)
REMARK    1  A    between atoms: C_1  and  C_2
REMARK    2  A    between atoms: C_2  and  C_3
REMARK    3  A    between atoms: C_3  and  C_4
REMARK    4  A    between atoms: C_4  and  C_5
REMARK    5  A    between atoms: C_5  and  O_6
REMARK    6  A    between atoms: C_5  and  C_7
REMARK    7  A    between atoms: C_7  and  O_8
REMARK    8  A    between atoms: C_7  and  C_9
REMARK    9  A    between atoms: C_7  and  C_10
REMARK   10  A    between atoms: C_11  and  C_12
REMARK   11  A    between atoms: C_12  and  C_13
REMARK   12  A    between atoms: C_14  and  O_15
REMARK   13  A    between atoms: O_15  and  C_16
REMARK   14  A    between atoms: N_19  and  C_20
REMARK                            x       y       z     vdW  Elec       q    Type
REMARK                         _______ _______ _______ _____ _____    ______ ____
ROOT
ATOM      1  C   LIG A   1      -7.462  -1.838 130.659  0.00  0.00    +0.071 C 
ENDROOT
BRANCH   1   2
ATOM      2  C   LIG A   1      -6.912  -2.694 131.789  0.00  0.00    +0.063 A 
ATOM      3  C   LIG A   1      -5.876  -3.567 131.758  0.00  0.00    +0.138 A 
ATOM      4  C   LIG A   1      -5.615  -4.449 132.926  0.00  0.00    +0.041 A 
ATOM      5  C   LIG A   1      -6.439  -4.383 134.057  0.00  0.00    +0.055 A 
ATOM      6  N   LIG A   1      -7.460  -3.397 134.112  0.00  0.00    -0.311 N 
ATOM      7  C   LIG A   1      -8.272  -3.262 135.313  0.00  0.00    +0.152 C 
ATOM      8  C   LIG A   1      -7.686  -2.518 133.067  0.00  0.00    +0.259 A 
ATOM      9  O   LIG A   1      -8.513  -1.601 133.152  0.00  0.00    -0.267 OA
ATOM     10  C   LIG A   1      -6.229  -5.281 135.123  0.00  0.00    +0.026 A 
ATOM     11  C   LIG A   1      -5.196  -6.219 135.084  0.00  0.00    +0.002 A 
ATOM     12  C   LIG A   1      -4.356  -6.267 133.982  0.00  0.00    +0.001 A 
ATOM     13  C   LIG A   1      -4.565  -5.392 132.914  0.00  0.00    +0.013 A 
BRANCH   3  14
ATOM     14  O   LIG A   1      -5.023  -3.837 130.710  0.00  0.00    -0.494 OA
ATOM     15  C   LIG A   1      -3.974  -2.943 130.383  0.00  0.00    +0.277 C 
ENDBRANCH   3  14
ENDBRANCH   1   2
BRANCH   1  18
ATOM     16  C   LIG A   1      -6.463  -2.252 127.717  0.00  0.00    +0.038 C 
ATOM     17  C   LIG A   1      -7.712  -2.844 128.313  0.00  0.00    -0.076 C 
ATOM     18  C   LIG A   1      -8.122  -2.673 129.588  0.00  0.00    -0.023 C 
BRANCH  17  19
ATOM     19  C   LIG A   1      -8.557  -3.649 127.344  0.00  0.00    +0.033 C 
BRANCH  19  20
ATOM     20  C   LIG A   1      -9.174  -2.780 126.239  0.00  0.00    +0.038 C 
BRANCH  20  21
ATOM     21  C   LIG A   1      -8.821  -3.306 124.836  0.00  0.00    +0.146 C 
BRANCH  21  22
ATOM     22  C   LIG A   1      -7.805  -2.410 124.066  0.00  0.00    +0.086 C 
ATOM     23  C   LIG A   1      -7.757  -0.991 124.639  0.00  0.00    +0.043 C 
ATOM     24  C   LIG A   1      -6.395  -3.016 124.096  0.00  0.00    +0.043 C 
BRANCH  22  25
ATOM     25  O   LIG A   1      -8.183  -2.361 122.680  0.00  0.00    -0.387 OA
ATOM     26  H   LIG A   1      -7.737  -3.088 122.213  0.00  0.00    +0.210 HD
ENDBRANCH  22  25
ENDBRANCH  21  22
BRANCH  21  27
ATOM     27  O   LIG A   1     -10.040  -3.408 124.088  0.00  0.00    -0.389 OA
ATOM     28  H   LIG A   1     -10.006  -4.272 123.632  0.00  0.00    +0.210 HD
ENDBRANCH  21  27
ENDBRANCH  20  21
ENDBRANCH  19  20
ENDBRANCH  17  19
ENDBRANCH   1  18
TORSDOF 9
ENDMDL
MODEL 8
REMARK VINA RESULT:      -6.9      3.663      7.220
REMARK  Name = NuBBE_1108
REMARK  14 active torsions:
REMARK  status: ('A' for Active; 'I' for Inactive)
REMARK    1  A    between atoms: C_1  and  C_2
REMARK    2  A    between atoms: C_2  and  C_3
REMARK    3  A    between atoms: C_3  and  C_4
REMARK    4  A    between atoms: C_4  and  C_5
REMARK    5  A    between atoms: C_5  and  O_6
REMARK    6  A    between atoms: C_5  and  C_7
REMARK    7  A    between atoms: C_7  and  O_8
REMARK    8  A    between atoms: C_7  and  C_9
REMARK    9  A    between atoms: C_7  and  C_10
REMARK   10  A    between atoms: C_11  and  C_12
REMARK   11  A    between atoms: C_12  and  C_13
REMARK   12  A    between atoms: C_14  and  O_15
REMARK   13  A    between atoms: O_15  and  C_16
REMARK   14  A    between atoms: N_19  and  C_20
REMARK                            x       y       z     vdW  Elec       q    Type
REMARK                         _______ _______ _______ _____ _____    ______ ____
ROOT
ATOM      1  C   LIG A   1      -6.117  -1.788 127.877  0.00  0.00    +0.071 C 
ENDROOT
BRANCH   1   2
ATOM      2  C   LIG A   1      -6.808  -0.687 128.665  0.00  0.00    +0.063 A 
ATOM      3  C   LIG A   1      -7.498  -0.787 129.827  0.00  0.00    +0.138 A 
ATOM      4  C   LIG A   1      -8.260   0.383 130.339  0.00  0.00    +0.041 A 
ATOM      5  C   LIG A   1      -8.272   1.586 129.621  0.00  0.00    +0.055 A 
ATOM      6  N   LIG A   1      -7.467   1.704 128.457  0.00  0.00    -0.311 N 
ATOM      7  C   LIG A   1      -7.404   2.973 127.746  0.00  0.00    +0.152 C 
ATOM      8  C   LIG A   1      -6.695   0.654 127.992  0.00  0.00    +0.259 A 
ATOM      9  O   LIG A   1      -5.924   0.785 127.031  0.00  0.00    -0.267 OA
ATOM     10  C   LIG A   1      -9.064   2.659 130.077  0.00  0.00    +0.026 A 
ATOM     11  C   LIG A   1      -9.818   2.554 131.247  0.00  0.00    +0.002 A 
ATOM     12  C   LIG A   1      -9.785   1.377 131.980  0.00  0.00    +0.001 A 
ATOM     13  C   LIG A   1      -9.015   0.302 131.528  0.00  0.00    +0.013 A 
BRANCH   3  14
ATOM     14  O   LIG A   1      -7.678  -1.903 130.615  0.00  0.00    -0.494 OA
ATOM     15  C   LIG A   1      -6.612  -2.419 131.392  0.00  0.00    +0.277 C 
ENDBRANCH   3  14
ENDBRANCH   1   2
BRANCH   1  18
ATOM     16  C   LIG A   1      -5.539  -2.060 124.809  0.00  0.00    +0.038 C 
ATOM     17  C   LIG A   1      -6.798  -2.499 125.509  0.00  0.00    -0.076 C 
ATOM     18  C   LIG A   1      -7.027  -2.393 126.836  0.00  0.00    -0.023 C 
BRANCH  17  19
ATOM     19  C   LIG A   1      -7.872  -3.054 124.594  0.00  0.00    +0.033 C 
BRANCH  19  20
ATOM     20  C   LIG A   1      -9.125  -2.169 124.553  0.00  0.00    +0.038 C 
BRANCH  20  21
ATOM     21  C   LIG A   1      -8.932  -0.948 123.634  0.00  0.00    +0.146 C 
BRANCH  21  22
ATOM     22  C   LIG A   1      -8.938   0.414 124.391  0.00  0.00    +0.086 C 
ATOM     23  C   LIG A   1      -9.723   1.483 123.623  0.00  0.00    +0.043 C 
ATOM     24  C   LIG A   1      -9.530   0.266 125.799  0.00  0.00    +0.043 C 
BRANCH  22  25
ATOM     25  O   LIG A   1      -7.582   0.851 124.578  0.00  0.00    -0.387 OA
ATOM     26  H   LIG A   1      -7.250   0.478 125.413  0.00  0.00    +0.210 HD
ENDBRANCH  22  25
ENDBRANCH  21  22
BRANCH  21  27
ATOM     27  O   LIG A   1      -9.980  -0.964 122.658  0.00  0.00    -0.389 OA
ATOM     28  H   LIG A   1      -9.646  -1.498 121.911  0.00  0.00    +0.210 HD
ENDBRANCH  21  27
ENDBRANCH  20  21
ENDBRANCH  19  20
ENDBRANCH  17  19
ENDBRANCH   1  18
TORSDOF 9
ENDMDL
MODEL 9
REMARK VINA RESULT:      -6.9      1.709      2.562
REMARK  Name = NuBBE_1108
REMARK  14 active torsions:
REMARK  status: ('A' for Active; 'I' for Inactive)
REMARK    1  A    between atoms: C_1  and  C_2
REMARK    2  A    between atoms: C_2  and  C_3
REMARK    3  A    between atoms: C_3  and  C_4
REMARK    4  A    between atoms: C_4  and  C_5
REMARK    5  A    between atoms: C_5  and  O_6
REMARK    6  A    between atoms: C_5  and  C_7
REMARK    7  A    between atoms: C_7  and  O_8
REMARK    8  A    between atoms: C_7  and  C_9
REMARK    9  A    between atoms: C_7  and  C_10
REMARK   10  A    between atoms: C_11  and  C_12
REMARK   11  A    between atoms: C_12  and  C_13
REMARK   12  A    between atoms: C_14  and  O_15
REMARK   13  A    between atoms: O_15  and  C_16
REMARK   14  A    between atoms: N_19  and  C_20
REMARK                            x       y       z     vdW  Elec       q    Type
REMARK                         _______ _______ _______ _____ _____    ______ ____
ROOT
ATOM      1  C   LIG A   1      -8.998   2.000 125.928  0.00  0.00    +0.071 C 
ENDROOT
BRANCH   1   2
ATOM      2  C   LIG A   1      -8.161   2.684 124.858  0.00  0.00    +0.063 A 
ATOM      3  C   LIG A   1      -8.418   2.801 123.533  0.00  0.00    +0.138 A 
ATOM      4  C   LIG A   1      -7.377   3.347 122.623  0.00  0.00    +0.041 A 
ATOM      5  C   LIG A   1      -6.130   3.737 123.129  0.00  0.00    +0.055 A 
ATOM      6  N   LIG A   1      -5.912   3.697 124.532  0.00  0.00    -0.311 N 
ATOM      7  C   LIG A   1      -4.652   4.175 125.082  0.00  0.00    +0.152 C 
ATOM      8  C   LIG A   1      -6.884   3.256 125.412  0.00  0.00    +0.259 A 
ATOM      9  O   LIG A   1      -6.727   3.308 126.640  0.00  0.00    -0.267 OA
ATOM     10  C   LIG A   1      -5.127   4.175 122.242  0.00  0.00    +0.026 A 
ATOM     11  C   LIG A   1      -5.361   4.255 120.869  0.00  0.00    +0.002 A 
ATOM     12  C   LIG A   1      -6.603   3.903 120.364  0.00  0.00    +0.001 A 
ATOM     13  C   LIG A   1      -7.600   3.451 121.233  0.00  0.00    +0.013 A 
BRANCH   3  14
ATOM     14  O   LIG A   1      -9.538   2.389 122.846  0.00  0.00    -0.494 OA
ATOM     15  C   LIG A   1      -9.842   1.012 122.716  0.00  0.00    +0.277 C 
ENDBRANCH   3  14
ENDBRANCH   1   2
BRANCH   1  18
ATOM     16  C   LIG A   1      -7.917   0.561 128.493  0.00  0.00    +0.038 C 
ATOM     17  C   LIG A   1      -8.167  -0.090 127.159  0.00  0.00    -0.076 C 
ATOM     18  C   LIG A   1      -8.651   0.537 126.066  0.00  0.00    -0.023 C 
BRANCH  17  19
ATOM     19  C   LIG A   1      -7.783  -1.556 127.087  0.00  0.00    +0.033 C 
BRANCH  19  20
ATOM     20  C   LIG A   1      -8.135  -2.191 125.735  0.00  0.00    +0.038 C 
BRANCH  20  21
ATOM     21  C   LIG A   1      -6.929  -2.923 125.117  0.00  0.00    +0.146 C 
BRANCH  21  22
ATOM     22  C   LIG A   1      -6.012  -2.006 124.253  0.00  0.00    +0.086 C 
ATOM     23  C   LIG A   1      -6.825  -1.171 123.258  0.00  0.00    +0.043 C 
ATOM     24  C   LIG A   1      -5.175  -1.069 125.134  0.00  0.00    +0.043 C 
BRANCH  22  25
ATOM     25  O   LIG A   1      -5.070  -2.825 123.542  0.00  0.00    -0.387 OA
ATOM     26  H   LIG A   1      -4.401  -2.246 123.138  0.00  0.00    +0.210 HD
ENDBRANCH  22  25
ENDBRANCH  21  22
BRANCH  21  27
ATOM     27  O   LIG A   1      -7.434  -3.997 124.313  0.00  0.00    -0.389 OA
ATOM     28  H   LIG A   1      -6.772  -4.712 124.371  0.00  0.00    +0.210 HD
ENDBRANCH  21  27
ENDBRANCH  20  21
ENDBRANCH  19  20
ENDBRANCH  17  19
ENDBRANCH   1  18
TORSDOF 9
ENDMDL
