MODEL 1
REMARK VINA RESULT:      -8.2      0.000      0.000
REMARK  Name = NuBBE_1448
REMARK  7 active torsions:
REMARK  status: ('A' for Active; 'I' for Inactive)
REMARK    1  A    between atoms: C_5  and  O_30
REMARK    2  A    between atoms: C_10  and  C_12
REMARK    3  A    between atoms: C_12  and  C_13
REMARK    4  A    between atoms: C_23  and  O_28
REMARK    5  A    between atoms: C_24  and  O_25
REMARK    6  A    between atoms: O_25  and  C_26
REMARK    7  A    between atoms: O_28  and  C_29
REMARK                            x       y       z     vdW  Elec       q    Type
REMARK                         _______ _______ _______ _____ _____    ______ ____
ROOT
ATOM      1  C   LIG A   1      -7.072   1.317 127.000  0.00  0.00    +0.138 C 
ATOM      2  C   LIG A   1      -8.320   1.523 126.163  0.00  0.00    +0.181 C 
ATOM      3  C   LIG A   1      -8.150   2.054 124.797  0.00  0.00    +0.102 A 
ATOM      4  C   LIG A   1      -9.245   2.199 123.921  0.00  0.00    +0.134 A 
ATOM      5  C   LIG A   1      -9.067   2.698 122.630  0.00  0.00    +0.092 A 
ATOM      6  C   LIG A   1      -7.790   3.051 122.247  0.00  0.00    +0.132 A 
ATOM      7  C   LIG A   1      -6.710   2.939 123.107  0.00  0.00    +0.041 A 
ATOM      8  C   LIG A   1      -5.492   3.455 122.442  0.00  0.00    +0.091 C 
ATOM      9  C   LIG A   1      -6.010   3.561 120.997  0.00  0.00    +0.203 C 
ATOM     10  O   LIG A   1      -7.464   3.547 121.013  0.00  0.00    -0.484 OA
ATOM     11  C   LIG A   1      -6.870   2.431 124.384  0.00  0.00    +0.142 A 
ATOM     12  O   LIG A   1      -5.758   2.337 125.166  0.00  0.00    -0.483 OA
ATOM     13  C   LIG A   1      -5.827   1.267 126.118  0.00  0.00    +0.226 C 
ATOM     14  C   LIG A   1      -5.582  -0.102 125.443  0.00  0.00    +0.274 C 
ATOM     15  O   LIG A   1      -6.528  -1.129 125.764  0.00  0.00    -0.488 OA
ATOM     16  C   LIG A   1      -6.830  -1.153 127.097  0.00  0.00    +0.128 A 
ATOM     17  C   LIG A   1      -7.110   0.028 127.779  0.00  0.00    +0.012 A 
ATOM     18  C   LIG A   1      -7.433  -0.038 129.134  0.00  0.00    +0.057 A 
ATOM     19  C   LIG A   1      -7.447  -1.272 129.807  0.00  0.00    +0.162 A 
ATOM     20  C   LIG A   1      -7.189  -2.461 129.098  0.00  0.00    +0.165 A 
ATOM     21  C   LIG A   1      -6.906  -2.389 127.729  0.00  0.00    +0.095 A 
ATOM     22  O   LIG A   1      -9.462   1.324 126.579  0.00  0.00    -0.291 OA
ENDROOT
BRANCH   9  23
ATOM     23  C   LIG A   1      -5.508   4.799 120.279  0.00  0.00    -0.040 C 
ATOM     24  C   LIG A   1      -6.159   5.147 118.969  0.00  0.00    +0.042 C 
ATOM     25  C   LIG A   1      -4.525   5.560 120.793  0.00  0.00    +0.011 C 
ENDBRANCH   9  23
BRANCH  20  26
ATOM     26  O   LIG A   1      -7.302  -3.659 129.753  0.00  0.00    -0.491 OA
ATOM     27  C   LIG A   1      -6.123  -4.127 130.404  0.00  0.00    +0.277 C 
ENDBRANCH  20  26
BRANCH  19  28
ATOM     28  O   LIG A   1      -7.755  -1.156 131.139  0.00  0.00    -0.491 OA
ATOM     29  C   LIG A   1      -8.652  -0.111 131.495  0.00  0.00    +0.277 C 
ENDBRANCH  19  28
BRANCH   4  30
ATOM     30  O   LIG A   1     -10.526   1.867 124.275  0.00  0.00    -0.506 OA
ATOM     31  H   LIG A   1     -10.490   1.047 124.819  0.00  0.00    +0.292 HD
ENDBRANCH   4  30
TORSDOF 4
ENDMDL
MODEL 2
REMARK VINA RESULT:      -7.9      4.149      6.639
REMARK  Name = NuBBE_1448
REMARK  7 active torsions:
REMARK  status: ('A' for Active; 'I' for Inactive)
REMARK    1  A    between atoms: C_5  and  O_30
REMARK    2  A    between atoms: C_10  and  C_12
REMARK    3  A    between atoms: C_12  and  C_13
REMARK    4  A    between atoms: C_23  and  O_28
REMARK    5  A    between atoms: C_24  and  O_25
REMARK    6  A    between atoms: O_25  and  C_26
REMARK    7  A    between atoms: O_28  and  C_29
REMARK                            x       y       z     vdW  Elec       q    Type
REMARK                         _______ _______ _______ _____ _____    ______ ____
ROOT
ATOM      1  C   LIG A   1      -5.316   3.283 127.187  0.00  0.00    +0.138 C 
ATOM      2  C   LIG A   1      -6.557   3.597 126.373  0.00  0.00    +0.181 C 
ATOM      3  C   LIG A   1      -7.380   2.462 125.912  0.00  0.00    +0.102 A 
ATOM      4  C   LIG A   1      -8.592   2.664 125.222  0.00  0.00    +0.134 A 
ATOM      5  C   LIG A   1      -9.362   1.580 124.797  0.00  0.00    +0.092 A 
ATOM      6  C   LIG A   1      -8.890   0.312 125.066  0.00  0.00    +0.132 A 
ATOM      7  C   LIG A   1      -7.688   0.100 125.719  0.00  0.00    +0.041 A 
ATOM      8  C   LIG A   1      -7.418  -1.354 125.801  0.00  0.00    +0.091 C 
ATOM      9  C   LIG A   1      -8.797  -1.898 125.386  0.00  0.00    +0.203 C 
ATOM     10  O   LIG A   1      -9.540  -0.842 124.716  0.00  0.00    -0.484 OA
ATOM     11  C   LIG A   1      -6.924   1.166 126.160  0.00  0.00    +0.142 A 
ATOM     12  O   LIG A   1      -5.759   0.878 126.807  0.00  0.00    -0.483 OA
ATOM     13  C   LIG A   1      -5.388   1.874 127.769  0.00  0.00    +0.226 C 
ATOM     14  C   LIG A   1      -6.240   1.760 129.054  0.00  0.00    +0.274 C 
ATOM     15  O   LIG A   1      -6.808   2.987 129.530  0.00  0.00    -0.488 OA
ATOM     16  C   LIG A   1      -5.915   4.021 129.482  0.00  0.00    +0.128 A 
ATOM     17  C   LIG A   1      -5.137   4.229 128.346  0.00  0.00    +0.012 A 
ATOM     18  C   LIG A   1      -4.251   5.306 128.326  0.00  0.00    +0.057 A 
ATOM     19  C   LIG A   1      -4.125   6.150 129.443  0.00  0.00    +0.162 A 
ATOM     20  C   LIG A   1      -4.939   5.944 130.573  0.00  0.00    +0.165 A 
ATOM     21  C   LIG A   1      -5.855   4.886 130.569  0.00  0.00    +0.095 A 
ATOM     22  O   LIG A   1      -6.882   4.736 126.035  0.00  0.00    -0.291 OA
ENDROOT
BRANCH   9  23
ATOM     23  C   LIG A   1      -8.704  -3.119 124.493  0.00  0.00    -0.040 C 
ATOM     24  C   LIG A   1      -9.664  -3.202 123.338  0.00  0.00    +0.042 C 
ATOM     25  C   LIG A   1      -7.799  -4.088 124.717  0.00  0.00    +0.011 C 
ENDBRANCH   9  23
BRANCH  20  26
ATOM     26  O   LIG A   1      -4.867   6.836 131.611  0.00  0.00    -0.491 OA
ATOM     27  C   LIG A   1      -4.131   6.406 132.753  0.00  0.00    +0.277 C 
ENDBRANCH  20  26
BRANCH  19  28
ATOM     28  O   LIG A   1      -3.192   7.140 129.268  0.00  0.00    -0.491 OA
ATOM     29  C   LIG A   1      -2.287   6.976 128.182  0.00  0.00    +0.277 C 
ENDBRANCH  19  28
BRANCH   4  30
ATOM     30  O   LIG A   1      -9.081   3.910 124.932  0.00  0.00    -0.506 OA
ATOM     31  H   LIG A   1      -9.462   3.886 124.024  0.00  0.00    +0.292 HD
ENDBRANCH   4  30
TORSDOF 4
ENDMDL
MODEL 3
REMARK VINA RESULT:      -7.8      2.011      2.200
REMARK  Name = NuBBE_1448
REMARK  7 active torsions:
REMARK  status: ('A' for Active; 'I' for Inactive)
REMARK    1  A    between atoms: C_5  and  O_30
REMARK    2  A    between atoms: C_10  and  C_12
REMARK    3  A    between atoms: C_12  and  C_13
REMARK    4  A    between atoms: C_23  and  O_28
REMARK    5  A    between atoms: C_24  and  O_25
REMARK    6  A    between atoms: O_25  and  C_26
REMARK    7  A    between atoms: O_28  and  C_29
REMARK                            x       y       z     vdW  Elec       q    Type
REMARK                         _______ _______ _______ _____ _____    ______ ____
ROOT
ATOM      1  C   LIG A   1      -6.463   3.168 127.483  0.00  0.00    +0.138 C 
ATOM      2  C   LIG A   1      -7.722   2.716 126.767  0.00  0.00    +0.181 C 
ATOM      3  C   LIG A   1      -7.742   2.801 125.295  0.00  0.00    +0.102 A 
ATOM      4  C   LIG A   1      -8.837   2.327 124.544  0.00  0.00    +0.134 A 
ATOM      5  C   LIG A   1      -8.840   2.410 123.151  0.00  0.00    +0.092 A 
ATOM      6  C   LIG A   1      -7.742   2.979 122.540  0.00  0.00    +0.132 A 
ATOM      7  C   LIG A   1      -6.672   3.474 123.267  0.00  0.00    +0.041 A 
ATOM      8  C   LIG A   1      -5.686   4.082 122.344  0.00  0.00    +0.091 C 
ATOM      9  C   LIG A   1      -6.227   3.557 121.002  0.00  0.00    +0.203 C 
ATOM     10  O   LIG A   1      -7.603   3.122 121.185  0.00  0.00    -0.484 OA
ATOM     11  C   LIG A   1      -6.651   3.383 124.647  0.00  0.00    +0.142 A 
ATOM     12  O   LIG A   1      -5.557   3.879 125.292  0.00  0.00    -0.483 OA
ATOM     13  C   LIG A   1      -5.275   3.204 126.525  0.00  0.00    +0.226 C 
ATOM     14  C   LIG A   1      -4.620   1.827 126.274  0.00  0.00    +0.274 C 
ATOM     15  O   LIG A   1      -5.192   0.729 126.996  0.00  0.00    -0.488 OA
ATOM     16  C   LIG A   1      -5.456   1.049 128.298  0.00  0.00    +0.128 A 
ATOM     17  C   LIG A   1      -6.086   2.250 128.616  0.00  0.00    +0.012 A 
ATOM     18  C   LIG A   1      -6.357   2.533 129.954  0.00  0.00    +0.057 A 
ATOM     19  C   LIG A   1      -5.974   1.637 130.968  0.00  0.00    +0.162 A 
ATOM     20  C   LIG A   1      -5.364   0.415 130.629  0.00  0.00    +0.165 A 
ATOM     21  C   LIG A   1      -5.133   0.120 129.280  0.00  0.00    +0.095 A 
ATOM     22  O   LIG A   1      -8.739   2.335 127.350  0.00  0.00    -0.291 OA
ENDROOT
BRANCH   9  23
ATOM     23  C   LIG A   1      -6.147   4.586 119.892  0.00  0.00    -0.040 C 
ATOM     24  C   LIG A   1      -7.230   4.558 118.848  0.00  0.00    +0.042 C 
ATOM     25  C   LIG A   1      -5.155   5.492 119.842  0.00  0.00    +0.011 C 
ENDBRANCH   9  23
BRANCH  20  26
ATOM     26  O   LIG A   1      -5.087  -0.484 131.625  0.00  0.00    -0.491 OA
ATOM     27  C   LIG A   1      -4.364  -1.647 131.232  0.00  0.00    +0.277 C 
ENDBRANCH  20  26
BRANCH  19  28
ATOM     28  O   LIG A   1      -6.289   2.082 132.226  0.00  0.00    -0.491 OA
ATOM     29  C   LIG A   1      -7.610   1.816 132.683  0.00  0.00    +0.277 C 
ENDBRANCH  19  28
BRANCH   4  30
ATOM     30  O   LIG A   1      -9.945   1.765 125.123  0.00  0.00    -0.506 OA
ATOM     31  H   LIG A   1      -9.675   1.376 125.986  0.00  0.00    +0.292 HD
ENDBRANCH   4  30
TORSDOF 4
ENDMDL
MODEL 4
REMARK VINA RESULT:      -7.8      3.923      5.961
REMARK  Name = NuBBE_1448
REMARK  7 active torsions:
REMARK  status: ('A' for Active; 'I' for Inactive)
REMARK    1  A    between atoms: C_5  and  O_30
REMARK    2  A    between atoms: C_10  and  C_12
REMARK    3  A    between atoms: C_12  and  C_13
REMARK    4  A    between atoms: C_23  and  O_28
REMARK    5  A    between atoms: C_24  and  O_25
REMARK    6  A    between atoms: O_25  and  C_26
REMARK    7  A    between atoms: O_28  and  C_29
REMARK                            x       y       z     vdW  Elec       q    Type
REMARK                         _______ _______ _______ _____ _____    ______ ____
ROOT
ATOM      1  C   LIG A   1      -6.778   3.349 128.258  0.00  0.00    +0.138 C 
ATOM      2  C   LIG A   1      -7.254   3.708 126.863  0.00  0.00    +0.181 C 
ATOM      3  C   LIG A   1      -7.276   2.637 125.848  0.00  0.00    +0.102 A 
ATOM      4  C   LIG A   1      -7.780   2.861 124.552  0.00  0.00    +0.134 A 
ATOM      5  C   LIG A   1      -7.799   1.837 123.604  0.00  0.00    +0.092 A 
ATOM      6  C   LIG A   1      -7.299   0.607 123.978  0.00  0.00    +0.132 A 
ATOM      7  C   LIG A   1      -6.774   0.382 125.240  0.00  0.00    +0.041 A 
ATOM      8  C   LIG A   1      -6.257  -1.003 125.320  0.00  0.00    +0.091 C 
ATOM      9  C   LIG A   1      -6.866  -1.585 124.032  0.00  0.00    +0.203 C 
ATOM     10  O   LIG A   1      -7.258  -0.489 123.158  0.00  0.00    -0.484 OA
ATOM     11  C   LIG A   1      -6.766   1.384 126.193  0.00  0.00    +0.142 A 
ATOM     12  O   LIG A   1      -6.247   1.082 127.417  0.00  0.00    -0.483 OA
ATOM     13  C   LIG A   1      -6.837   1.840 128.481  0.00  0.00    +0.226 C 
ATOM     14  C   LIG A   1      -8.242   1.306 128.840  0.00  0.00    +0.274 C 
ATOM     15  O   LIG A   1      -9.273   2.296 128.945  0.00  0.00    -0.488 OA
ATOM     16  C   LIG A   1      -8.853   3.407 129.622  0.00  0.00    +0.128 A 
ATOM     17  C   LIG A   1      -7.620   3.986 129.333  0.00  0.00    +0.012 A 
ATOM     18  C   LIG A   1      -7.234   5.130 130.030  0.00  0.00    +0.057 A 
ATOM     19  C   LIG A   1      -8.062   5.674 131.027  0.00  0.00    +0.162 A 
ATOM     20  C   LIG A   1      -9.318   5.095 131.289  0.00  0.00    +0.165 A 
ATOM     21  C   LIG A   1      -9.715   3.970 130.556  0.00  0.00    +0.095 A 
ATOM     22  O   LIG A   1      -7.571   4.849 126.522  0.00  0.00    -0.291 OA
ENDROOT
BRANCH   9  23
ATOM     23  C   LIG A   1      -5.922  -2.522 123.304  0.00  0.00    -0.040 C 
ATOM     24  C   LIG A   1      -5.237  -3.581 124.122  0.00  0.00    +0.042 C 
ATOM     25  C   LIG A   1      -5.708  -2.416 121.980  0.00  0.00    +0.011 C 
ENDBRANCH   9  23
BRANCH  20  26
ATOM     26  O   LIG A   1     -10.148   5.698 132.197  0.00  0.00    -0.491 OA
ATOM     27  C   LIG A   1     -11.285   6.365 131.656  0.00  0.00    +0.277 C 
ENDBRANCH  20  26
BRANCH  19  28
ATOM     28  O   LIG A   1      -7.521   6.779 131.633  0.00  0.00    -0.491 OA
ATOM     29  C   LIG A   1      -6.207   7.147 131.229  0.00  0.00    +0.277 C 
ENDBRANCH  19  28
BRANCH   4  30
ATOM     30  O   LIG A   1      -8.275   4.074 124.148  0.00  0.00    -0.506 OA
ATOM     31  H   LIG A   1      -7.725   4.394 123.397  0.00  0.00    +0.292 HD
ENDBRANCH   4  30
TORSDOF 4
ENDMDL
MODEL 5
REMARK VINA RESULT:      -7.7      4.512      8.611
REMARK  Name = NuBBE_1448
REMARK  7 active torsions:
REMARK  status: ('A' for Active; 'I' for Inactive)
REMARK    1  A    between atoms: C_5  and  O_30
REMARK    2  A    between atoms: C_10  and  C_12
REMARK    3  A    between atoms: C_12  and  C_13
REMARK    4  A    between atoms: C_23  and  O_28
REMARK    5  A    between atoms: C_24  and  O_25
REMARK    6  A    between atoms: O_25  and  C_26
REMARK    7  A    between atoms: O_28  and  C_29
REMARK                            x       y       z     vdW  Elec       q    Type
REMARK                         _______ _______ _______ _____ _____    ______ ____
ROOT
ATOM      1  C   LIG A   1      -7.968   3.332 129.643  0.00  0.00    +0.138 C 
ATOM      2  C   LIG A   1      -8.147   2.472 128.407  0.00  0.00    +0.181 C 
ATOM      3  C   LIG A   1      -7.847   1.033 128.523  0.00  0.00    +0.102 A 
ATOM      4  C   LIG A   1      -8.064   0.146 127.449  0.00  0.00    +0.134 A 
ATOM      5  C   LIG A   1      -7.780  -1.214 127.575  0.00  0.00    +0.092 A 
ATOM      6  C   LIG A   1      -7.272  -1.655 128.780  0.00  0.00    +0.132 A 
ATOM      7  C   LIG A   1      -7.029  -0.790 129.833  0.00  0.00    +0.041 A 
ATOM      8  C   LIG A   1      -6.425  -1.539 130.959  0.00  0.00    +0.091 C 
ATOM      9  C   LIG A   1      -6.675  -2.979 130.478  0.00  0.00    +0.203 C 
ATOM     10  O   LIG A   1      -6.954  -2.959 129.050  0.00  0.00    -0.484 OA
ATOM     11  C   LIG A   1      -7.321   0.557 129.726  0.00  0.00    +0.142 A 
ATOM     12  O   LIG A   1      -7.068   1.343 130.810  0.00  0.00    -0.483 OA
ATOM     13  C   LIG A   1      -7.945   2.473 130.905  0.00  0.00    +0.226 C 
ATOM     14  C   LIG A   1      -9.344   2.057 131.416  0.00  0.00    +0.274 C 
ATOM     15  O   LIG A   1     -10.453   2.560 130.660  0.00  0.00    -0.488 OA
ATOM     16  C   LIG A   1     -10.294   3.876 130.324  0.00  0.00    +0.128 A 
ATOM     17  C   LIG A   1      -9.082   4.332 129.813  0.00  0.00    +0.012 A 
ATOM     18  C   LIG A   1      -8.964   5.677 129.463  0.00  0.00    +0.057 A 
ATOM     19  C   LIG A   1     -10.039   6.563 129.651  0.00  0.00    +0.162 A 
ATOM     20  C   LIG A   1     -11.267   6.081 130.142  0.00  0.00    +0.165 A 
ATOM     21  C   LIG A   1     -11.390   4.722 130.452  0.00  0.00    +0.095 A 
ATOM     22  O   LIG A   1      -8.476   2.919 127.306  0.00  0.00    -0.291 OA
ENDROOT
BRANCH   9  23
ATOM     23  C   LIG A   1      -5.515  -3.910 130.771  0.00  0.00    -0.040 C 
ATOM     24  C   LIG A   1      -4.333  -3.850 129.842  0.00  0.00    +0.042 C 
ATOM     25  C   LIG A   1      -5.534  -4.750 131.821  0.00  0.00    +0.011 C 
ENDBRANCH   9  23
BRANCH  20  26
ATOM     26  O   LIG A   1     -12.329   6.943 130.227  0.00  0.00    -0.491 OA
ATOM     27  C   LIG A   1     -12.691   7.360 131.540  0.00  0.00    +0.277 C 
ENDBRANCH  20  26
BRANCH  19  28
ATOM     28  O   LIG A   1      -9.746   7.852 129.283  0.00  0.00    -0.491 OA
ATOM     29  C   LIG A   1     -10.440   8.364 128.152  0.00  0.00    +0.277 C 
ENDBRANCH  19  28
BRANCH   4  30
ATOM     30  O   LIG A   1      -8.558   0.555 126.238  0.00  0.00    -0.506 OA
ATOM     31  H   LIG A   1      -9.334  -0.008 126.017  0.00  0.00    +0.292 HD
ENDBRANCH   4  30
TORSDOF 4
ENDMDL
MODEL 6
REMARK VINA RESULT:      -7.6      2.398      4.230
REMARK  Name = NuBBE_1448
REMARK  7 active torsions:
REMARK  status: ('A' for Active; 'I' for Inactive)
REMARK    1  A    between atoms: C_5  and  O_30
REMARK    2  A    between atoms: C_10  and  C_12
REMARK    3  A    between atoms: C_12  and  C_13
REMARK    4  A    between atoms: C_23  and  O_28
REMARK    5  A    between atoms: C_24  and  O_25
REMARK    6  A    between atoms: O_25  and  C_26
REMARK    7  A    between atoms: O_28  and  C_29
REMARK                            x       y       z     vdW  Elec       q    Type
REMARK                         _______ _______ _______ _____ _____    ______ ____
ROOT
ATOM      1  C   LIG A   1      -7.365  -1.649 129.507  0.00  0.00    +0.138 C 
ATOM      2  C   LIG A   1      -8.129  -2.372 128.415  0.00  0.00    +0.181 C 
ATOM      3  C   LIG A   1      -8.103  -1.790 127.059  0.00  0.00    +0.102 A 
ATOM      4  C   LIG A   1      -8.715  -2.438 125.968  0.00  0.00    +0.134 A 
ATOM      5  C   LIG A   1      -8.678  -1.878 124.690  0.00  0.00    +0.092 A 
ATOM      6  C   LIG A   1      -8.032  -0.668 124.537  0.00  0.00    +0.132 A 
ATOM      7  C   LIG A   1      -7.450  -0.008 125.607  0.00  0.00    +0.041 A 
ATOM      8  C   LIG A   1      -6.899   1.287 125.148  0.00  0.00    +0.091 C 
ATOM      9  C   LIG A   1      -6.985   1.082 123.625  0.00  0.00    +0.203 C 
ATOM     10  O   LIG A   1      -7.910  -0.005 123.346  0.00  0.00    -0.484 OA
ATOM     11  C   LIG A   1      -7.466  -0.561 126.875  0.00  0.00    +0.142 A 
ATOM     12  O   LIG A   1      -6.860   0.141 127.873  0.00  0.00    -0.483 OA
ATOM     13  C   LIG A   1      -6.332  -0.696 128.911  0.00  0.00    +0.226 C 
ATOM     14  C   LIG A   1      -5.019  -1.380 128.467  0.00  0.00    +0.274 C 
ATOM     15  O   LIG A   1      -4.945  -2.791 128.707  0.00  0.00    -0.488 OA
ATOM     16  C   LIG A   1      -5.419  -3.130 129.944  0.00  0.00    +0.128 A 
ATOM     17  C   LIG A   1      -6.619  -2.597 130.409  0.00  0.00    +0.012 A 
ATOM     18  C   LIG A   1      -7.081  -2.981 131.668  0.00  0.00    +0.057 A 
ATOM     19  C   LIG A   1      -6.335  -3.866 132.465  0.00  0.00    +0.162 A 
ATOM     20  C   LIG A   1      -5.138  -4.418 131.970  0.00  0.00    +0.165 A 
ATOM     21  C   LIG A   1      -4.702  -4.059 130.689  0.00  0.00    +0.095 A 
ATOM     22  O   LIG A   1      -8.808  -3.381 128.610  0.00  0.00    -0.291 OA
ENDROOT
BRANCH   9  23
ATOM     23  C   LIG A   1      -7.410   2.335 122.884  0.00  0.00    -0.040 C 
ATOM     24  C   LIG A   1      -6.333   3.128 122.198  0.00  0.00    +0.042 C 
ATOM     25  C   LIG A   1      -8.698   2.720 122.835  0.00  0.00    +0.011 C 
ENDBRANCH   9  23
BRANCH  20  26
ATOM     26  O   LIG A   1      -4.478  -5.351 132.725  0.00  0.00    -0.491 OA
ATOM     27  C   LIG A   1      -3.299  -4.899 133.384  0.00  0.00    +0.277 C 
ENDBRANCH  20  26
BRANCH  19  28
ATOM     28  O   LIG A   1      -6.916  -4.115 133.682  0.00  0.00    -0.491 OA
ATOM     29  C   LIG A   1      -8.054  -3.329 134.016  0.00  0.00    +0.277 C 
ENDBRANCH  19  28
BRANCH   4  30
ATOM     30  O   LIG A   1      -9.372  -3.634 126.089  0.00  0.00    -0.506 OA
ATOM     31  H   LIG A   1     -10.025  -3.553 126.822  0.00  0.00    +0.292 HD
ENDBRANCH   4  30
TORSDOF 4
ENDMDL
MODEL 7
REMARK VINA RESULT:      -7.6      4.799      6.533
REMARK  Name = NuBBE_1448
REMARK  7 active torsions:
REMARK  status: ('A' for Active; 'I' for Inactive)
REMARK    1  A    between atoms: C_5  and  O_30
REMARK    2  A    between atoms: C_10  and  C_12
REMARK    3  A    between atoms: C_12  and  C_13
REMARK    4  A    between atoms: C_23  and  O_28
REMARK    5  A    between atoms: C_24  and  O_25
REMARK    6  A    between atoms: O_25  and  C_26
REMARK    7  A    between atoms: O_28  and  C_29
REMARK                            x       y       z     vdW  Elec       q    Type
REMARK                         _______ _______ _______ _____ _____    ______ ____
ROOT
ATOM      1  C   LIG A   1      -3.877   3.901 127.961  0.00  0.00    +0.138 C 
ATOM      2  C   LIG A   1      -4.743   4.609 126.938  0.00  0.00    +0.181 C 
ATOM      3  C   LIG A   1      -5.600   3.778 126.071  0.00  0.00    +0.102 A 
ATOM      4  C   LIG A   1      -6.498   4.355 125.150  0.00  0.00    +0.134 A 
ATOM      5  C   LIG A   1      -7.305   3.556 124.341  0.00  0.00    +0.092 A 
ATOM      6  C   LIG A   1      -7.187   2.187 124.467  0.00  0.00    +0.132 A 
ATOM      7  C   LIG A   1      -6.289   1.607 125.347  0.00  0.00    +0.041 A 
ATOM      8  C   LIG A   1      -6.342   0.134 125.209  0.00  0.00    +0.091 C 
ATOM      9  C   LIG A   1      -7.619  -0.003 124.361  0.00  0.00    +0.203 C 
ATOM     10  O   LIG A   1      -7.917   1.281 123.745  0.00  0.00    -0.484 OA
ATOM     11  C   LIG A   1      -5.495   2.389 126.167  0.00  0.00    +0.142 A 
ATOM     12  O   LIG A   1      -4.647   1.746 127.018  0.00  0.00    -0.483 OA
ATOM     13  C   LIG A   1      -4.385   2.485 128.218  0.00  0.00    +0.226 C 
ATOM     14  C   LIG A   1      -5.578   2.407 129.198  0.00  0.00    +0.274 C 
ATOM     15  O   LIG A   1      -6.011   3.658 129.747  0.00  0.00    -0.488 OA
ATOM     16  C   LIG A   1      -4.960   4.445 130.129  0.00  0.00    +0.128 A 
ATOM     17  C   LIG A   1      -3.861   4.611 129.289  0.00  0.00    +0.012 A 
ATOM     18  C   LIG A   1      -2.817   5.437 129.705  0.00  0.00    +0.057 A 
ATOM     19  C   LIG A   1      -2.859   6.068 130.960  0.00  0.00    +0.162 A 
ATOM     20  C   LIG A   1      -3.989   5.913 131.785  0.00  0.00    +0.165 A 
ATOM     21  C   LIG A   1      -5.051   5.115 131.343  0.00  0.00    +0.095 A 
ATOM     22  O   LIG A   1      -4.729   5.829 126.758  0.00  0.00    -0.291 OA
ENDROOT
BRANCH   9  23
ATOM     23  C   LIG A   1      -7.510  -1.079 123.299  0.00  0.00    -0.040 C 
ATOM     24  C   LIG A   1      -8.793  -1.661 122.774  0.00  0.00    +0.042 C 
ATOM     25  C   LIG A   1      -6.316  -1.495 122.838  0.00  0.00    +0.011 C 
ENDBRANCH   9  23
BRANCH  20  26
ATOM     26  O   LIG A   1      -4.050   6.613 132.962  0.00  0.00    -0.491 OA
ATOM     27  C   LIG A   1      -4.868   6.048 133.982  0.00  0.00    +0.277 C 
ENDBRANCH  20  26
BRANCH  19  28
ATOM     28  O   LIG A   1      -1.742   6.819 131.223  0.00  0.00    -0.491 OA
ATOM     29  C   LIG A   1      -0.785   6.247 132.108  0.00  0.00    +0.277 C 
ENDBRANCH  19  28
BRANCH   4  30
ATOM     30  O   LIG A   1      -6.631   5.710 124.996  0.00  0.00    -0.506 OA
ATOM     31  H   LIG A   1      -7.484   5.983 125.405  0.00  0.00    +0.292 HD
ENDBRANCH   4  30
TORSDOF 4
ENDMDL
MODEL 8
REMARK VINA RESULT:      -7.5      4.076      7.383
REMARK  Name = NuBBE_1448
REMARK  7 active torsions:
REMARK  status: ('A' for Active; 'I' for Inactive)
REMARK    1  A    between atoms: C_5  and  O_30
REMARK    2  A    between atoms: C_10  and  C_12
REMARK    3  A    between atoms: C_12  and  C_13
REMARK    4  A    between atoms: C_23  and  O_28
REMARK    5  A    between atoms: C_24  and  O_25
REMARK    6  A    between atoms: O_25  and  C_26
REMARK    7  A    between atoms: O_28  and  C_29
REMARK                            x       y       z     vdW  Elec       q    Type
REMARK                         _______ _______ _______ _____ _____    ______ ____
ROOT
ATOM      1  C   LIG A   1      -8.294  -0.083 127.319  0.00  0.00    +0.138 C 
ATOM      2  C   LIG A   1      -8.368   1.413 127.078  0.00  0.00    +0.181 C 
ATOM      3  C   LIG A   1      -8.164   2.306 128.234  0.00  0.00    +0.102 A 
ATOM      4  C   LIG A   1      -8.134   3.707 128.087  0.00  0.00    +0.134 A 
ATOM      5  C   LIG A   1      -7.934   4.538 129.190  0.00  0.00    +0.092 A 
ATOM      6  C   LIG A   1      -7.778   3.942 130.424  0.00  0.00    +0.132 A 
ATOM      7  C   LIG A   1      -7.833   2.568 130.587  0.00  0.00    +0.041 A 
ATOM      8  C   LIG A   1      -7.702   2.233 132.023  0.00  0.00    +0.091 C 
ATOM      9  C   LIG A   1      -7.250   3.600 132.568  0.00  0.00    +0.203 C 
ATOM     10  O   LIG A   1      -7.569   4.628 131.590  0.00  0.00    -0.484 OA
ATOM     11  C   LIG A   1      -8.014   1.733 129.499  0.00  0.00    +0.142 A 
ATOM     12  O   LIG A   1      -8.043   0.391 129.736  0.00  0.00    -0.483 OA
ATOM     13  C   LIG A   1      -7.571  -0.388 128.628  0.00  0.00    +0.226 C 
ATOM     14  C   LIG A   1      -6.029  -0.343 128.527  0.00  0.00    +0.274 C 
ATOM     15  O   LIG A   1      -5.502  -0.059 127.225  0.00  0.00    -0.488 OA
ATOM     16  C   LIG A   1      -6.157  -0.748 126.242  0.00  0.00    +0.128 A 
ATOM     17  C   LIG A   1      -7.549  -0.804 126.227  0.00  0.00    +0.012 A 
ATOM     18  C   LIG A   1      -8.182  -1.500 125.197  0.00  0.00    +0.057 A 
ATOM     19  C   LIG A   1      -7.430  -2.157 124.209  0.00  0.00    +0.162 A 
ATOM     20  C   LIG A   1      -6.025  -2.068 124.222  0.00  0.00    +0.165 A 
ATOM     21  C   LIG A   1      -5.398  -1.333 125.235  0.00  0.00    +0.095 A 
ATOM     22  O   LIG A   1      -8.641   1.916 125.986  0.00  0.00    -0.291 OA
ENDROOT
BRANCH   9  23
ATOM     23  C   LIG A   1      -7.876   3.938 133.907  0.00  0.00    -0.040 C 
ATOM     24  C   LIG A   1      -6.949   4.351 135.016  0.00  0.00    +0.042 C 
ATOM     25  C   LIG A   1      -9.206   3.879 134.096  0.00  0.00    +0.011 C 
ENDBRANCH   9  23
BRANCH  20  26
ATOM     26  O   LIG A   1      -5.317  -2.637 123.195  0.00  0.00    -0.491 OA
ATOM     27  C   LIG A   1      -4.614  -3.835 123.512  0.00  0.00    +0.277 C 
ENDBRANCH  20  26
BRANCH  19  28
ATOM     28  O   LIG A   1      -8.206  -2.816 123.290  0.00  0.00    -0.491 OA
ATOM     29  C   LIG A   1      -9.474  -3.276 123.742  0.00  0.00    +0.277 C 
ENDBRANCH  19  28
BRANCH   4  30
ATOM     30  O   LIG A   1      -8.295   4.329 126.877  0.00  0.00    -0.506 OA
ATOM     31  H   LIG A   1      -7.833   3.792 126.193  0.00  0.00    +0.292 HD
ENDBRANCH   4  30
TORSDOF 4
ENDMDL
MODEL 9
REMARK VINA RESULT:      -7.5      6.188     10.790
REMARK  Name = NuBBE_1448
REMARK  7 active torsions:
REMARK  status: ('A' for Active; 'I' for Inactive)
REMARK    1  A    between atoms: C_5  and  O_30
REMARK    2  A    between atoms: C_10  and  C_12
REMARK    3  A    between atoms: C_12  and  C_13
REMARK    4  A    between atoms: C_23  and  O_28
REMARK    5  A    between atoms: C_24  and  O_25
REMARK    6  A    between atoms: O_25  and  C_26
REMARK    7  A    between atoms: O_28  and  C_29
REMARK                            x       y       z     vdW  Elec       q    Type
REMARK                         _______ _______ _______ _____ _____    ______ ____
ROOT
ATOM      1  C   LIG A   1      -8.338   5.649 130.617  0.00  0.00    +0.138 C 
ATOM      2  C   LIG A   1      -8.560   4.164 130.405  0.00  0.00    +0.181 C 
ATOM      3  C   LIG A   1      -7.995   3.236 131.404  0.00  0.00    +0.102 A 
ATOM      4  C   LIG A   1      -8.223   1.847 131.331  0.00  0.00    +0.134 A 
ATOM      5  C   LIG A   1      -7.685   0.983 132.286  0.00  0.00    +0.092 A 
ATOM      6  C   LIG A   1      -6.919   1.534 133.292  0.00  0.00    +0.132 A 
ATOM      7  C   LIG A   1      -6.665   2.893 133.359  0.00  0.00    +0.041 A 
ATOM      8  C   LIG A   1      -5.763   3.172 134.500  0.00  0.00    +0.091 C 
ATOM      9  C   LIG A   1      -5.829   1.815 135.222  0.00  0.00    +0.203 C 
ATOM     10  O   LIG A   1      -6.335   0.812 134.298  0.00  0.00    -0.484 OA
ATOM     11  C   LIG A   1      -7.205   3.762 132.428  0.00  0.00    +0.142 A 
ATOM     12  O   LIG A   1      -6.922   5.088 132.569  0.00  0.00    -0.483 OA
ATOM     13  C   LIG A   1      -7.958   5.942 132.067  0.00  0.00    +0.226 C 
ATOM     14  C   LIG A   1      -9.159   5.999 133.038  0.00  0.00    +0.274 C 
ATOM     15  O   LIG A   1     -10.448   5.805 132.441  0.00  0.00    -0.488 OA
ATOM     16  C   LIG A   1     -10.581   6.493 131.267  0.00  0.00    +0.128 A 
ATOM     17  C   LIG A   1      -9.569   6.462 130.312  0.00  0.00    +0.012 A 
ATOM     18  C   LIG A   1      -9.749   7.161 129.119  0.00  0.00    +0.057 A 
ATOM     19  C   LIG A   1     -10.919   7.907 128.895  0.00  0.00    +0.162 A 
ATOM     20  C   LIG A   1     -11.946   7.906 129.859  0.00  0.00    +0.165 A 
ATOM     21  C   LIG A   1     -11.774   7.169 131.036  0.00  0.00    +0.095 A 
ATOM     22  O   LIG A   1      -9.137   3.693 129.424  0.00  0.00    -0.291 OA
ENDROOT
BRANCH   9  23
ATOM     23  C   LIG A   1      -4.490   1.380 135.785  0.00  0.00    -0.040 C 
ATOM     24  C   LIG A   1      -3.752   0.298 135.046  0.00  0.00    +0.042 C 
ATOM     25  C   LIG A   1      -3.977   1.940 136.895  0.00  0.00    +0.011 C 
ENDBRANCH   9  23
BRANCH  20  26
ATOM     26  O   LIG A   1     -13.116   8.562 129.578  0.00  0.00    -0.491 OA
ATOM     27  C   LIG A   1     -13.142   9.952 129.893  0.00  0.00    +0.277 C 
ENDBRANCH  20  26
BRANCH  19  28
ATOM     28  O   LIG A   1     -10.922   8.555 127.687  0.00  0.00    -0.491 OA
ATOM     29  C   LIG A   1     -11.005   7.736 126.526  0.00  0.00    +0.277 C 
ENDBRANCH  19  28
BRANCH   4  30
ATOM     30  O   LIG A   1      -8.971   1.270 130.339  0.00  0.00    -0.506 OA
ATOM     31  H   LIG A   1      -8.578   0.392 130.130  0.00  0.00    +0.292 HD
ENDBRANCH   4  30
TORSDOF 4
ENDMDL
