MODEL 1
REMARK VINA RESULT:      -8.8      0.000      0.000
REMARK  Name = NuBBE_1453
REMARK  7 active torsions:
REMARK  status: ('A' for Active; 'I' for Inactive)
REMARK    1  A    between atoms: C_1  and  C_2
REMARK    2  A    between atoms: C_2  and  C_30
REMARK    3  A    between atoms: C_9  and  O_10
REMARK    4  A    between atoms: C_13  and  O_14
REMARK    5  A    between atoms: O_14  and  C_15
REMARK    6  A    between atoms: C_16  and  O_23
REMARK    7  A    between atoms: O_23  and  C_24
REMARK                            x       y       z     vdW  Elec       q    Type
REMARK                         _______ _______ _______ _____ _____    ______ ____
ROOT
ATOM      1  C   LIG A   1     -12.783   9.588 129.166  0.00  0.00    +0.060 C 
ATOM      2  C   LIG A   1     -12.509   8.124 128.798  0.00  0.00    +0.123 C 
ATOM      3  C   LIG A   1     -11.187   8.019 128.074  0.00  0.00    +0.020 C 
ATOM      4  C   LIG A   1     -10.088   7.513 128.642  0.00  0.00    +0.015 C 
ATOM      5  C   LIG A   1     -10.175   7.051 130.023  0.00  0.00    +0.059 A 
ATOM      6  C   LIG A   1      -9.039   6.671 130.759  0.00  0.00    +0.142 A 
ATOM      7  C   LIG A   1      -9.180   6.195 132.070  0.00  0.00    +0.063 A 
ATOM      8  C   LIG A   1      -7.982   5.759 132.832  0.00  0.00    +0.206 C 
ATOM      9  C   LIG A   1      -6.646   5.800 132.083  0.00  0.00    +0.197 C 
ATOM     10  C   LIG A   1      -5.393   5.985 132.923  0.00  0.00    +0.041 A 
ATOM     11  C   LIG A   1      -5.174   5.278 134.116  0.00  0.00    +0.060 A 
ATOM     12  C   LIG A   1      -4.021   5.474 134.894  0.00  0.00    +0.162 A 
ATOM     13  C   LIG A   1      -3.037   6.375 134.464  0.00  0.00    +0.165 A 
ATOM     14  C   LIG A   1      -3.220   7.039 133.247  0.00  0.00    +0.095 A 
ATOM     15  C   LIG A   1      -4.374   6.838 132.482  0.00  0.00    +0.131 A 
ATOM     16  O   LIG A   1      -4.412   7.541 131.304  0.00  0.00    -0.488 OA
ATOM     17  C   LIG A   1      -5.435   7.134 130.392  0.00  0.00    +0.277 C 
ATOM     18  C   LIG A   1      -6.766   6.977 131.107  0.00  0.00    +0.254 C 
ATOM     19  O   LIG A   1      -7.811   6.780 130.149  0.00  0.00    -0.480 OA
ATOM     20  O   LIG A   1      -8.130   5.322 133.971  0.00  0.00    -0.288 OA
ATOM     21  C   LIG A   1     -10.445   6.116 132.660  0.00  0.00    +0.019 A 
ATOM     22  C   LIG A   1     -11.569   6.512 131.939  0.00  0.00    +0.047 A 
ATOM     23  C   LIG A   1     -11.434   6.987 130.633  0.00  0.00    +0.132 A 
ATOM     24  O   LIG A   1     -12.598   7.348 130.012  0.00  0.00    -0.481 OA
ATOM     25  C   LIG A   1     -13.628   7.604 127.888  0.00  0.00    +0.060 C 
ENDROOT
BRANCH   9  26
ATOM     26  O   LIG A   1      -6.509   4.559 131.376  0.00  0.00    -0.373 OA
ATOM     27  H   LIG A   1      -7.395   4.322 131.046  0.00  0.00    +0.211 HD
ENDBRANCH   9  26
BRANCH  12  28
ATOM     28  O   LIG A   1      -3.994   4.691 136.019  0.00  0.00    -0.491 OA
ATOM     29  C   LIG A   1      -5.160   3.926 136.297  0.00  0.00    +0.277 C 
ENDBRANCH  12  28
BRANCH  13  30
ATOM     30  O   LIG A   1      -1.893   6.507 135.204  0.00  0.00    -0.491 OA
ATOM     31  C   LIG A   1      -0.825   7.209 134.574  0.00  0.00    +0.277 C 
ENDBRANCH  13  30
TORSDOF 3
ENDMDL
MODEL 2
REMARK VINA RESULT:      -8.4      8.525     11.516
REMARK  Name = NuBBE_1453
REMARK  7 active torsions:
REMARK  status: ('A' for Active; 'I' for Inactive)
REMARK    1  A    between atoms: C_1  and  C_2
REMARK    2  A    between atoms: C_2  and  C_30
REMARK    3  A    between atoms: C_9  and  O_10
REMARK    4  A    between atoms: C_13  and  O_14
REMARK    5  A    between atoms: O_14  and  C_15
REMARK    6  A    between atoms: C_16  and  O_23
REMARK    7  A    between atoms: O_23  and  C_24
REMARK                            x       y       z     vdW  Elec       q    Type
REMARK                         _______ _______ _______ _____ _____    ______ ____
ROOT
ATOM      1  C   LIG A   1      -5.944  -2.802 129.025  0.00  0.00    +0.060 C 
ATOM      2  C   LIG A   1      -7.083  -1.797 129.236  0.00  0.00    +0.123 C 
ATOM      3  C   LIG A   1      -6.516  -0.402 129.356  0.00  0.00    +0.020 C 
ATOM      4  C   LIG A   1      -6.622   0.510 128.385  0.00  0.00    +0.015 C 
ATOM      5  C   LIG A   1      -7.311   0.132 127.156  0.00  0.00    +0.059 A 
ATOM      6  C   LIG A   1      -7.317   0.956 126.017  0.00  0.00    +0.142 A 
ATOM      7  C   LIG A   1      -8.028   0.566 124.874  0.00  0.00    +0.063 A 
ATOM      8  C   LIG A   1      -8.065   1.457 123.685  0.00  0.00    +0.206 C 
ATOM      9  C   LIG A   1      -7.356   2.808 123.824  0.00  0.00    +0.197 C 
ATOM     10  C   LIG A   1      -6.827   3.439 122.547  0.00  0.00    +0.041 A 
ATOM     11  C   LIG A   1      -7.580   3.489 121.363  0.00  0.00    +0.060 A 
ATOM     12  C   LIG A   1      -7.070   4.058 120.184  0.00  0.00    +0.162 A 
ATOM     13  C   LIG A   1      -5.788   4.624 120.182  0.00  0.00    +0.165 A 
ATOM     14  C   LIG A   1      -5.055   4.632 121.374  0.00  0.00    +0.095 A 
ATOM     15  C   LIG A   1      -5.572   4.060 122.541  0.00  0.00    +0.131 A 
ATOM     16  O   LIG A   1      -4.753   4.154 123.638  0.00  0.00    -0.488 OA
ATOM     17  C   LIG A   1      -5.376   3.834 124.886  0.00  0.00    +0.277 C 
ATOM     18  C   LIG A   1      -6.181   2.551 124.774  0.00  0.00    +0.254 C 
ATOM     19  O   LIG A   1      -6.615   2.138 126.074  0.00  0.00    -0.480 OA
ATOM     20  O   LIG A   1      -8.714   1.106 122.702  0.00  0.00    -0.288 OA
ATOM     21  C   LIG A   1      -8.715  -0.652 124.850  0.00  0.00    +0.019 A 
ATOM     22  C   LIG A   1      -8.691  -1.480 125.971  0.00  0.00    +0.047 A 
ATOM     23  C   LIG A   1      -7.984  -1.095 127.112  0.00  0.00    +0.132 A 
ATOM     24  O   LIG A   1      -8.026  -1.976 128.157  0.00  0.00    -0.481 OA
ATOM     25  C   LIG A   1      -7.847  -2.146 130.519  0.00  0.00    +0.060 C 
ENDROOT
BRANCH   9  26
ATOM     26  O   LIG A   1      -8.292   3.728 124.403  0.00  0.00    -0.373 OA
ATOM     27  H   LIG A   1      -9.177   3.472 124.083  0.00  0.00    +0.211 HD
ENDBRANCH   9  26
BRANCH  12  28
ATOM     28  O   LIG A   1      -7.956   4.010 119.138  0.00  0.00    -0.491 OA
ATOM     29  C   LIG A   1      -9.321   4.266 119.443  0.00  0.00    +0.277 C 
ENDBRANCH  12  28
BRANCH  13  30
ATOM     30  O   LIG A   1      -5.332   5.228 119.041  0.00  0.00    -0.491 OA
ATOM     31  C   LIG A   1      -5.978   6.446 118.683  0.00  0.00    +0.277 C 
ENDBRANCH  13  30
TORSDOF 3
ENDMDL
MODEL 3
REMARK VINA RESULT:      -8.2      6.552      8.374
REMARK  Name = NuBBE_1453
REMARK  7 active torsions:
REMARK  status: ('A' for Active; 'I' for Inactive)
REMARK    1  A    between atoms: C_1  and  C_2
REMARK    2  A    between atoms: C_2  and  C_30
REMARK    3  A    between atoms: C_9  and  O_10
REMARK    4  A    between atoms: C_13  and  O_14
REMARK    5  A    between atoms: O_14  and  C_15
REMARK    6  A    between atoms: C_16  and  O_23
REMARK    7  A    between atoms: O_23  and  C_24
REMARK                            x       y       z     vdW  Elec       q    Type
REMARK                         _______ _______ _______ _____ _____    ______ ____
ROOT
ATOM      1  C   LIG A   1      -8.118  -2.808 123.794  0.00  0.00    +0.060 C 
ATOM      2  C   LIG A   1      -6.777  -2.521 124.482  0.00  0.00    +0.123 C 
ATOM      3  C   LIG A   1      -6.382  -1.082 124.248  0.00  0.00    +0.020 C 
ATOM      4  C   LIG A   1      -6.450  -0.148 125.201  0.00  0.00    +0.015 C 
ATOM      5  C   LIG A   1      -6.934  -0.541 126.520  0.00  0.00    +0.059 A 
ATOM      6  C   LIG A   1      -7.209   0.399 127.528  0.00  0.00    +0.142 A 
ATOM      7  C   LIG A   1      -7.634  -0.032 128.792  0.00  0.00    +0.063 A 
ATOM      8  C   LIG A   1      -7.886   0.961 129.867  0.00  0.00    +0.206 C 
ATOM      9  C   LIG A   1      -7.591   2.425 129.525  0.00  0.00    +0.197 C 
ATOM     10  C   LIG A   1      -8.381   3.479 130.282  0.00  0.00    +0.041 A 
ATOM     11  C   LIG A   1      -8.590   3.415 131.669  0.00  0.00    +0.060 A 
ATOM     12  C   LIG A   1      -9.340   4.386 132.352  0.00  0.00    +0.162 A 
ATOM     13  C   LIG A   1      -9.877   5.473 131.648  0.00  0.00    +0.165 A 
ATOM     14  C   LIG A   1      -9.624   5.576 130.277  0.00  0.00    +0.095 A 
ATOM     15  C   LIG A   1      -8.877   4.602 129.606  0.00  0.00    +0.131 A 
ATOM     16  O   LIG A   1      -8.693   4.839 128.267  0.00  0.00    -0.488 OA
ATOM     17  C   LIG A   1      -7.708   4.015 127.638  0.00  0.00    +0.277 C 
ATOM     18  C   LIG A   1      -7.892   2.559 128.028  0.00  0.00    +0.254 C 
ATOM     19  O   LIG A   1      -7.041   1.731 127.228  0.00  0.00    -0.480 OA
ATOM     20  O   LIG A   1      -8.235   0.559 130.975  0.00  0.00    -0.288 OA
ATOM     21  C   LIG A   1      -7.808  -1.395 129.051  0.00  0.00    +0.019 A 
ATOM     22  C   LIG A   1      -7.558  -2.327 128.045  0.00  0.00    +0.047 A 
ATOM     23  C   LIG A   1      -7.134  -1.901 126.785  0.00  0.00    +0.132 A 
ATOM     24  O   LIG A   1      -6.913  -2.894 125.870  0.00  0.00    -0.481 OA
ATOM     25  C   LIG A   1      -5.695  -3.445 123.907  0.00  0.00    +0.060 C 
ENDROOT
BRANCH   9  26
ATOM     26  O   LIG A   1      -6.200   2.658 129.791  0.00  0.00    -0.373 OA
ATOM     27  H   LIG A   1      -5.748   1.798 129.712  0.00  0.00    +0.211 HD
ENDBRANCH   9  26
BRANCH  12  28
ATOM     28  O   LIG A   1      -9.428   4.146 133.699  0.00  0.00    -0.491 OA
ATOM     29  C   LIG A   1      -8.222   4.236 134.446  0.00  0.00    +0.277 C 
ENDBRANCH  12  28
BRANCH  13  30
ATOM     30  O   LIG A   1     -10.553   6.441 132.341  0.00  0.00    -0.491 OA
ATOM     31  C   LIG A   1     -11.856   6.753 131.858  0.00  0.00    +0.277 C 
ENDBRANCH  13  30
TORSDOF 3
ENDMDL
MODEL 4
REMARK VINA RESULT:      -8.2      3.421      4.808
REMARK  Name = NuBBE_1453
REMARK  7 active torsions:
REMARK  status: ('A' for Active; 'I' for Inactive)
REMARK    1  A    between atoms: C_1  and  C_2
REMARK    2  A    between atoms: C_2  and  C_30
REMARK    3  A    between atoms: C_9  and  O_10
REMARK    4  A    between atoms: C_13  and  O_14
REMARK    5  A    between atoms: O_14  and  C_15
REMARK    6  A    between atoms: C_16  and  O_23
REMARK    7  A    between atoms: O_23  and  C_24
REMARK                            x       y       z     vdW  Elec       q    Type
REMARK                         _______ _______ _______ _____ _____    ______ ____
ROOT
ATOM      1  C   LIG A   1     -11.490   7.531 126.980  0.00  0.00    +0.060 C 
ATOM      2  C   LIG A   1     -11.861   7.777 128.448  0.00  0.00    +0.123 C 
ATOM      3  C   LIG A   1     -12.551   6.558 129.011  0.00  0.00    +0.020 C 
ATOM      4  C   LIG A   1     -11.959   5.720 129.868  0.00  0.00    +0.015 C 
ATOM      5  C   LIG A   1     -10.584   6.000 130.267  0.00  0.00    +0.059 A 
ATOM      6  C   LIG A   1      -9.822   5.088 131.018  0.00  0.00    +0.142 A 
ATOM      7  C   LIG A   1      -8.519   5.421 131.411  0.00  0.00    +0.063 A 
ATOM      8  C   LIG A   1      -7.730   4.471 132.237  0.00  0.00    +0.206 C 
ATOM      9  C   LIG A   1      -8.444   3.186 132.668  0.00  0.00    +0.197 C 
ATOM     10  C   LIG A   1      -7.571   1.971 132.932  0.00  0.00    +0.041 A 
ATOM     11  C   LIG A   1      -6.378   2.045 133.668  0.00  0.00    +0.060 A 
ATOM     12  C   LIG A   1      -5.570   0.917 133.885  0.00  0.00    +0.162 A 
ATOM     13  C   LIG A   1      -5.968  -0.331 133.387  0.00  0.00    +0.165 A 
ATOM     14  C   LIG A   1      -7.185  -0.425 132.704  0.00  0.00    +0.095 A 
ATOM     15  C   LIG A   1      -7.981   0.706 132.491  0.00  0.00    +0.131 A 
ATOM     16  O   LIG A   1      -9.154   0.465 131.822  0.00  0.00    -0.488 OA
ATOM     17  C   LIG A   1     -10.095   1.542 131.848  0.00  0.00    +0.277 C 
ATOM     18  C   LIG A   1      -9.415   2.862 131.527  0.00  0.00    +0.254 C 
ATOM     19  O   LIG A   1     -10.401   3.884 131.347  0.00  0.00    -0.480 OA
ATOM     20  O   LIG A   1      -6.597   4.793 132.592  0.00  0.00    -0.288 OA
ATOM     21  C   LIG A   1      -7.961   6.649 131.041  0.00  0.00    +0.019 A 
ATOM     22  C   LIG A   1      -8.708   7.544 130.278  0.00  0.00    +0.047 A 
ATOM     23  C   LIG A   1     -10.006   7.217 129.884  0.00  0.00    +0.132 A 
ATOM     24  O   LIG A   1     -10.655   8.164 129.140  0.00  0.00    -0.481 OA
ATOM     25  C   LIG A   1     -12.802   8.984 128.545  0.00  0.00    +0.060 C 
ENDROOT
BRANCH   9  26
ATOM     26  O   LIG A   1      -9.156   3.475 133.880  0.00  0.00    -0.373 OA
ATOM     27  H   LIG A   1     -10.101   3.530 133.648  0.00  0.00    +0.211 HD
ENDBRANCH   9  26
BRANCH  12  28
ATOM     28  O   LIG A   1      -4.449   1.194 134.626  0.00  0.00    -0.491 OA
ATOM     29  C   LIG A   1      -3.641   2.277 134.183  0.00  0.00    +0.277 C 
ENDBRANCH  12  28
BRANCH  13  30
ATOM     30  O   LIG A   1      -5.199  -1.430 133.662  0.00  0.00    -0.491 OA
ATOM     31  C   LIG A   1      -4.266  -1.802 132.653  0.00  0.00    +0.277 C 
ENDBRANCH  13  30
TORSDOF 3
ENDMDL
MODEL 5
REMARK VINA RESULT:      -8.0      2.895      8.677
REMARK  Name = NuBBE_1453
REMARK  7 active torsions:
REMARK  status: ('A' for Active; 'I' for Inactive)
REMARK    1  A    between atoms: C_1  and  C_2
REMARK    2  A    between atoms: C_2  and  C_30
REMARK    3  A    between atoms: C_9  and  O_10
REMARK    4  A    between atoms: C_13  and  O_14
REMARK    5  A    between atoms: O_14  and  C_15
REMARK    6  A    between atoms: C_16  and  O_23
REMARK    7  A    between atoms: O_23  and  C_24
REMARK                            x       y       z     vdW  Elec       q    Type
REMARK                         _______ _______ _______ _____ _____    ______ ____
ROOT
ATOM      1  C   LIG A   1      -2.970   3.353 133.374  0.00  0.00    +0.060 C 
ATOM      2  C   LIG A   1      -3.939   2.248 132.933  0.00  0.00    +0.123 C 
ATOM      3  C   LIG A   1      -5.216   2.340 133.733  0.00  0.00    +0.020 C 
ATOM      4  C   LIG A   1      -6.363   2.796 133.218  0.00  0.00    +0.015 C 
ATOM      5  C   LIG A   1      -6.370   3.227 131.825  0.00  0.00    +0.059 A 
ATOM      6  C   LIG A   1      -7.472   3.884 131.250  0.00  0.00    +0.142 A 
ATOM      7  C   LIG A   1      -7.447   4.242 129.896  0.00  0.00    +0.063 A 
ATOM      8  C   LIG A   1      -8.628   4.901 129.282  0.00  0.00    +0.206 C 
ATOM      9  C   LIG A   1      -9.851   5.086 130.185  0.00  0.00    +0.197 C 
ATOM     10  C   LIG A   1     -10.778   6.244 129.856  0.00  0.00    +0.041 A 
ATOM     11  C   LIG A   1     -11.188   6.533 128.544  0.00  0.00    +0.060 A 
ATOM     12  C   LIG A   1     -12.029   7.619 128.252  0.00  0.00    +0.162 A 
ATOM     13  C   LIG A   1     -12.507   8.428 129.292  0.00  0.00    +0.165 A 
ATOM     14  C   LIG A   1     -12.152   8.112 130.607  0.00  0.00    +0.095 A 
ATOM     15  C   LIG A   1     -11.311   7.029 130.886  0.00  0.00    +0.131 A 
ATOM     16  O   LIG A   1     -11.060   6.826 132.220  0.00  0.00    -0.488 OA
ATOM     17  C   LIG A   1     -10.445   5.572 132.533  0.00  0.00    +0.277 C 
ATOM     18  C   LIG A   1      -9.285   5.290 131.595  0.00  0.00    +0.254 C 
ATOM     19  O   LIG A   1      -8.556   4.148 132.056  0.00  0.00    -0.480 OA
ATOM     20  O   LIG A   1      -8.593   5.186 128.086  0.00  0.00    -0.288 OA
ATOM     21  C   LIG A   1      -6.319   3.971 129.115  0.00  0.00    +0.019 A 
ATOM     22  C   LIG A   1      -5.217   3.340 129.689  0.00  0.00    +0.047 A 
ATOM     23  C   LIG A   1      -5.238   2.981 131.038  0.00  0.00    +0.132 A 
ATOM     24  O   LIG A   1      -4.109   2.366 131.504  0.00  0.00    -0.481 OA
ATOM     25  C   LIG A   1      -3.293   0.876 133.163  0.00  0.00    +0.060 C 
ENDROOT
BRANCH   9  26
ATOM     26  O   LIG A   1     -10.627   3.881 130.113  0.00  0.00    -0.373 OA
ATOM     27  H   LIG A   1     -10.317   3.391 129.330  0.00  0.00    +0.211 HD
ENDBRANCH   9  26
BRANCH  12  28
ATOM     28  O   LIG A   1     -12.314   7.732 126.915  0.00  0.00    -0.491 OA
ATOM     29  C   LIG A   1     -11.227   7.577 126.013  0.00  0.00    +0.277 C 
ENDBRANCH  12  28
BRANCH  13  30
ATOM     30  O   LIG A   1     -13.374   9.445 128.994  0.00  0.00    -0.491 OA
ATOM     31  C   LIG A   1     -13.341  10.566 129.872  0.00  0.00    +0.277 C 
ENDBRANCH  13  30
TORSDOF 3
ENDMDL
MODEL 6
REMARK VINA RESULT:      -7.9      6.170      9.646
REMARK  Name = NuBBE_1453
REMARK  7 active torsions:
REMARK  status: ('A' for Active; 'I' for Inactive)
REMARK    1  A    between atoms: C_1  and  C_2
REMARK    2  A    between atoms: C_2  and  C_30
REMARK    3  A    between atoms: C_9  and  O_10
REMARK    4  A    between atoms: C_13  and  O_14
REMARK    5  A    between atoms: O_14  and  C_15
REMARK    6  A    between atoms: C_16  and  O_23
REMARK    7  A    between atoms: O_23  and  C_24
REMARK                            x       y       z     vdW  Elec       q    Type
REMARK                         _______ _______ _______ _____ _____    ______ ____
ROOT
ATOM      1  C   LIG A   1      -4.118   8.836 129.973  0.00  0.00    +0.060 C 
ATOM      2  C   LIG A   1      -3.651   7.584 130.725  0.00  0.00    +0.123 C 
ATOM      3  C   LIG A   1      -4.848   6.838 131.264  0.00  0.00    +0.020 C 
ATOM      4  C   LIG A   1      -5.287   5.691 130.735  0.00  0.00    +0.015 C 
ATOM      5  C   LIG A   1      -4.577   5.148 129.582  0.00  0.00    +0.059 A 
ATOM      6  C   LIG A   1      -5.066   4.051 128.851  0.00  0.00    +0.142 A 
ATOM      7  C   LIG A   1      -4.326   3.540 127.776  0.00  0.00    +0.063 A 
ATOM      8  C   LIG A   1      -4.826   2.357 127.029  0.00  0.00    +0.206 C 
ATOM      9  C   LIG A   1      -6.120   1.722 127.547  0.00  0.00    +0.197 C 
ATOM     10  C   LIG A   1      -6.975   0.982 126.531  0.00  0.00    +0.041 A 
ATOM     11  C   LIG A   1      -6.430   0.095 125.589  0.00  0.00    +0.060 A 
ATOM     12  C   LIG A   1      -7.230  -0.566 124.643  0.00  0.00    +0.162 A 
ATOM     13  C   LIG A   1      -8.618  -0.370 124.647  0.00  0.00    +0.165 A 
ATOM     14  C   LIG A   1      -9.176   0.466 125.619  0.00  0.00    +0.095 A 
ATOM     15  C   LIG A   1      -8.369   1.121 126.556  0.00  0.00    +0.131 A 
ATOM     16  O   LIG A   1      -9.051   1.895 127.460  0.00  0.00    -0.488 OA
ATOM     17  C   LIG A   1      -8.278   2.336 128.581  0.00  0.00    +0.277 C 
ATOM     18  C   LIG A   1      -6.935   2.882 128.129  0.00  0.00    +0.254 C 
ATOM     19  O   LIG A   1      -6.272   3.510 129.232  0.00  0.00    -0.480 OA
ATOM     20  O   LIG A   1      -4.150   1.910 126.105  0.00  0.00    -0.288 OA
ATOM     21  C   LIG A   1      -3.112   4.129 127.410  0.00  0.00    +0.019 A 
ATOM     22  C   LIG A   1      -2.638   5.231 128.121  0.00  0.00    +0.047 A 
ATOM     23  C   LIG A   1      -3.371   5.743 129.192  0.00  0.00    +0.132 A 
ATOM     24  O   LIG A   1      -2.818   6.822 129.825  0.00  0.00    -0.481 OA
ATOM     25  C   LIG A   1      -2.740   7.992 131.889  0.00  0.00    +0.060 C 
ENDROOT
BRANCH   9  26
ATOM     26  O   LIG A   1      -5.761   0.783 128.571  0.00  0.00    -0.373 OA
ATOM     27  H   LIG A   1      -6.410   0.886 129.291  0.00  0.00    +0.211 HD
ENDBRANCH   9  26
BRANCH  12  28
ATOM     28  O   LIG A   1      -6.511  -1.387 123.813  0.00  0.00    -0.491 OA
ATOM     29  C   LIG A   1      -5.556  -2.243 124.428  0.00  0.00    +0.277 C 
ENDBRANCH  12  28
BRANCH  13  30
ATOM     30  O   LIG A   1      -9.388  -1.069 123.756  0.00  0.00    -0.491 OA
ATOM     31  C   LIG A   1      -9.762  -0.368 122.575  0.00  0.00    +0.277 C 
ENDBRANCH  13  30
TORSDOF 3
ENDMDL
MODEL 7
REMARK VINA RESULT:      -7.8      8.447     11.743
REMARK  Name = NuBBE_1453
REMARK  7 active torsions:
REMARK  status: ('A' for Active; 'I' for Inactive)
REMARK    1  A    between atoms: C_1  and  C_2
REMARK    2  A    between atoms: C_2  and  C_30
REMARK    3  A    between atoms: C_9  and  O_10
REMARK    4  A    between atoms: C_13  and  O_14
REMARK    5  A    between atoms: O_14  and  C_15
REMARK    6  A    between atoms: C_16  and  O_23
REMARK    7  A    between atoms: O_23  and  C_24
REMARK                            x       y       z     vdW  Elec       q    Type
REMARK                         _______ _______ _______ _____ _____    ______ ____
ROOT
ATOM      1  C   LIG A   1      -7.414  -2.567 132.244  0.00  0.00    +0.060 C 
ATOM      2  C   LIG A   1      -6.487  -3.236 131.221  0.00  0.00    +0.123 C 
ATOM      3  C   LIG A   1      -7.301  -3.766 130.065  0.00  0.00    +0.020 C 
ATOM      4  C   LIG A   1      -7.313  -3.187 128.861  0.00  0.00    +0.015 C 
ATOM      5  C   LIG A   1      -6.508  -1.986 128.665  0.00  0.00    +0.059 A 
ATOM      6  C   LIG A   1      -6.594  -1.210 127.496  0.00  0.00    +0.142 A 
ATOM      7  C   LIG A   1      -5.770  -0.087 127.338  0.00  0.00    +0.063 A 
ATOM      8  C   LIG A   1      -5.836   0.709 126.086  0.00  0.00    +0.206 C 
ATOM      9  C   LIG A   1      -6.782   0.192 124.998  0.00  0.00    +0.197 C 
ATOM     10  C   LIG A   1      -7.352   1.222 124.039  0.00  0.00    +0.041 A 
ATOM     11  C   LIG A   1      -6.564   2.227 123.454  0.00  0.00    +0.060 A 
ATOM     12  C   LIG A   1      -7.110   3.186 122.585  0.00  0.00    +0.162 A 
ATOM     13  C   LIG A   1      -8.471   3.133 122.256  0.00  0.00    +0.165 A 
ATOM     14  C   LIG A   1      -9.251   2.100 122.787  0.00  0.00    +0.095 A 
ATOM     15  C   LIG A   1      -8.697   1.152 123.654  0.00  0.00    +0.131 A 
ATOM     16  O   LIG A   1      -9.573   0.187 124.084  0.00  0.00    -0.488 OA
ATOM     17  C   LIG A   1      -8.964  -0.934 124.732  0.00  0.00    +0.277 C 
ATOM     18  C   LIG A   1      -7.937  -0.476 125.752  0.00  0.00    +0.254 C 
ATOM     19  O   LIG A   1      -7.499  -1.593 126.534  0.00  0.00    -0.480 OA
ATOM     20  O   LIG A   1      -5.086   1.676 125.958  0.00  0.00    -0.288 OA
ATOM     21  C   LIG A   1      -4.874   0.279 128.348  0.00  0.00    +0.019 A 
ATOM     22  C   LIG A   1      -4.804  -0.478 129.516  0.00  0.00    +0.047 A 
ATOM     23  C   LIG A   1      -5.623  -1.596 129.678  0.00  0.00    +0.132 A 
ATOM     24  O   LIG A   1      -5.476  -2.272 130.858  0.00  0.00    -0.481 OA
ATOM     25  C   LIG A   1      -5.736  -4.395 131.888  0.00  0.00    +0.060 C 
ENDROOT
BRANCH   9  26
ATOM     26  O   LIG A   1      -6.056  -0.768 124.216  0.00  0.00    -0.373 OA
ATOM     27  H   LIG A   1      -6.713  -1.380 123.838  0.00  0.00    +0.211 HD
ENDBRANCH   9  26
BRANCH  12  28
ATOM     28  O   LIG A   1      -6.179   4.080 122.120  0.00  0.00    -0.491 OA
ATOM     29  C   LIG A   1      -5.390   3.666 121.013  0.00  0.00    +0.277 C 
ENDBRANCH  12  28
BRANCH  13  30
ATOM     30  O   LIG A   1      -8.972   4.038 121.360  0.00  0.00    -0.491 OA
ATOM     31  C   LIG A   1      -8.960   3.632 119.995  0.00  0.00    +0.277 C 
ENDBRANCH  13  30
TORSDOF 3
ENDMDL
MODEL 8
REMARK VINA RESULT:      -7.8      7.953     11.125
REMARK  Name = NuBBE_1453
REMARK  7 active torsions:
REMARK  status: ('A' for Active; 'I' for Inactive)
REMARK    1  A    between atoms: C_1  and  C_2
REMARK    2  A    between atoms: C_2  and  C_30
REMARK    3  A    between atoms: C_9  and  O_10
REMARK    4  A    between atoms: C_13  and  O_14
REMARK    5  A    between atoms: O_14  and  C_15
REMARK    6  A    between atoms: C_16  and  O_23
REMARK    7  A    between atoms: O_23  and  C_24
REMARK                            x       y       z     vdW  Elec       q    Type
REMARK                         _______ _______ _______ _____ _____    ______ ____
ROOT
ATOM      1  C   LIG A   1      -4.506  -4.151 131.546  0.00  0.00    +0.060 C 
ATOM      2  C   LIG A   1      -5.792  -3.412 131.940  0.00  0.00    +0.123 C 
ATOM      3  C   LIG A   1      -5.530  -1.926 131.995  0.00  0.00    +0.020 C 
ATOM      4  C   LIG A   1      -5.975  -1.076 131.064  0.00  0.00    +0.015 C 
ATOM      5  C   LIG A   1      -6.740  -1.617 129.945  0.00  0.00    +0.059 A 
ATOM      6  C   LIG A   1      -7.094  -0.834 128.833  0.00  0.00    +0.142 A 
ATOM      7  C   LIG A   1      -7.865  -1.389 127.803  0.00  0.00    +0.063 A 
ATOM      8  C   LIG A   1      -8.271  -0.549 126.647  0.00  0.00    +0.206 C 
ATOM      9  C   LIG A   1      -7.860   0.926 126.699  0.00  0.00    +0.197 C 
ATOM     10  C   LIG A   1      -7.677   1.634 125.367  0.00  0.00    +0.041 A 
ATOM     11  C   LIG A   1      -8.589   1.499 124.308  0.00  0.00    +0.060 A 
ATOM     12  C   LIG A   1      -8.396   2.143 123.076  0.00  0.00    +0.162 A 
ATOM     13  C   LIG A   1      -7.283   2.974 122.892  0.00  0.00    +0.165 A 
ATOM     14  C   LIG A   1      -6.400   3.162 123.960  0.00  0.00    +0.095 A 
ATOM     15  C   LIG A   1      -6.601   2.513 125.183  0.00  0.00    +0.131 A 
ATOM     16  O   LIG A   1      -5.668   2.802 126.147  0.00  0.00    -0.488 OA
ATOM     17  C   LIG A   1      -6.015   2.377 127.468  0.00  0.00    +0.277 C 
ATOM     18  C   LIG A   1      -6.529   0.948 127.459  0.00  0.00    +0.254 C 
ATOM     19  O   LIG A   1      -6.665   0.473 128.803  0.00  0.00    -0.480 OA
ATOM     20  O   LIG A   1      -8.968  -1.049 125.765  0.00  0.00    -0.288 OA
ATOM     21  C   LIG A   1      -8.268  -2.727 127.863  0.00  0.00    +0.019 A 
ATOM     22  C   LIG A   1      -7.898  -3.510 128.956  0.00  0.00    +0.047 A 
ATOM     23  C   LIG A   1      -7.130  -2.961 129.984  0.00  0.00    +0.132 A 
ATOM     24  O   LIG A   1      -6.823  -3.811 131.011  0.00  0.00    -0.481 OA
ATOM     25  C   LIG A   1      -6.262  -3.897 133.317  0.00  0.00    +0.060 C 
ENDROOT
BRANCH   9  26
ATOM     26  O   LIG A   1      -8.877   1.632 127.424  0.00  0.00    -0.373 OA
ATOM     27  H   LIG A   1      -8.943   1.211 128.301  0.00  0.00    +0.211 HD
ENDBRANCH   9  26
BRANCH  12  28
ATOM     28  O   LIG A   1      -9.397   1.886 122.173  0.00  0.00    -0.491 OA
ATOM     29  C   LIG A   1     -10.226   0.762 122.439  0.00  0.00    +0.277 C 
ENDBRANCH  12  28
BRANCH  13  30
ATOM     30  O   LIG A   1      -7.144   3.642 121.705  0.00  0.00    -0.491 OA
ATOM     31  C   LIG A   1      -5.918   3.429 121.012  0.00  0.00    +0.277 C 
ENDBRANCH  13  30
TORSDOF 3
ENDMDL
MODEL 9
REMARK VINA RESULT:      -7.7      5.480      9.762
REMARK  Name = NuBBE_1453
REMARK  7 active torsions:
REMARK  status: ('A' for Active; 'I' for Inactive)
REMARK    1  A    between atoms: C_1  and  C_2
REMARK    2  A    between atoms: C_2  and  C_30
REMARK    3  A    between atoms: C_9  and  O_10
REMARK    4  A    between atoms: C_13  and  O_14
REMARK    5  A    between atoms: O_14  and  C_15
REMARK    6  A    between atoms: C_16  and  O_23
REMARK    7  A    between atoms: O_23  and  C_24
REMARK                            x       y       z     vdW  Elec       q    Type
REMARK                         _______ _______ _______ _____ _____    ______ ____
ROOT
ATOM      1  C   LIG A   1      -2.795   7.880 132.697  0.00  0.00    +0.060 C 
ATOM      2  C   LIG A   1      -1.888   6.690 132.358  0.00  0.00    +0.123 C 
ATOM      3  C   LIG A   1      -2.545   5.405 132.803  0.00  0.00    +0.020 C 
ATOM      4  C   LIG A   1      -3.089   4.535 131.946  0.00  0.00    +0.015 C 
ATOM      5  C   LIG A   1      -3.047   4.850 130.523  0.00  0.00    +0.059 A 
ATOM      6  C   LIG A   1      -3.743   4.090 129.567  0.00  0.00    +0.142 A 
ATOM      7  C   LIG A   1      -3.638   4.409 128.206  0.00  0.00    +0.063 A 
ATOM      8  C   LIG A   1      -4.344   3.582 127.195  0.00  0.00    +0.206 C 
ATOM      9  C   LIG A   1      -5.106   2.362 127.724  0.00  0.00    +0.197 C 
ATOM     10  C   LIG A   1      -6.295   1.888 126.905  0.00  0.00    +0.041 A 
ATOM     11  C   LIG A   1      -6.249   1.769 125.507  0.00  0.00    +0.060 A 
ATOM     12  C   LIG A   1      -7.362   1.349 124.761  0.00  0.00    +0.162 A 
ATOM     13  C   LIG A   1      -8.551   1.004 125.419  0.00  0.00    +0.165 A 
ATOM     14  C   LIG A   1      -8.587   1.063 126.816  0.00  0.00    +0.095 A 
ATOM     15  C   LIG A   1      -7.472   1.486 127.549  0.00  0.00    +0.131 A 
ATOM     16  O   LIG A   1      -7.643   1.478 128.910  0.00  0.00    -0.488 OA
ATOM     17  C   LIG A   1      -6.440   1.631 129.670  0.00  0.00    +0.277 C 
ATOM     18  C   LIG A   1      -5.595   2.766 129.120  0.00  0.00    +0.254 C 
ATOM     19  O   LIG A   1      -4.511   3.041 130.015  0.00  0.00    -0.480 OA
ATOM     20  O   LIG A   1      -4.219   3.864 126.005  0.00  0.00    -0.288 OA
ATOM     21  C   LIG A   1      -2.860   5.495 127.793  0.00  0.00    +0.019 A 
ATOM     22  C   LIG A   1      -2.187   6.262 128.742  0.00  0.00    +0.047 A 
ATOM     23  C   LIG A   1      -2.289   5.948 130.099  0.00  0.00    +0.132 A 
ATOM     24  O   LIG A   1      -1.588   6.760 130.948  0.00  0.00    -0.481 OA
ATOM     25  C   LIG A   1      -0.542   6.847 133.078  0.00  0.00    +0.060 C 
ENDROOT
BRANCH   9  26
ATOM     26  O   LIG A   1      -4.176   1.273 127.802  0.00  0.00    -0.373 OA
ATOM     27  H   LIG A   1      -3.284   1.664 127.853  0.00  0.00    +0.211 HD
ENDBRANCH   9  26
BRANCH  12  28
ATOM     28  O   LIG A   1      -7.116   1.297 123.413  0.00  0.00    -0.491 OA
ATOM     29  C   LIG A   1      -6.901   2.538 122.753  0.00  0.00    +0.277 C 
ENDBRANCH  12  28
BRANCH  13  30
ATOM     30  O   LIG A   1      -9.605   0.539 124.681  0.00  0.00    -0.491 OA
ATOM     31  C   LIG A   1     -10.390   1.530 124.026  0.00  0.00    +0.277 C 
ENDBRANCH  13  30
TORSDOF 3
ENDMDL
