MODEL 1
REMARK VINA RESULT:      -9.5      0.000      0.000
REMARK  Name = NuBBE_1788
REMARK  15 active torsions:
REMARK  status: ('A' for Active; 'I' for Inactive)
REMARK    1  A    between atoms: O_1  and  C_2
REMARK    2  A    between atoms: C_3  and  C_24
REMARK    3  A    between atoms: C_6  and  O_8
REMARK    4  A    between atoms: C_11  and  O_22
REMARK    5  A    between atoms: C_12  and  C_14
REMARK    6  A    between atoms: C_16  and  O_17
REMARK    7  A    between atoms: C_18  and  O_21
REMARK    8  A    between atoms: O_22  and  C_23
REMARK    9  A    between atoms: C_25  and  C_32
REMARK   10  A    between atoms: C_28  and  O_31
REMARK   11  A    between atoms: C_29  and  O_30
REMARK   12  A    between atoms: C_33  and  O_34
REMARK   13  A    between atoms: O_34  and  C_35
REMARK   14  A    between atoms: C_42  and  O_46
REMARK   15  A    between atoms: C_44  and  O_45
REMARK                            x       y       z     vdW  Elec       q    Type
REMARK                         _______ _______ _______ _____ _____    ______ ____
ROOT
ATOM      1  C   LIG A   1      -9.259   2.272 131.941  0.00  0.00    +0.132 A 
ATOM      2  C   LIG A   1      -9.020   2.978 130.723  0.00  0.00    +0.071 A 
ATOM      3  C   LIG A   1      -8.403   2.152 129.687  0.00  0.00    +0.154 A 
ATOM      4  C   LIG A   1      -8.136   0.780 129.918  0.00  0.00    +0.110 A 
ATOM      5  C   LIG A   1      -8.458   0.161 131.124  0.00  0.00    +0.135 A 
ATOM      6  C   LIG A   1      -9.026   0.902 132.130  0.00  0.00    +0.092 A 
ATOM      7  C   LIG A   1      -7.497  -0.062 128.902  0.00  0.00    +0.238 A 
ATOM      8  O   LIG A   1      -7.310  -1.242 129.152  0.00  0.00    -0.283 OA
ATOM      9  C   LIG A   1      -7.078   0.564 127.632  0.00  0.00    +0.211 A 
ATOM     10  C   LIG A   1      -7.358   1.880 127.485  0.00  0.00    +0.181 A 
ATOM     11  O   LIG A   1      -8.063   2.665 128.433  0.00  0.00    -0.450 OA
ENDROOT
BRANCH  10  12
ATOM     12  C   LIG A   1      -6.946   2.633 126.249  0.00  0.00    +0.025 A 
ATOM     13  C   LIG A   1      -7.815   2.787 125.153  0.00  0.00    +0.060 A 
ATOM     14  C   LIG A   1      -7.414   3.481 124.009  0.00  0.00    +0.159 A 
ATOM     15  C   LIG A   1      -6.136   4.009 123.914  0.00  0.00    +0.158 A 
ATOM     16  C   LIG A   1      -5.262   3.896 124.976  0.00  0.00    +0.050 A 
ATOM     17  C   LIG A   1      -5.668   3.215 126.130  0.00  0.00    +0.015 A 
BRANCH  14  18
ATOM     18  O   LIG A   1      -8.265   3.696 122.959  0.00  0.00    -0.503 OA
ATOM     19  H   LIG A   1      -9.110   3.267 123.184  0.00  0.00    +0.292 HD
ENDBRANCH  14  18
BRANCH  15  20
ATOM     20  O   LIG A   1      -5.742   4.667 122.788  0.00  0.00    -0.503 OA
ATOM     21  H   LIG A   1      -6.567   4.816 122.287  0.00  0.00    +0.292 HD
ENDBRANCH  15  20
ENDBRANCH  10  12
BRANCH   2  22
ATOM     22  C   LIG A   1      -9.374   4.497 130.614  0.00  0.00    +0.045 A 
ATOM     23  C   LIG A   1      -8.462   5.628 130.787  0.00  0.00    +0.033 A 
ATOM     24  C   LIG A   1      -8.972   6.963 130.636  0.00  0.00    +0.016 A 
ATOM     25  C   LIG A   1     -10.240   7.278 130.197  0.00  0.00    +0.050 A 
ATOM     26  C   LIG A   1     -11.102   6.236 130.040  0.00  0.00    +0.159 A 
ATOM     27  C   LIG A   1     -10.689   4.897 130.242  0.00  0.00    +0.167 A 
BRANCH  23  28
ATOM     28  C   LIG A   1      -6.967   5.618 131.098  0.00  0.00    +0.181 A 
ATOM     29  C   LIG A   1      -6.450   5.355 132.349  0.00  0.00    +0.211 A 
ATOM     30  C   LIG A   1      -4.999   5.506 132.534  0.00  0.00    +0.238 A 
ATOM     31  O   LIG A   1      -4.424   5.392 133.658  0.00  0.00    -0.283 OA
ATOM     32  C   LIG A   1      -4.182   5.813 131.378  0.00  0.00    +0.109 A 
ATOM     33  C   LIG A   1      -4.823   6.041 130.155  0.00  0.00    +0.146 A 
ATOM     34  O   LIG A   1      -6.181   5.948 130.004  0.00  0.00    -0.451 OA
ATOM     35  C   LIG A   1      -4.077   6.399 129.032  0.00  0.00    +0.092 A 
ATOM     36  C   LIG A   1      -2.689   6.466 129.129  0.00  0.00    +0.124 A 
ATOM     37  C   LIG A   1      -2.036   6.183 130.324  0.00  0.00    +0.091 A 
ATOM     38  C   LIG A   1      -2.787   5.882 131.460  0.00  0.00    +0.135 A 
BRANCH  29  39
ATOM     39  O   LIG A   1      -7.255   4.843 133.346  0.00  0.00    -0.488 OA
ATOM     40  C   LIG A   1      -7.836   5.632 134.370  0.00  0.00    +0.277 C 
ENDBRANCH  29  39
BRANCH  38  41
ATOM     41  O   LIG A   1      -2.088   5.684 132.615  0.00  0.00    -0.506 OA
ATOM     42  H   LIG A   1      -1.709   4.780 132.587  0.00  0.00    +0.292 HD
ENDBRANCH  38  41
BRANCH  36  43
ATOM     43  O   LIG A   1      -1.923   6.814 128.059  0.00  0.00    -0.506 OA
ATOM     44  H   LIG A   1      -1.326   6.070 127.865  0.00  0.00    +0.292 HD
ENDBRANCH  36  43
ENDBRANCH  23  28
BRANCH  27  45
ATOM     45  O   LIG A   1     -11.685   3.992 129.975  0.00  0.00    -0.503 OA
ATOM     46  H   LIG A   1     -11.216   3.132 130.034  0.00  0.00    +0.292 HD
ENDBRANCH  27  45
BRANCH  26  47
ATOM     47  O   LIG A   1     -12.410   6.469 129.692  0.00  0.00    -0.503 OA
ATOM     48  H   LIG A   1     -12.782   7.088 130.348  0.00  0.00    +0.292 HD
ENDBRANCH  26  47
ENDBRANCH   2  22
BRANCH   1  49
ATOM     49  O   LIG A   1      -9.714   2.907 133.071  0.00  0.00    -0.506 OA
ATOM     50  H   LIG A   1     -10.606   3.246 132.865  0.00  0.00    +0.292 HD
ENDBRANCH   1  49
BRANCH   5  51
ATOM     51  O   LIG A   1      -8.238  -1.159 131.416  0.00  0.00    -0.506 OA
ATOM     52  H   LIG A   1      -8.241  -1.262 132.397  0.00  0.00    +0.292 HD
ENDBRANCH   5  51
BRANCH   9  53
ATOM     53  O   LIG A   1      -6.345  -0.176 126.704  0.00  0.00    -0.488 OA
ATOM     54  C   LIG A   1      -7.061  -0.928 125.719  0.00  0.00    +0.277 C 
ENDBRANCH   9  53
TORSDOF 13
ENDMDL
MODEL 2
REMARK VINA RESULT:      -9.0      2.479      6.761
REMARK  Name = NuBBE_1788
REMARK  15 active torsions:
REMARK  status: ('A' for Active; 'I' for Inactive)
REMARK    1  A    between atoms: O_1  and  C_2
REMARK    2  A    between atoms: C_3  and  C_24
REMARK    3  A    between atoms: C_6  and  O_8
REMARK    4  A    between atoms: C_11  and  O_22
REMARK    5  A    between atoms: C_12  and  C_14
REMARK    6  A    between atoms: C_16  and  O_17
REMARK    7  A    between atoms: C_18  and  O_21
REMARK    8  A    between atoms: O_22  and  C_23
REMARK    9  A    between atoms: C_25  and  C_32
REMARK   10  A    between atoms: C_28  and  O_31
REMARK   11  A    between atoms: C_29  and  O_30
REMARK   12  A    between atoms: C_33  and  O_34
REMARK   13  A    between atoms: O_34  and  C_35
REMARK   14  A    between atoms: C_42  and  O_46
REMARK   15  A    between atoms: C_44  and  O_45
REMARK                            x       y       z     vdW  Elec       q    Type
REMARK                         _______ _______ _______ _____ _____    ______ ____
ROOT
ATOM      1  C   LIG A   1      -7.646   3.786 125.747  0.00  0.00    +0.132 A 
ATOM      2  C   LIG A   1      -6.998   2.841 126.599  0.00  0.00    +0.071 A 
ATOM      3  C   LIG A   1      -7.504   1.479 126.445  0.00  0.00    +0.154 A 
ATOM      4  C   LIG A   1      -8.509   1.184 125.492  0.00  0.00    +0.110 A 
ATOM      5  C   LIG A   1      -9.044   2.164 124.660  0.00  0.00    +0.135 A 
ATOM      6  C   LIG A   1      -8.609   3.460 124.780  0.00  0.00    +0.092 A 
ATOM      7  C   LIG A   1      -9.047  -0.171 125.336  0.00  0.00    +0.238 A 
ATOM      8  O   LIG A   1      -9.900  -0.369 124.483  0.00  0.00    -0.283 OA
ATOM      9  C   LIG A   1      -8.558  -1.232 126.240  0.00  0.00    +0.211 A 
ATOM     10  C   LIG A   1      -7.604  -0.874 127.130  0.00  0.00    +0.181 A 
ATOM     11  O   LIG A   1      -7.019   0.416 127.210  0.00  0.00    -0.450 OA
ENDROOT
BRANCH  10  12
ATOM     12  C   LIG A   1      -7.056  -1.860 128.126  0.00  0.00    +0.025 A 
ATOM     13  C   LIG A   1      -5.711  -2.271 128.097  0.00  0.00    +0.060 A 
ATOM     14  C   LIG A   1      -5.220  -3.195 129.023  0.00  0.00    +0.159 A 
ATOM     15  C   LIG A   1      -6.058  -3.753 129.976  0.00  0.00    +0.158 A 
ATOM     16  C   LIG A   1      -7.379  -3.360 130.050  0.00  0.00    +0.050 A 
ATOM     17  C   LIG A   1      -7.868  -2.422 129.133  0.00  0.00    +0.015 A 
BRANCH  14  18
ATOM     18  O   LIG A   1      -3.902  -3.559 129.050  0.00  0.00    -0.503 OA
ATOM     19  H   LIG A   1      -3.746  -4.000 129.905  0.00  0.00    +0.292 HD
ENDBRANCH  14  18
BRANCH  15  20
ATOM     20  O   LIG A   1      -5.580  -4.669 130.864  0.00  0.00    -0.503 OA
ATOM     21  H   LIG A   1      -4.629  -4.461 130.947  0.00  0.00    +0.292 HD
ENDBRANCH  15  20
ENDBRANCH  10  12
BRANCH   2  22
ATOM     22  C   LIG A   1      -5.897   3.317 127.603  0.00  0.00    +0.045 A 
ATOM     23  C   LIG A   1      -6.100   4.050 128.852  0.00  0.00    +0.033 A 
ATOM     24  C   LIG A   1      -4.957   4.393 129.653  0.00  0.00    +0.016 A 
ATOM     25  C   LIG A   1      -3.671   3.962 129.415  0.00  0.00    +0.050 A 
ATOM     26  C   LIG A   1      -3.464   3.285 128.251  0.00  0.00    +0.159 A 
ATOM     27  C   LIG A   1      -4.532   2.975 127.376  0.00  0.00    +0.167 A 
BRANCH  23  28
ATOM     28  C   LIG A   1      -7.407   4.520 129.488  0.00  0.00    +0.181 A 
ATOM     29  C   LIG A   1      -7.867   4.068 130.706  0.00  0.00    +0.211 A 
ATOM     30  C   LIG A   1      -9.203   4.508 131.138  0.00  0.00    +0.238 A 
ATOM     31  O   LIG A   1      -9.773   4.079 132.186  0.00  0.00    -0.283 OA
ATOM     32  C   LIG A   1      -9.912   5.470 130.321  0.00  0.00    +0.109 A 
ATOM     33  C   LIG A   1      -9.331   5.869 129.112  0.00  0.00    +0.146 A 
ATOM     34  O   LIG A   1      -8.109   5.414 128.694  0.00  0.00    -0.451 OA
ATOM     35  C   LIG A   1     -10.010   6.748 128.268  0.00  0.00    +0.092 A 
ATOM     36  C   LIG A   1     -11.238   7.268 128.670  0.00  0.00    +0.124 A 
ATOM     37  C   LIG A   1     -11.797   6.926 129.897  0.00  0.00    +0.091 A 
ATOM     38  C   LIG A   1     -11.145   6.003 130.713  0.00  0.00    +0.135 A 
BRANCH  29  39
ATOM     39  O   LIG A   1      -7.044   3.337 131.540  0.00  0.00    -0.488 OA
ATOM     40  C   LIG A   1      -7.095   1.926 131.654  0.00  0.00    +0.277 C 
ENDBRANCH  29  39
BRANCH  38  41
ATOM     41  O   LIG A   1     -11.781   5.658 131.871  0.00  0.00    -0.506 OA
ATOM     42  H   LIG A   1     -11.318   4.881 132.250  0.00  0.00    +0.292 HD
ENDBRANCH  38  41
BRANCH  36  43
ATOM     43  O   LIG A   1     -11.936   8.126 127.877  0.00  0.00    -0.506 OA
ATOM     44  H   LIG A   1     -11.592   9.023 128.033  0.00  0.00    +0.292 HD
ENDBRANCH  36  43
ENDBRANCH  23  28
BRANCH  27  45
ATOM     45  O   LIG A   1      -4.129   2.237 126.292  0.00  0.00    -0.503 OA
ATOM     46  H   LIG A   1      -4.973   1.860 125.963  0.00  0.00    +0.292 HD
ENDBRANCH  27  45
BRANCH  26  47
ATOM     47  O   LIG A   1      -2.196   2.898 127.894  0.00  0.00    -0.503 OA
ATOM     48  H   LIG A   1      -2.277   2.292 127.134  0.00  0.00    +0.292 HD
ENDBRANCH  26  47
ENDBRANCH   2  22
BRANCH   1  49
ATOM     49  O   LIG A   1      -7.399   5.134 125.836  0.00  0.00    -0.506 OA
ATOM     50  H   LIG A   1      -6.481   5.273 125.538  0.00  0.00    +0.292 HD
ENDBRANCH   1  49
BRANCH   5  51
ATOM     51  O   LIG A   1     -10.009   1.952 123.711  0.00  0.00    -0.506 OA
ATOM     52  H   LIG A   1     -10.363   1.038 123.831  0.00  0.00    +0.292 HD
ENDBRANCH   5  51
BRANCH   9  53
ATOM     53  O   LIG A   1      -9.150  -2.495 126.209  0.00  0.00    -0.488 OA
ATOM     54  C   LIG A   1      -8.613  -3.473 125.312  0.00  0.00    +0.277 C 
ENDBRANCH   9  53
TORSDOF 13
ENDMDL
MODEL 3
REMARK VINA RESULT:      -8.9      2.175      5.280
REMARK  Name = NuBBE_1788
REMARK  15 active torsions:
REMARK  status: ('A' for Active; 'I' for Inactive)
REMARK    1  A    between atoms: O_1  and  C_2
REMARK    2  A    between atoms: C_3  and  C_24
REMARK    3  A    between atoms: C_6  and  O_8
REMARK    4  A    between atoms: C_11  and  O_22
REMARK    5  A    between atoms: C_12  and  C_14
REMARK    6  A    between atoms: C_16  and  O_17
REMARK    7  A    between atoms: C_18  and  O_21
REMARK    8  A    between atoms: O_22  and  C_23
REMARK    9  A    between atoms: C_25  and  C_32
REMARK   10  A    between atoms: C_28  and  O_31
REMARK   11  A    between atoms: C_29  and  O_30
REMARK   12  A    between atoms: C_33  and  O_34
REMARK   13  A    between atoms: O_34  and  C_35
REMARK   14  A    between atoms: C_42  and  O_46
REMARK   15  A    between atoms: C_44  and  O_45
REMARK                            x       y       z     vdW  Elec       q    Type
REMARK                         _______ _______ _______ _____ _____    ______ ____
ROOT
ATOM      1  C   LIG A   1      -5.879   0.719 129.184  0.00  0.00    +0.132 A 
ATOM      2  C   LIG A   1      -5.924   1.587 128.051  0.00  0.00    +0.071 A 
ATOM      3  C   LIG A   1      -6.769   1.084 126.969  0.00  0.00    +0.154 A 
ATOM      4  C   LIG A   1      -7.480  -0.132 127.113  0.00  0.00    +0.110 A 
ATOM      5  C   LIG A   1      -7.420  -0.886 128.282  0.00  0.00    +0.135 A 
ATOM      6  C   LIG A   1      -6.628  -0.458 129.319  0.00  0.00    +0.092 A 
ATOM      7  C   LIG A   1      -8.315  -0.668 126.033  0.00  0.00    +0.238 A 
ATOM      8  O   LIG A   1      -8.921  -1.711 126.222  0.00  0.00    -0.283 OA
ATOM      9  C   LIG A   1      -8.359   0.062 124.749  0.00  0.00    +0.211 A 
ATOM     10  C   LIG A   1      -7.647   1.212 124.683  0.00  0.00    +0.181 A 
ATOM     11  O   LIG A   1      -6.921   1.773 125.764  0.00  0.00    -0.450 OA
ENDROOT
BRANCH  10  12
ATOM     12  C   LIG A   1      -7.588   2.021 123.416  0.00  0.00    +0.025 A 
ATOM     13  C   LIG A   1      -6.368   2.307 122.778  0.00  0.00    +0.060 A 
ATOM     14  C   LIG A   1      -6.329   3.068 121.607  0.00  0.00    +0.159 A 
ATOM     15  C   LIG A   1      -7.494   3.586 121.062  0.00  0.00    +0.158 A 
ATOM     16  C   LIG A   1      -8.712   3.310 121.647  0.00  0.00    +0.050 A 
ATOM     17  C   LIG A   1      -8.754   2.534 122.811  0.00  0.00    +0.015 A 
BRANCH  14  18
ATOM     18  O   LIG A   1      -5.159   3.305 120.937  0.00  0.00    -0.503 OA
ATOM     19  H   LIG A   1      -5.361   3.256 119.986  0.00  0.00    +0.292 HD
ENDBRANCH  14  18
BRANCH  15  20
ATOM     20  O   LIG A   1      -7.449   4.345 119.931  0.00  0.00    -0.503 OA
ATOM     21  H   LIG A   1      -6.501   4.390 119.700  0.00  0.00    +0.292 HD
ENDBRANCH  15  20
ENDBRANCH  10  12
BRANCH   2  22
ATOM     22  C   LIG A   1      -5.083   2.906 128.038  0.00  0.00    +0.045 A 
ATOM     23  C   LIG A   1      -5.361   4.135 128.781  0.00  0.00    +0.033 A 
ATOM     24  C   LIG A   1      -4.460   5.247 128.649  0.00  0.00    +0.016 A 
ATOM     25  C   LIG A   1      -3.257   5.211 127.980  0.00  0.00    +0.050 A 
ATOM     26  C   LIG A   1      -2.987   4.076 127.277  0.00  0.00    +0.159 A 
ATOM     27  C   LIG A   1      -3.865   2.966 127.302  0.00  0.00    +0.167 A 
BRANCH  23  28
ATOM     28  C   LIG A   1      -6.507   4.438 129.744  0.00  0.00    +0.181 A 
ATOM     29  C   LIG A   1      -6.532   4.018 131.056  0.00  0.00    +0.211 A 
ATOM     30  C   LIG A   1      -7.756   4.271 131.831  0.00  0.00    +0.238 A 
ATOM     31  O   LIG A   1      -7.936   3.842 133.010  0.00  0.00    -0.283 OA
ATOM     32  C   LIG A   1      -8.819   5.038 131.215  0.00  0.00    +0.109 A 
ATOM     33  C   LIG A   1      -8.669   5.426 129.879  0.00  0.00    +0.146 A 
ATOM     34  O   LIG A   1      -7.545   5.141 129.150  0.00  0.00    -0.451 OA
ATOM     35  C   LIG A   1      -9.695   6.114 129.232  0.00  0.00    +0.092 A 
ATOM     36  C   LIG A   1     -10.840   6.460 129.946  0.00  0.00    +0.124 A 
ATOM     37  C   LIG A   1     -10.976   6.133 131.292  0.00  0.00    +0.091 A 
ATOM     38  C   LIG A   1      -9.973   5.395 131.921  0.00  0.00    +0.135 A 
BRANCH  29  39
ATOM     39  O   LIG A   1      -5.398   3.499 131.647  0.00  0.00    -0.488 OA
ATOM     40  C   LIG A   1      -4.472   4.277 132.386  0.00  0.00    +0.277 C 
ENDBRANCH  29  39
BRANCH  38  41
ATOM     41  O   LIG A   1     -10.200   5.047 133.221  0.00  0.00    -0.506 OA
ATOM     42  H   LIG A   1      -9.624   5.603 133.788  0.00  0.00    +0.292 HD
ENDBRANCH  38  41
BRANCH  36  43
ATOM     43  O   LIG A   1     -11.867   7.128 129.354  0.00  0.00    -0.506 OA
ATOM     44  H   LIG A   1     -11.773   7.026 128.391  0.00  0.00    +0.292 HD
ENDBRANCH  36  43
ENDBRANCH  23  28
BRANCH  27  45
ATOM     45  O   LIG A   1      -3.388   1.900 126.581  0.00  0.00    -0.503 OA
ATOM     46  H   LIG A   1      -4.067   1.793 125.881  0.00  0.00    +0.292 HD
ENDBRANCH  27  45
BRANCH  26  47
ATOM     47  O   LIG A   1      -1.852   3.992 126.510  0.00  0.00    -0.503 OA
ATOM     48  H   LIG A   1      -1.103   3.821 127.112  0.00  0.00    +0.292 HD
ENDBRANCH  26  47
ENDBRANCH   2  22
BRANCH   1  49
ATOM     49  O   LIG A   1      -5.042   0.957 130.247  0.00  0.00    -0.506 OA
ATOM     50  H   LIG A   1      -4.802   0.087 130.618  0.00  0.00    +0.292 HD
ENDBRANCH   1  49
BRANCH   5  51
ATOM     51  O   LIG A   1      -8.086  -2.064 128.497  0.00  0.00    -0.506 OA
ATOM     52  H   LIG A   1      -8.372  -2.089 129.441  0.00  0.00    +0.292 HD
ENDBRANCH   5  51
BRANCH   9  53
ATOM     53  O   LIG A   1      -9.031  -0.493 123.660  0.00  0.00    -0.488 OA
ATOM     54  C   LIG A   1      -8.353  -1.483 122.879  0.00  0.00    +0.277 C 
ENDBRANCH   9  53
TORSDOF 13
ENDMDL
MODEL 4
REMARK VINA RESULT:      -8.8      2.779      7.862
REMARK  Name = NuBBE_1788
REMARK  15 active torsions:
REMARK  status: ('A' for Active; 'I' for Inactive)
REMARK    1  A    between atoms: O_1  and  C_2
REMARK    2  A    between atoms: C_3  and  C_24
REMARK    3  A    between atoms: C_6  and  O_8
REMARK    4  A    between atoms: C_11  and  O_22
REMARK    5  A    between atoms: C_12  and  C_14
REMARK    6  A    between atoms: C_16  and  O_17
REMARK    7  A    between atoms: C_18  and  O_21
REMARK    8  A    between atoms: O_22  and  C_23
REMARK    9  A    between atoms: C_25  and  C_32
REMARK   10  A    between atoms: C_28  and  O_31
REMARK   11  A    between atoms: C_29  and  O_30
REMARK   12  A    between atoms: C_33  and  O_34
REMARK   13  A    between atoms: O_34  and  C_35
REMARK   14  A    between atoms: C_42  and  O_46
REMARK   15  A    between atoms: C_44  and  O_45
REMARK                            x       y       z     vdW  Elec       q    Type
REMARK                         _______ _______ _______ _____ _____    ______ ____
ROOT
ATOM      1  C   LIG A   1      -8.318   3.954 129.242  0.00  0.00    +0.132 A 
ATOM      2  C   LIG A   1      -7.344   2.974 128.881  0.00  0.00    +0.071 A 
ATOM      3  C   LIG A   1      -7.509   1.706 129.588  0.00  0.00    +0.154 A 
ATOM      4  C   LIG A   1      -8.580   1.517 130.496  0.00  0.00    +0.110 A 
ATOM      5  C   LIG A   1      -9.519   2.515 130.743  0.00  0.00    +0.135 A 
ATOM      6  C   LIG A   1      -9.395   3.728 130.112  0.00  0.00    +0.092 A 
ATOM      7  C   LIG A   1      -8.752   0.261 131.233  0.00  0.00    +0.238 A 
ATOM      8  O   LIG A   1      -9.705   0.151 131.989  0.00  0.00    -0.283 OA
ATOM      9  C   LIG A   1      -7.744  -0.803 131.055  0.00  0.00    +0.211 A 
ATOM     10  C   LIG A   1      -6.745  -0.549 130.178  0.00  0.00    +0.181 A 
ATOM     11  O   LIG A   1      -6.639   0.630 129.396  0.00  0.00    -0.450 OA
ENDROOT
BRANCH  10  12
ATOM     12  C   LIG A   1      -5.641  -1.544 129.941  0.00  0.00    +0.025 A 
ATOM     13  C   LIG A   1      -4.813  -1.991 130.986  0.00  0.00    +0.060 A 
ATOM     14  C   LIG A   1      -3.786  -2.909 130.749  0.00  0.00    +0.159 A 
ATOM     15  C   LIG A   1      -3.540  -3.378 129.467  0.00  0.00    +0.158 A 
ATOM     16  C   LIG A   1      -4.344  -2.979 128.420  0.00  0.00    +0.050 A 
ATOM     17  C   LIG A   1      -5.384  -2.072 128.660  0.00  0.00    +0.015 A 
BRANCH  14  18
ATOM     18  O   LIG A   1      -3.011  -3.404 131.761  0.00  0.00    -0.503 OA
ATOM     19  H   LIG A   1      -3.030  -4.375 131.687  0.00  0.00    +0.292 HD
ENDBRANCH  14  18
BRANCH  15  20
ATOM     20  O   LIG A   1      -2.525  -4.257 129.237  0.00  0.00    -0.503 OA
ATOM     21  H   LIG A   1      -2.072  -4.344 130.098  0.00  0.00    +0.292 HD
ENDBRANCH  15  20
ENDBRANCH  10  12
BRANCH   2  22
ATOM     22  C   LIG A   1      -6.218   3.328 127.855  0.00  0.00    +0.045 A 
ATOM     23  C   LIG A   1      -5.951   2.667 126.578  0.00  0.00    +0.033 A 
ATOM     24  C   LIG A   1      -4.870   3.145 125.759  0.00  0.00    +0.016 A 
ATOM     25  C   LIG A   1      -4.135   4.282 126.010  0.00  0.00    +0.050 A 
ATOM     26  C   LIG A   1      -4.366   4.904 127.199  0.00  0.00    +0.159 A 
ATOM     27  C   LIG A   1      -5.367   4.446 128.090  0.00  0.00    +0.167 A 
BRANCH  23  28
ATOM     28  C   LIG A   1      -6.690   1.500 125.927  0.00  0.00    +0.181 A 
ATOM     29  C   LIG A   1      -8.042   1.505 125.663  0.00  0.00    +0.211 A 
ATOM     30  C   LIG A   1      -8.643   0.263 125.151  0.00  0.00    +0.238 A 
ATOM     31  O   LIG A   1      -9.889   0.115 124.970  0.00  0.00    -0.283 OA
ATOM     32  C   LIG A   1      -7.773  -0.854 124.851  0.00  0.00    +0.109 A 
ATOM     33  C   LIG A   1      -6.410  -0.732 125.146  0.00  0.00    +0.146 A 
ATOM     34  O   LIG A   1      -5.868   0.412 125.670  0.00  0.00    -0.451 OA
ATOM     35  C   LIG A   1      -5.549  -1.806 124.927  0.00  0.00    +0.092 A 
ATOM     36  C   LIG A   1      -6.049  -2.976 124.358  0.00  0.00    +0.124 A 
ATOM     37  C   LIG A   1      -7.389  -3.088 124.005  0.00  0.00    +0.091 A 
ATOM     38  C   LIG A   1      -8.260  -2.033 124.277  0.00  0.00    +0.135 A 
BRANCH  29  39
ATOM     39  O   LIG A   1      -8.770   2.675 125.754  0.00  0.00    -0.488 OA
ATOM     40  C   LIG A   1      -8.530   3.812 124.944  0.00  0.00    +0.277 C 
ENDBRANCH  29  39
BRANCH  38  41
ATOM     41  O   LIG A   1      -9.574  -2.236 123.970  0.00  0.00    -0.506 OA
ATOM     42  H   LIG A   1      -9.665  -2.199 122.994  0.00  0.00    +0.292 HD
ENDBRANCH  38  41
BRANCH  36  43
ATOM     43  O   LIG A   1      -5.245  -4.050 124.131  0.00  0.00    -0.506 OA
ATOM     44  H   LIG A   1      -5.760  -4.854 124.320  0.00  0.00    +0.292 HD
ENDBRANCH  36  43
ENDBRANCH  23  28
BRANCH  27  45
ATOM     45  O   LIG A   1      -5.486   5.240 129.203  0.00  0.00    -0.503 OA
ATOM     46  H   LIG A   1      -5.321   6.139 128.844  0.00  0.00    +0.292 HD
ENDBRANCH  27  45
BRANCH  26  47
ATOM     47  O   LIG A   1      -3.614   5.992 127.568  0.00  0.00    -0.503 OA
ATOM     48  H   LIG A   1      -4.163   6.542 128.157  0.00  0.00    +0.292 HD
ENDBRANCH  26  47
ENDBRANCH   2  22
BRANCH   1  49
ATOM     49  O   LIG A   1      -8.253   5.246 128.782  0.00  0.00    -0.506 OA
ATOM     50  H   LIG A   1      -7.519   5.680 129.258  0.00  0.00    +0.292 HD
ENDBRANCH   1  49
BRANCH   5  51
ATOM     51  O   LIG A   1     -10.583   2.402 131.599  0.00  0.00    -0.506 OA
ATOM     52  H   LIG A   1     -10.513   3.119 132.274  0.00  0.00    +0.292 HD
ENDBRANCH   5  51
BRANCH   9  53
ATOM     53  O   LIG A   1      -7.803  -1.952 131.845  0.00  0.00    -0.488 OA
ATOM     54  C   LIG A   1      -7.486  -1.835 133.236  0.00  0.00    +0.277 C 
ENDBRANCH   9  53
TORSDOF 13
ENDMDL
MODEL 5
REMARK VINA RESULT:      -8.7      2.927      8.131
REMARK  Name = NuBBE_1788
REMARK  15 active torsions:
REMARK  status: ('A' for Active; 'I' for Inactive)
REMARK    1  A    between atoms: O_1  and  C_2
REMARK    2  A    between atoms: C_3  and  C_24
REMARK    3  A    between atoms: C_6  and  O_8
REMARK    4  A    between atoms: C_11  and  O_22
REMARK    5  A    between atoms: C_12  and  C_14
REMARK    6  A    between atoms: C_16  and  O_17
REMARK    7  A    between atoms: C_18  and  O_21
REMARK    8  A    between atoms: O_22  and  C_23
REMARK    9  A    between atoms: C_25  and  C_32
REMARK   10  A    between atoms: C_28  and  O_31
REMARK   11  A    between atoms: C_29  and  O_30
REMARK   12  A    between atoms: C_33  and  O_34
REMARK   13  A    between atoms: O_34  and  C_35
REMARK   14  A    between atoms: C_42  and  O_46
REMARK   15  A    between atoms: C_44  and  O_45
REMARK                            x       y       z     vdW  Elec       q    Type
REMARK                         _______ _______ _______ _____ _____    ______ ____
ROOT
ATOM      1  C   LIG A   1      -5.338   1.095 128.144  0.00  0.00    +0.132 A 
ATOM      2  C   LIG A   1      -6.213   2.196 127.900  0.00  0.00    +0.071 A 
ATOM      3  C   LIG A   1      -6.956   2.619 129.086  0.00  0.00    +0.154 A 
ATOM      4  C   LIG A   1      -6.748   1.984 130.335  0.00  0.00    +0.110 A 
ATOM      5  C   LIG A   1      -5.827   0.951 130.490  0.00  0.00    +0.135 A 
ATOM      6  C   LIG A   1      -5.118   0.512 129.400  0.00  0.00    +0.092 A 
ATOM      7  C   LIG A   1      -7.499   2.376 131.532  0.00  0.00    +0.238 A 
ATOM      8  O   LIG A   1      -7.262   1.805 132.586  0.00  0.00    -0.283 OA
ATOM      9  C   LIG A   1      -8.533   3.422 131.404  0.00  0.00    +0.211 A 
ATOM     10  C   LIG A   1      -8.682   3.978 130.178  0.00  0.00    +0.181 A 
ATOM     11  O   LIG A   1      -7.885   3.661 129.048  0.00  0.00    -0.450 OA
ENDROOT
BRANCH  10  12
ATOM     12  C   LIG A   1      -9.728   5.027 129.919  0.00  0.00    +0.025 A 
ATOM     13  C   LIG A   1      -9.402   6.271 129.349  0.00  0.00    +0.060 A 
ATOM     14  C   LIG A   1     -10.384   7.239 129.123  0.00  0.00    +0.159 A 
ATOM     15  C   LIG A   1     -11.703   7.006 129.485  0.00  0.00    +0.158 A 
ATOM     16  C   LIG A   1     -12.065   5.790 130.027  0.00  0.00    +0.050 A 
ATOM     17  C   LIG A   1     -11.084   4.813 130.239  0.00  0.00    +0.015 A 
BRANCH  14  18
ATOM     18  O   LIG A   1     -10.099   8.429 128.513  0.00  0.00    -0.503 OA
ATOM     19  H   LIG A   1     -10.897   8.697 128.023  0.00  0.00    +0.292 HD
ENDBRANCH  14  18
BRANCH  15  20
ATOM     20  O   LIG A   1     -12.654   7.960 129.281  0.00  0.00    -0.503 OA
ATOM     21  H   LIG A   1     -12.150   8.770 129.069  0.00  0.00    +0.292 HD
ENDBRANCH  15  20
ENDBRANCH  10  12
BRANCH   2  22
ATOM     22  C   LIG A   1      -6.335   2.799 126.462  0.00  0.00    +0.045 A 
ATOM     23  C   LIG A   1      -6.713   2.091 125.240  0.00  0.00    +0.033 A 
ATOM     24  C   LIG A   1      -6.782   2.822 124.004  0.00  0.00    +0.016 A 
ATOM     25  C   LIG A   1      -6.656   4.189 123.889  0.00  0.00    +0.050 A 
ATOM     26  C   LIG A   1      -6.296   4.861 125.018  0.00  0.00    +0.159 A 
ATOM     27  C   LIG A   1      -6.139   4.195 126.257  0.00  0.00    +0.167 A 
BRANCH  23  28
ATOM     28  C   LIG A   1      -7.088   0.622 125.057  0.00  0.00    +0.181 A 
ATOM     29  C   LIG A   1      -8.360   0.129 125.254  0.00  0.00    +0.211 A 
ATOM     30  C   LIG A   1      -8.550  -1.327 125.167  0.00  0.00    +0.238 A 
ATOM     31  O   LIG A   1      -9.648  -1.904 125.429  0.00  0.00    -0.283 OA
ATOM     32  C   LIG A   1      -7.424  -2.149 124.775  0.00  0.00    +0.109 A 
ATOM     33  C   LIG A   1      -6.184  -1.529 124.584  0.00  0.00    +0.146 A 
ATOM     34  O   LIG A   1      -6.006  -0.177 124.717  0.00  0.00    -0.451 OA
ATOM     35  C   LIG A   1      -5.062  -2.294 124.265  0.00  0.00    +0.092 A 
ATOM     36  C   LIG A   1      -5.204  -3.668 124.081  0.00  0.00    +0.124 A 
ATOM     37  C   LIG A   1      -6.442  -4.287 124.208  0.00  0.00    +0.091 A 
ATOM     38  C   LIG A   1      -7.551  -3.529 124.584  0.00  0.00    +0.135 A 
BRANCH  29  39
ATOM     39  O   LIG A   1      -9.431   0.989 125.395  0.00  0.00    -0.488 OA
ATOM     40  C   LIG A   1     -10.232   1.429 124.312  0.00  0.00    +0.277 C 
ENDBRANCH  29  39
BRANCH  38  41
ATOM     41  O   LIG A   1      -8.721  -4.211 124.759  0.00  0.00    -0.506 OA
ATOM     42  H   LIG A   1      -9.428  -3.555 124.941  0.00  0.00    +0.292 HD
ENDBRANCH  38  41
BRANCH  36  43
ATOM     43  O   LIG A   1      -4.136  -4.452 123.772  0.00  0.00    -0.506 OA
ATOM     44  H   LIG A   1      -4.397  -5.379 123.908  0.00  0.00    +0.292 HD
ENDBRANCH  36  43
ENDBRANCH  23  28
BRANCH  27  45
ATOM     45  O   LIG A   1      -5.835   5.054 127.283  0.00  0.00    -0.503 OA
ATOM     46  H   LIG A   1      -5.083   5.568 126.917  0.00  0.00    +0.292 HD
ENDBRANCH  27  45
BRANCH  26  47
ATOM     47  O   LIG A   1      -6.062   6.214 124.971  0.00  0.00    -0.503 OA
ATOM     48  H   LIG A   1      -6.917   6.654 124.809  0.00  0.00    +0.292 HD
ENDBRANCH  26  47
ENDBRANCH   2  22
BRANCH   1  49
ATOM     49  O   LIG A   1      -4.652   0.475 127.128  0.00  0.00    -0.506 OA
ATOM     50  H   LIG A   1      -5.041  -0.414 127.026  0.00  0.00    +0.292 HD
ENDBRANCH   1  49
BRANCH   5  51
ATOM     51  O   LIG A   1      -5.566   0.297 131.666  0.00  0.00    -0.506 OA
ATOM     52  H   LIG A   1      -4.634   0.492 131.926  0.00  0.00    +0.292 HD
ENDBRANCH   5  51
BRANCH   9  53
ATOM     53  O   LIG A   1      -9.357   3.718 132.490  0.00  0.00    -0.488 OA
ATOM     54  C   LIG A   1      -8.905   4.689 133.439  0.00  0.00    +0.277 C 
ENDBRANCH   9  53
TORSDOF 13
ENDMDL
MODEL 6
REMARK VINA RESULT:      -8.7      1.628      4.876
REMARK  Name = NuBBE_1788
REMARK  15 active torsions:
REMARK  status: ('A' for Active; 'I' for Inactive)
REMARK    1  A    between atoms: O_1  and  C_2
REMARK    2  A    between atoms: C_3  and  C_24
REMARK    3  A    between atoms: C_6  and  O_8
REMARK    4  A    between atoms: C_11  and  O_22
REMARK    5  A    between atoms: C_12  and  C_14
REMARK    6  A    between atoms: C_16  and  O_17
REMARK    7  A    between atoms: C_18  and  O_21
REMARK    8  A    between atoms: O_22  and  C_23
REMARK    9  A    between atoms: C_25  and  C_32
REMARK   10  A    between atoms: C_28  and  O_31
REMARK   11  A    between atoms: C_29  and  O_30
REMARK   12  A    between atoms: C_33  and  O_34
REMARK   13  A    between atoms: O_34  and  C_35
REMARK   14  A    between atoms: C_42  and  O_46
REMARK   15  A    between atoms: C_44  and  O_45
REMARK                            x       y       z     vdW  Elec       q    Type
REMARK                         _______ _______ _______ _____ _____    ______ ____
ROOT
ATOM      1  C   LIG A   1      -5.785   2.648 131.989  0.00  0.00    +0.132 A 
ATOM      2  C   LIG A   1      -5.760   3.349 130.745  0.00  0.00    +0.071 A 
ATOM      3  C   LIG A   1      -6.236   2.549 129.619  0.00  0.00    +0.154 A 
ATOM      4  C   LIG A   1      -6.705   1.227 129.818  0.00  0.00    +0.110 A 
ATOM      5  C   LIG A   1      -6.747   0.644 131.083  0.00  0.00    +0.135 A 
ATOM      6  C   LIG A   1      -6.296   1.355 132.166  0.00  0.00    +0.092 A 
ATOM      7  C   LIG A   1      -7.166   0.398 128.700  0.00  0.00    +0.238 A 
ATOM      8  O   LIG A   1      -7.579  -0.728 128.937  0.00  0.00    -0.283 OA
ATOM      9  C   LIG A   1      -7.081   0.948 127.333  0.00  0.00    +0.211 A 
ATOM     10  C   LIG A   1      -6.614   2.214 127.219  0.00  0.00    +0.181 A 
ATOM     11  O   LIG A   1      -6.262   3.045 128.314  0.00  0.00    -0.450 OA
ENDROOT
BRANCH  10  12
ATOM     12  C   LIG A   1      -6.449   2.867 125.874  0.00  0.00    +0.025 A 
ATOM     13  C   LIG A   1      -7.491   2.888 124.929  0.00  0.00    +0.060 A 
ATOM     14  C   LIG A   1      -7.318   3.489 123.680  0.00  0.00    +0.159 A 
ATOM     15  C   LIG A   1      -6.102   4.055 123.330  0.00  0.00    +0.158 A 
ATOM     16  C   LIG A   1      -5.062   4.073 124.237  0.00  0.00    +0.050 A 
ATOM     17  C   LIG A   1      -5.239   3.484 125.495  0.00  0.00    +0.015 A 
BRANCH  14  18
ATOM     18  O   LIG A   1      -8.338   3.576 122.772  0.00  0.00    -0.503 OA
ATOM     19  H   LIG A   1      -9.143   3.807 123.269  0.00  0.00    +0.292 HD
ENDBRANCH  14  18
BRANCH  15  20
ATOM     20  O   LIG A   1      -5.931   4.623 122.103  0.00  0.00    -0.503 OA
ATOM     21  H   LIG A   1      -6.585   5.349 122.074  0.00  0.00    +0.292 HD
ENDBRANCH  15  20
ENDBRANCH  10  12
BRANCH   2  22
ATOM     22  C   LIG A   1      -5.215   4.814 130.681  0.00  0.00    +0.045 A 
ATOM     23  C   LIG A   1      -5.989   6.048 130.816  0.00  0.00    +0.033 A 
ATOM     24  C   LIG A   1      -5.305   7.311 130.739  0.00  0.00    +0.016 A 
ATOM     25  C   LIG A   1      -3.937   7.464 130.688  0.00  0.00    +0.050 A 
ATOM     26  C   LIG A   1      -3.204   6.324 130.554  0.00  0.00    +0.159 A 
ATOM     27  C   LIG A   1      -3.816   5.048 130.548  0.00  0.00    +0.167 A 
BRANCH  23  28
ATOM     28  C   LIG A   1      -7.486   6.222 131.059  0.00  0.00    +0.181 A 
ATOM     29  C   LIG A   1      -8.159   5.645 132.115  0.00  0.00    +0.211 A 
ATOM     30  C   LIG A   1      -9.622   5.792 132.154  0.00  0.00    +0.238 A 
ATOM     31  O   LIG A   1     -10.357   5.221 133.015  0.00  0.00    -0.283 OA
ATOM     32  C   LIG A   1     -10.262   6.618 131.152  0.00  0.00    +0.109 A 
ATOM     33  C   LIG A   1      -9.468   7.167 130.139  0.00  0.00    +0.146 A 
ATOM     34  O   LIG A   1      -8.111   6.983 130.083  0.00  0.00    -0.451 OA
ATOM     35  C   LIG A   1     -10.054   7.919 129.121  0.00  0.00    +0.092 A 
ATOM     36  C   LIG A   1     -11.425   8.167 129.160  0.00  0.00    +0.124 A 
ATOM     37  C   LIG A   1     -12.216   7.677 130.194  0.00  0.00    +0.091 A 
ATOM     38  C   LIG A   1     -11.637   6.877 131.179  0.00  0.00    +0.135 A 
BRANCH  29  39
ATOM     39  O   LIG A   1      -7.464   5.068 133.159  0.00  0.00    -0.488 OA
ATOM     40  C   LIG A   1      -7.210   5.723 134.389  0.00  0.00    +0.277 C 
ENDBRANCH  29  39
BRANCH  38  41
ATOM     41  O   LIG A   1     -12.481   6.372 132.125  0.00  0.00    -0.506 OA
ATOM     42  H   LIG A   1     -13.239   5.955 131.662  0.00  0.00    +0.292 HD
ENDBRANCH  38  41
BRANCH  36  43
ATOM     43  O   LIG A   1     -12.039   8.892 128.186  0.00  0.00    -0.506 OA
ATOM     44  H   LIG A   1     -12.157   8.315 127.412  0.00  0.00    +0.292 HD
ENDBRANCH  36  43
ENDBRANCH  23  28
BRANCH  27  45
ATOM     45  O   LIG A   1      -2.904   4.026 130.465  0.00  0.00    -0.503 OA
ATOM     46  H   LIG A   1      -2.953   3.771 129.519  0.00  0.00    +0.292 HD
ENDBRANCH  27  45
BRANCH  26  47
ATOM     47  O   LIG A   1      -1.841   6.394 130.405  0.00  0.00    -0.503 OA
ATOM     48  H   LIG A   1      -1.590   5.764 129.704  0.00  0.00    +0.292 HD
ENDBRANCH  26  47
ENDBRANCH   2  22
BRANCH   1  49
ATOM     49  O   LIG A   1      -5.258   3.188 133.137  0.00  0.00    -0.506 OA
ATOM     50  H   LIG A   1      -5.839   2.913 133.871  0.00  0.00    +0.292 HD
ENDBRANCH   1  49
BRANCH   5  51
ATOM     51  O   LIG A   1      -7.195  -0.622 131.352  0.00  0.00    -0.506 OA
ATOM     52  H   LIG A   1      -6.780  -1.241 130.704  0.00  0.00    +0.292 HD
ENDBRANCH   5  51
BRANCH   9  53
ATOM     53  O   LIG A   1      -7.380   0.135 126.239  0.00  0.00    -0.488 OA
ATOM     54  C   LIG A   1      -6.362  -0.743 125.749  0.00  0.00    +0.277 C 
ENDBRANCH   9  53
TORSDOF 13
ENDMDL
MODEL 7
REMARK VINA RESULT:      -8.5      1.598      5.305
REMARK  Name = NuBBE_1788
REMARK  15 active torsions:
REMARK  status: ('A' for Active; 'I' for Inactive)
REMARK    1  A    between atoms: O_1  and  C_2
REMARK    2  A    between atoms: C_3  and  C_24
REMARK    3  A    between atoms: C_6  and  O_8
REMARK    4  A    between atoms: C_11  and  O_22
REMARK    5  A    between atoms: C_12  and  C_14
REMARK    6  A    between atoms: C_16  and  O_17
REMARK    7  A    between atoms: C_18  and  O_21
REMARK    8  A    between atoms: O_22  and  C_23
REMARK    9  A    between atoms: C_25  and  C_32
REMARK   10  A    between atoms: C_28  and  O_31
REMARK   11  A    between atoms: C_29  and  O_30
REMARK   12  A    between atoms: C_33  and  O_34
REMARK   13  A    between atoms: O_34  and  C_35
REMARK   14  A    between atoms: C_42  and  O_46
REMARK   15  A    between atoms: C_44  and  O_45
REMARK                            x       y       z     vdW  Elec       q    Type
REMARK                         _______ _______ _______ _____ _____    ______ ____
ROOT
ATOM      1  C   LIG A   1      -6.526   5.867 131.878  0.00  0.00    +0.132 A 
ATOM      2  C   LIG A   1      -6.995   5.249 130.680  0.00  0.00    +0.071 A 
ATOM      3  C   LIG A   1      -5.926   4.924 129.738  0.00  0.00    +0.154 A 
ATOM      4  C   LIG A   1      -4.571   5.182 130.064  0.00  0.00    +0.110 A 
ATOM      5  C   LIG A   1      -4.202   5.736 131.287  0.00  0.00    +0.135 A 
ATOM      6  C   LIG A   1      -5.175   6.071 132.195  0.00  0.00    +0.092 A 
ATOM      7  C   LIG A   1      -3.484   4.885 129.126  0.00  0.00    +0.238 A 
ATOM      8  O   LIG A   1      -2.334   5.111 129.471  0.00  0.00    -0.283 OA
ATOM      9  C   LIG A   1      -3.831   4.356 127.791  0.00  0.00    +0.211 A 
ATOM     10  C   LIG A   1      -5.145   4.143 127.548  0.00  0.00    +0.181 A 
ATOM     11  O   LIG A   1      -6.183   4.341 128.495  0.00  0.00    -0.450 OA
ENDROOT
BRANCH  10  12
ATOM     12  C   LIG A   1      -5.621   3.641 126.211  0.00  0.00    +0.025 A 
ATOM     13  C   LIG A   1      -5.522   4.428 125.049  0.00  0.00    +0.060 A 
ATOM     14  C   LIG A   1      -5.977   3.951 123.817  0.00  0.00    +0.159 A 
ATOM     15  C   LIG A   1      -6.565   2.699 123.717  0.00  0.00    +0.158 A 
ATOM     16  C   LIG A   1      -6.661   1.890 124.830  0.00  0.00    +0.050 A 
ATOM     17  C   LIG A   1      -6.191   2.361 126.063  0.00  0.00    +0.015 A 
BRANCH  14  18
ATOM     18  O   LIG A   1      -5.834   4.674 122.665  0.00  0.00    -0.503 OA
ATOM     19  H   LIG A   1      -5.063   4.311 122.194  0.00  0.00    +0.292 HD
ENDBRANCH  14  18
BRANCH  15  20
ATOM     20  O   LIG A   1      -7.026   2.246 122.517  0.00  0.00    -0.503 OA
ATOM     21  H   LIG A   1      -6.271   1.762 122.129  0.00  0.00    +0.292 HD
ENDBRANCH  15  20
ENDBRANCH  10  12
BRANCH   2  22
ATOM     22  C   LIG A   1      -8.528   5.024 130.461  0.00  0.00    +0.045 A 
ATOM     23  C   LIG A   1      -9.246   3.751 130.508  0.00  0.00    +0.033 A 
ATOM     24  C   LIG A   1     -10.667   3.745 130.291  0.00  0.00    +0.016 A 
ATOM     25  C   LIG A   1     -11.452   4.872 130.179  0.00  0.00    +0.050 A 
ATOM     26  C   LIG A   1     -10.796   6.065 130.125  0.00  0.00    +0.159 A 
ATOM     27  C   LIG A   1      -9.389   6.141 130.259  0.00  0.00    +0.167 A 
BRANCH  23  28
ATOM     28  C   LIG A   1      -8.704   2.351 130.786  0.00  0.00    +0.181 A 
ATOM     29  C   LIG A   1      -8.479   1.858 132.053  0.00  0.00    +0.211 A 
ATOM     30  C   LIG A   1      -7.834   0.541 132.169  0.00  0.00    +0.238 A 
ATOM     31  O   LIG A   1      -7.485   0.031 133.276  0.00  0.00    -0.283 OA
ATOM     32  C   LIG A   1      -7.571  -0.210 130.959  0.00  0.00    +0.109 A 
ATOM     33  C   LIG A   1      -7.861   0.392 129.729  0.00  0.00    +0.146 A 
ATOM     34  O   LIG A   1      -8.415   1.640 129.630  0.00  0.00    -0.451 OA
ATOM     35  C   LIG A   1      -7.566  -0.274 128.539  0.00  0.00    +0.092 A 
ATOM     36  C   LIG A   1      -7.038  -1.563 128.592  0.00  0.00    +0.124 A 
ATOM     37  C   LIG A   1      -6.802  -2.195 129.808  0.00  0.00    +0.091 A 
ATOM     38  C   LIG A   1      -7.044  -1.505 130.996  0.00  0.00    +0.135 A 
BRANCH  29  39
ATOM     39  O   LIG A   1      -8.966   2.523 133.161  0.00  0.00    -0.488 OA
ATOM     40  C   LIG A   1      -8.167   3.339 133.999  0.00  0.00    +0.277 C 
ENDBRANCH  29  39
BRANCH  38  41
ATOM     41  O   LIG A   1      -6.725  -2.157 132.153  0.00  0.00    -0.506 OA
ATOM     42  H   LIG A   1      -6.857  -1.533 132.898  0.00  0.00    +0.292 HD
ENDBRANCH  38  41
BRANCH  36  43
ATOM     43  O   LIG A   1      -6.733  -2.247 127.457  0.00  0.00    -0.506 OA
ATOM     44  H   LIG A   1      -5.847  -2.633 127.569  0.00  0.00    +0.292 HD
ENDBRANCH  36  43
ENDBRANCH  23  28
BRANCH  27  45
ATOM     45  O   LIG A   1      -8.926   7.432 130.240  0.00  0.00    -0.503 OA
ATOM     46  H   LIG A   1      -8.462   7.481 129.377  0.00  0.00    +0.292 HD
ENDBRANCH  27  45
BRANCH  26  47
ATOM     47  O   LIG A   1     -11.496   7.229 129.924  0.00  0.00    -0.503 OA
ATOM     48  H   LIG A   1     -12.109   7.336 130.675  0.00  0.00    +0.292 HD
ENDBRANCH  26  47
ENDBRANCH   2  22
BRANCH   1  49
ATOM     49  O   LIG A   1      -7.388   6.360 132.827  0.00  0.00    -0.506 OA
ATOM     50  H   LIG A   1      -8.252   5.934 132.672  0.00  0.00    +0.292 HD
ENDBRANCH   1  49
BRANCH   5  51
ATOM     51  O   LIG A   1      -2.916   6.005 131.674  0.00  0.00    -0.506 OA
ATOM     52  H   LIG A   1      -2.811   6.984 131.736  0.00  0.00    +0.292 HD
ENDBRANCH   5  51
BRANCH   9  53
ATOM     53  O   LIG A   1      -2.833   4.195 126.830  0.00  0.00    -0.488 OA
ATOM     54  C   LIG A   1      -2.033   3.008 126.874  0.00  0.00    +0.277 C 
ENDBRANCH   9  53
TORSDOF 13
ENDMDL
MODEL 8
REMARK VINA RESULT:      -8.4      1.365      2.737
REMARK  Name = NuBBE_1788
REMARK  15 active torsions:
REMARK  status: ('A' for Active; 'I' for Inactive)
REMARK    1  A    between atoms: O_1  and  C_2
REMARK    2  A    between atoms: C_3  and  C_24
REMARK    3  A    between atoms: C_6  and  O_8
REMARK    4  A    between atoms: C_11  and  O_22
REMARK    5  A    between atoms: C_12  and  C_14
REMARK    6  A    between atoms: C_16  and  O_17
REMARK    7  A    between atoms: C_18  and  O_21
REMARK    8  A    between atoms: O_22  and  C_23
REMARK    9  A    between atoms: C_25  and  C_32
REMARK   10  A    between atoms: C_28  and  O_31
REMARK   11  A    between atoms: C_29  and  O_30
REMARK   12  A    between atoms: C_33  and  O_34
REMARK   13  A    between atoms: O_34  and  C_35
REMARK   14  A    between atoms: C_42  and  O_46
REMARK   15  A    between atoms: C_44  and  O_45
REMARK                            x       y       z     vdW  Elec       q    Type
REMARK                         _______ _______ _______ _____ _____    ______ ____
ROOT
ATOM      1  C   LIG A   1      -8.262   2.331 132.194  0.00  0.00    +0.132 A 
ATOM      2  C   LIG A   1      -8.535   2.856 130.895  0.00  0.00    +0.071 A 
ATOM      3  C   LIG A   1      -8.349   1.878 129.824  0.00  0.00    +0.154 A 
ATOM      4  C   LIG A   1      -7.977   0.543 130.120  0.00  0.00    +0.110 A 
ATOM      5  C   LIG A   1      -7.788   0.105 131.428  0.00  0.00    +0.135 A 
ATOM      6  C   LIG A   1      -7.938   0.993 132.463  0.00  0.00    +0.092 A 
ATOM      7  C   LIG A   1      -7.763  -0.448 129.061  0.00  0.00    +0.238 A 
ATOM      8  O   LIG A   1      -7.462  -1.589 129.378  0.00  0.00    -0.283 OA
ATOM      9  C   LIG A   1      -7.888  -0.014 127.654  0.00  0.00    +0.211 A 
ATOM     10  C   LIG A   1      -8.238   1.277 127.449  0.00  0.00    +0.181 A 
ATOM     11  O   LIG A   1      -8.538   2.205 128.479  0.00  0.00    -0.450 OA
ENDROOT
BRANCH  10  12
ATOM     12  C   LIG A   1      -8.360   1.841 126.059  0.00  0.00    +0.025 A 
ATOM     13  C   LIG A   1      -7.463   2.810 125.574  0.00  0.00    +0.060 A 
ATOM     14  C   LIG A   1      -7.596   3.331 124.284  0.00  0.00    +0.159 A 
ATOM     15  C   LIG A   1      -8.636   2.926 123.462  0.00  0.00    +0.158 A 
ATOM     16  C   LIG A   1      -9.524   1.963 123.895  0.00  0.00    +0.050 A 
ATOM     17  C   LIG A   1      -9.382   1.428 125.181  0.00  0.00    +0.015 A 
BRANCH  14  18
ATOM     18  O   LIG A   1      -6.698   4.226 123.771  0.00  0.00    -0.503 OA
ATOM     19  H   LIG A   1      -6.288   3.805 122.994  0.00  0.00    +0.292 HD
ENDBRANCH  14  18
BRANCH  15  20
ATOM     20  O   LIG A   1      -8.774   3.451 122.212  0.00  0.00    -0.503 OA
ATOM     21  H   LIG A   1      -8.737   2.680 121.614  0.00  0.00    +0.292 HD
ENDBRANCH  15  20
ENDBRANCH  10  12
BRANCH   2  22
ATOM     22  C   LIG A   1      -8.942   4.356 130.724  0.00  0.00    +0.045 A 
ATOM     23  C   LIG A   1      -8.088   5.528 130.915  0.00  0.00    +0.033 A 
ATOM     24  C   LIG A   1      -8.642   6.836 130.700  0.00  0.00    +0.016 A 
ATOM     25  C   LIG A   1      -9.895   7.086 130.183  0.00  0.00    +0.050 A 
ATOM     26  C   LIG A   1     -10.705   6.005 130.007  0.00  0.00    +0.159 A 
ATOM     27  C   LIG A   1     -10.250   4.691 130.268  0.00  0.00    +0.167 A 
BRANCH  23  28
ATOM     28  C   LIG A   1      -6.614   5.588 131.309  0.00  0.00    +0.181 A 
ATOM     29  C   LIG A   1      -5.579   5.378 130.424  0.00  0.00    +0.211 A 
ATOM     30  C   LIG A   1      -4.212   5.340 130.968  0.00  0.00    +0.238 A 
ATOM     31  O   LIG A   1      -3.193   5.053 130.271  0.00  0.00    -0.283 OA
ATOM     32  C   LIG A   1      -4.018   5.632 132.373  0.00  0.00    +0.109 A 
ATOM     33  C   LIG A   1      -5.149   5.849 133.168  0.00  0.00    +0.146 A 
ATOM     34  O   LIG A   1      -6.422   5.831 132.661  0.00  0.00    -0.451 OA
ATOM     35  C   LIG A   1      -5.008   6.073 134.537  0.00  0.00    +0.092 A 
ATOM     36  C   LIG A   1      -3.730   6.139 135.089  0.00  0.00    +0.124 A 
ATOM     37  C   LIG A   1      -2.596   5.985 134.299  0.00  0.00    +0.091 A 
ATOM     38  C   LIG A   1      -2.741   5.703 132.940  0.00  0.00    +0.135 A 
BRANCH  29  39
ATOM     39  O   LIG A   1      -5.816   5.338 129.065  0.00  0.00    -0.488 OA
ATOM     40  C   LIG A   1      -5.703   4.162 128.283  0.00  0.00    +0.277 C 
ENDBRANCH  29  39
BRANCH  38  41
ATOM     41  O   LIG A   1      -1.590   5.495 132.237  0.00  0.00    -0.506 OA
ATOM     42  H   LIG A   1      -1.287   6.361 131.891  0.00  0.00    +0.292 HD
ENDBRANCH  38  41
BRANCH  36  43
ATOM     43  O   LIG A   1      -3.546   6.352 136.420  0.00  0.00    -0.506 OA
ATOM     44  H   LIG A   1      -2.621   6.139 136.632  0.00  0.00    +0.292 HD
ENDBRANCH  36  43
ENDBRANCH  23  28
BRANCH  27  45
ATOM     45  O   LIG A   1     -11.192   3.738 129.972  0.00  0.00    -0.503 OA
ATOM     46  H   LIG A   1     -11.304   3.840 129.003  0.00  0.00    +0.292 HD
ENDBRANCH  27  45
BRANCH  26  47
ATOM     47  O   LIG A   1     -11.999   6.175 129.581  0.00  0.00    -0.503 OA
ATOM     48  H   LIG A   1     -12.137   5.581 128.819  0.00  0.00    +0.292 HD
ENDBRANCH  26  47
ENDBRANCH   2  22
BRANCH   1  49
ATOM     49  O   LIG A   1      -8.257   3.127 133.313  0.00  0.00    -0.506 OA
ATOM     50  H   LIG A   1      -7.326   3.222 133.589  0.00  0.00    +0.292 HD
ENDBRANCH   1  49
BRANCH   5  51
ATOM     51  O   LIG A   1      -7.437  -1.169 131.790  0.00  0.00    -0.506 OA
ATOM     52  H   LIG A   1      -6.502  -1.321 131.513  0.00  0.00    +0.292 HD
ENDBRANCH   5  51
BRANCH   9  53
ATOM     53  O   LIG A   1      -7.556  -0.896 126.626  0.00  0.00    -0.488 OA
ATOM     54  C   LIG A   1      -8.522  -1.879 126.236  0.00  0.00    +0.277 C 
ENDBRANCH   9  53
TORSDOF 13
ENDMDL
MODEL 9
REMARK VINA RESULT:      -8.4      2.445      7.802
REMARK  Name = NuBBE_1788
REMARK  15 active torsions:
REMARK  status: ('A' for Active; 'I' for Inactive)
REMARK    1  A    between atoms: O_1  and  C_2
REMARK    2  A    between atoms: C_3  and  C_24
REMARK    3  A    between atoms: C_6  and  O_8
REMARK    4  A    between atoms: C_11  and  O_22
REMARK    5  A    between atoms: C_12  and  C_14
REMARK    6  A    between atoms: C_16  and  O_17
REMARK    7  A    between atoms: C_18  and  O_21
REMARK    8  A    between atoms: O_22  and  C_23
REMARK    9  A    between atoms: C_25  and  C_32
REMARK   10  A    between atoms: C_28  and  O_31
REMARK   11  A    between atoms: C_29  and  O_30
REMARK   12  A    between atoms: C_33  and  O_34
REMARK   13  A    between atoms: O_34  and  C_35
REMARK   14  A    between atoms: C_42  and  O_46
REMARK   15  A    between atoms: C_44  and  O_45
REMARK                            x       y       z     vdW  Elec       q    Type
REMARK                         _______ _______ _______ _____ _____    ______ ____
ROOT
ATOM      1  C   LIG A   1      -4.400   0.259 129.981  0.00  0.00    +0.132 A 
ATOM      2  C   LIG A   1      -4.957   1.526 129.630  0.00  0.00    +0.071 A 
ATOM      3  C   LIG A   1      -6.033   1.954 130.523  0.00  0.00    +0.154 A 
ATOM      4  C   LIG A   1      -6.407   1.162 131.636  0.00  0.00    +0.110 A 
ATOM      5  C   LIG A   1      -5.764  -0.037 131.934  0.00  0.00    +0.135 A 
ATOM      6  C   LIG A   1      -4.758  -0.484 131.115  0.00  0.00    +0.092 A 
ATOM      7  C   LIG A   1      -7.498   1.559 132.531  0.00  0.00    +0.238 A 
ATOM      8  O   LIG A   1      -7.762   0.845 133.487  0.00  0.00    -0.283 OA
ATOM      9  C   LIG A   1      -8.252   2.790 132.219  0.00  0.00    +0.211 A 
ATOM     10  C   LIG A   1      -7.844   3.490 131.135  0.00  0.00    +0.181 A 
ATOM     11  O   LIG A   1      -6.726   3.151 130.330  0.00  0.00    -0.450 OA
ENDROOT
BRANCH  10  12
ATOM     12  C   LIG A   1      -8.559   4.740 130.698  0.00  0.00    +0.025 A 
ATOM     13  C   LIG A   1      -9.782   4.688 130.005  0.00  0.00    +0.060 A 
ATOM     14  C   LIG A   1     -10.429   5.858 129.598  0.00  0.00    +0.159 A 
ATOM     15  C   LIG A   1      -9.863   7.100 129.842  0.00  0.00    +0.158 A 
ATOM     16  C   LIG A   1      -8.674   7.193 130.536  0.00  0.00    +0.050 A 
ATOM     17  C   LIG A   1      -8.033   6.022 130.959  0.00  0.00    +0.015 A 
BRANCH  14  18
ATOM     18  O   LIG A   1     -11.649   5.831 128.980  0.00  0.00    -0.503 OA
ATOM     19  H   LIG A   1     -11.577   6.386 128.183  0.00  0.00    +0.292 HD
ENDBRANCH  14  18
BRANCH  15  20
ATOM     20  O   LIG A   1     -10.487   8.237 129.425  0.00  0.00    -0.503 OA
ATOM     21  H   LIG A   1     -11.440   8.029 129.476  0.00  0.00    +0.292 HD
ENDBRANCH  15  20
ENDBRANCH  10  12
BRANCH   2  22
ATOM     22  C   LIG A   1      -4.436   2.290 128.368  0.00  0.00    +0.045 A 
ATOM     23  C   LIG A   1      -4.813   2.050 126.976  0.00  0.00    +0.033 A 
ATOM     24  C   LIG A   1      -4.233   2.868 125.946  0.00  0.00    +0.016 A 
ATOM     25  C   LIG A   1      -3.441   3.973 126.170  0.00  0.00    +0.050 A 
ATOM     26  C   LIG A   1      -3.075   4.205 127.462  0.00  0.00    +0.159 A 
ATOM     27  C   LIG A   1      -3.551   3.396 128.521  0.00  0.00    +0.167 A 
BRANCH  23  28
ATOM     28  C   LIG A   1      -5.795   1.027 126.408  0.00  0.00    +0.181 A 
ATOM     29  C   LIG A   1      -7.165   1.172 126.464  0.00  0.00    +0.211 A 
ATOM     30  C   LIG A   1      -7.990   0.049 125.993  0.00  0.00    +0.238 A 
ATOM     31  O   LIG A   1      -9.254   0.025 126.089  0.00  0.00    -0.283 OA
ATOM     32  C   LIG A   1      -7.329  -1.094 125.400  0.00  0.00    +0.109 A 
ATOM     33  C   LIG A   1      -5.930  -1.117 125.383  0.00  0.00    +0.146 A 
ATOM     34  O   LIG A   1      -5.169  -0.088 125.871  0.00  0.00    -0.451 OA
ATOM     35  C   LIG A   1      -5.255  -2.227 124.875  0.00  0.00    +0.092 A 
ATOM     36  C   LIG A   1      -5.988  -3.280 124.332  0.00  0.00    +0.124 A 
ATOM     37  C   LIG A   1      -7.377  -3.243 124.287  0.00  0.00    +0.091 A 
ATOM     38  C   LIG A   1      -8.051  -2.158 124.848  0.00  0.00    +0.135 A 
BRANCH  29  39
ATOM     39  O   LIG A   1      -7.728   2.380 126.826  0.00  0.00    -0.488 OA
ATOM     40  C   LIG A   1      -8.068   3.395 125.899  0.00  0.00    +0.277 C 
ENDBRANCH  29  39
BRANCH  38  41
ATOM     41  O   LIG A   1      -9.415  -2.216 124.834  0.00  0.00    -0.506 OA
ATOM     42  H   LIG A   1      -9.747  -1.724 125.614  0.00  0.00    +0.292 HD
ENDBRANCH  38  41
BRANCH  36  43
ATOM     43  O   LIG A   1      -5.371  -4.383 123.829  0.00  0.00    -0.506 OA
ATOM     44  H   LIG A   1      -4.621  -4.598 124.411  0.00  0.00    +0.292 HD
ENDBRANCH  36  43
ENDBRANCH  23  28
BRANCH  27  45
ATOM     45  O   LIG A   1      -3.118   3.827 129.750  0.00  0.00    -0.503 OA
ATOM     46  H   LIG A   1      -3.622   3.255 130.368  0.00  0.00    +0.292 HD
ENDBRANCH  27  45
BRANCH  26  47
ATOM     47  O   LIG A   1      -2.215   5.232 127.762  0.00  0.00    -0.503 OA
ATOM     48  H   LIG A   1      -2.423   5.534 128.666  0.00  0.00    +0.292 HD
ENDBRANCH  26  47
ENDBRANCH   2  22
BRANCH   1  49
ATOM     49  O   LIG A   1      -3.468  -0.368 129.191  0.00  0.00    -0.506 OA
ATOM     50  H   LIG A   1      -3.109  -1.110 129.713  0.00  0.00    +0.292 HD
ENDBRANCH   1  49
BRANCH   5  51
ATOM     51  O   LIG A   1      -6.064  -0.849 132.996  0.00  0.00    -0.506 OA
ATOM     52  H   LIG A   1      -6.773  -0.412 133.528  0.00  0.00    +0.292 HD
ENDBRANCH   5  51
BRANCH   9  53
ATOM     53  O   LIG A   1      -9.381   3.119 132.969  0.00  0.00    -0.488 OA
ATOM     54  C   LIG A   1      -9.212   3.967 134.110  0.00  0.00    +0.277 C 
ENDBRANCH   9  53
TORSDOF 13
ENDMDL
