MODEL 1
REMARK VINA RESULT:      -8.6      0.000      0.000
REMARK  Name = NuBBE_54
REMARK  14 active torsions:
REMARK  status: ('A' for Active; 'I' for Inactive)
REMARK    1  A    between atoms: O_1  and  C_2
REMARK    2  A    between atoms: C_3  and  O_50
REMARK    3  A    between atoms: C_4  and  O_5
REMARK    4  A    between atoms: C_10  and  O_11
REMARK    5  A    between atoms: C_12  and  O_13
REMARK    6  A    between atoms: C_14  and  O_15
REMARK    7  A    between atoms: C_25  and  O_47
REMARK    8  A    between atoms: C_27  and  O_35
REMARK    9  A    between atoms: C_32  and  O_34
REMARK   10  A    between atoms: O_35  and  C_36
REMARK   11  A    between atoms: C_36  and  C_37
REMARK   12  A    between atoms: C_39  and  O_40
REMARK   13  A    between atoms: C_41  and  O_45
REMARK   14  A    between atoms: C_42  and  O_43
REMARK                            x       y       z     vdW  Elec       q    Type
REMARK                         _______ _______ _______ _____ _____    ______ ____
ROOT
ATOM      1  C   LIG A   1      -6.541   4.051 123.503  0.00  0.00    +0.163 A 
ATOM      2  C   LIG A   1      -7.600   3.242 123.890  0.00  0.00    +0.201 A 
ATOM      3  C   LIG A   1      -7.865   3.014 125.240  0.00  0.00    +0.171 A 
ATOM      4  C   LIG A   1      -7.085   3.596 126.247  0.00  0.00    +0.046 A 
ATOM      5  C   LIG A   1      -7.431   3.339 127.667  0.00  0.00    +0.046 A 
ATOM      6  C   LIG A   1      -6.916   2.256 128.430  0.00  0.00    +0.074 A 
ATOM      7  C   LIG A   1      -7.397   1.994 129.734  0.00  0.00    +0.065 A 
ATOM      8  C   LIG A   1      -8.329   2.844 130.308  0.00  0.00    +0.163 A 
ATOM      9  C   LIG A   1      -8.797   3.940 129.600  0.00  0.00    +0.201 A 
ATOM     10  C   LIG A   1      -8.367   4.179 128.297  0.00  0.00    +0.171 A 
ATOM     11  C   LIG A   1      -5.764   1.442 127.921  0.00  0.00    +0.340 C 
ATOM     12  O   LIG A   1      -5.025   0.866 128.908  0.00  0.00    -0.458 OA
ATOM     13  C   LIG A   1      -4.137   1.694 129.714  0.00  0.00    +0.267 C 
ATOM     14  O   LIG A   1      -5.418   1.379 126.753  0.00  0.00    -0.245 OA
ATOM     15  C   LIG A   1      -5.994   4.407 125.830  0.00  0.00    +0.074 A 
ATOM     16  C   LIG A   1      -5.069   4.983 126.821  0.00  0.00    +0.340 C 
ATOM     17  O   LIG A   1      -3.824   4.580 126.465  0.00  0.00    -0.452 OA
ATOM     18  C   LIG A   1      -2.703   4.474 127.404  0.00  0.00    +0.242 C 
ATOM     19  C   LIG A   1      -2.514   5.578 128.457  0.00  0.00    +0.226 C 
ATOM     20  C   LIG A   1      -3.268   5.324 129.806  0.00  0.00    +0.344 C 
ATOM     21  O   LIG A   1      -3.388   3.952 130.217  0.00  0.00    -0.330 OA
ATOM     22  C   LIG A   1      -3.801   3.085 129.156  0.00  0.00    +0.192 C 
ATOM     23  C   LIG A   1      -2.705   3.094 128.084  0.00  0.00    +0.190 C 
ATOM     24  O   LIG A   1      -5.401   5.531 127.843  0.00  0.00    -0.245 OA
ATOM     25  C   LIG A   1      -5.727   4.635 124.460  0.00  0.00    +0.065 A 
ENDROOT
BRANCH   1  26
ATOM     26  O   LIG A   1      -6.336   4.234 122.164  0.00  0.00    -0.503 OA
ATOM     27  H   LIG A   1      -7.202   4.294 121.722  0.00  0.00    +0.292 HD
ENDBRANCH   1  26
BRANCH   3  28
ATOM     28  O   LIG A   1      -8.913   2.187 125.562  0.00  0.00    -0.503 OA
ATOM     29  H   LIG A   1      -8.777   1.973 126.507  0.00  0.00    +0.292 HD
ENDBRANCH   3  28
BRANCH   8  30
ATOM     30  O   LIG A   1      -8.798   2.659 131.578  0.00  0.00    -0.503 OA
ATOM     31  H   LIG A   1      -9.678   2.247 131.532  0.00  0.00    +0.292 HD
ENDBRANCH   8  30
BRANCH   9  32
ATOM     32  O   LIG A   1      -9.692   4.804 130.173  0.00  0.00    -0.501 OA
ATOM     33  H   LIG A   1     -10.103   4.285 130.894  0.00  0.00    +0.292 HD
ENDBRANCH   9  32
BRANCH  10  34
ATOM     34  O   LIG A   1      -8.874   5.273 127.640  0.00  0.00    -0.503 OA
ATOM     35  H   LIG A   1      -9.076   4.951 126.739  0.00  0.00    +0.292 HD
ENDBRANCH  10  34
BRANCH  23  36
ATOM     36  O   LIG A   1      -2.781   2.055 127.120  0.00  0.00    -0.385 OA
ATOM     37  H   LIG A   1      -2.133   2.209 126.401  0.00  0.00    +0.210 HD
ENDBRANCH  23  36
BRANCH  19  38
ATOM     38  O   LIG A   1      -2.759   6.889 127.931  0.00  0.00    -0.382 OA
ATOM     39  H   LIG A   1      -2.273   7.522 128.488  0.00  0.00    +0.210 HD
ENDBRANCH  19  38
BRANCH   2  40
ATOM     40  O   LIG A   1      -8.400   2.649 122.950  0.00  0.00    -0.501 OA
ATOM     41  H   LIG A   1      -8.661   1.798 123.358  0.00  0.00    +0.292 HD
ENDBRANCH   2  40
BRANCH  20  42
ATOM     42  O   LIG A   1      -2.659   6.080 130.872  0.00  0.00    -0.429 OA
BRANCH  42  43
ATOM     43  C   LIG A   1      -3.352   7.164 131.302  0.00  0.00    +0.342 C 
ATOM     44  O   LIG A   1      -2.975   8.316 131.303  0.00  0.00    -0.245 OA
BRANCH  43  45
ATOM     45  C   LIG A   1      -4.710   6.743 131.724  0.00  0.00    +0.066 A 
ATOM     46  C   LIG A   1      -4.920   5.909 132.836  0.00  0.00    +0.064 A 
ATOM     47  C   LIG A   1      -6.215   5.528 133.160  0.00  0.00    +0.163 A 
ATOM     48  C   LIG A   1      -7.286   5.971 132.391  0.00  0.00    +0.201 A 
ATOM     49  C   LIG A   1      -7.075   6.799 131.298  0.00  0.00    +0.163 A 
ATOM     50  C   LIG A   1      -5.791   7.192 130.954  0.00  0.00    +0.064 A 
BRANCH  47  51
ATOM     51  O   LIG A   1      -6.482   4.713 134.223  0.00  0.00    -0.503 OA
ATOM     52  H   LIG A   1      -6.701   3.826 133.885  0.00  0.00    +0.292 HD
ENDBRANCH  47  51
BRANCH  49  53
ATOM     53  O   LIG A   1      -8.127   7.228 130.545  0.00  0.00    -0.503 OA
ATOM     54  H   LIG A   1      -7.974   8.187 130.428  0.00  0.00    +0.292 HD
ENDBRANCH  49  53
BRANCH  48  55
ATOM     55  O   LIG A   1      -8.563   5.589 132.698  0.00  0.00    -0.501 OA
ATOM     56  H   LIG A   1      -8.656   4.709 132.280  0.00  0.00    +0.292 HD
ENDBRANCH  48  55
ENDBRANCH  43  45
ENDBRANCH  42  43
ENDBRANCH  20  42
TORSDOF 14
ENDMDL
MODEL 2
REMARK VINA RESULT:      -8.2      3.064      7.786
REMARK  Name = NuBBE_54
REMARK  14 active torsions:
REMARK  status: ('A' for Active; 'I' for Inactive)
REMARK    1  A    between atoms: O_1  and  C_2
REMARK    2  A    between atoms: C_3  and  O_50
REMARK    3  A    between atoms: C_4  and  O_5
REMARK    4  A    between atoms: C_10  and  O_11
REMARK    5  A    between atoms: C_12  and  O_13
REMARK    6  A    between atoms: C_14  and  O_15
REMARK    7  A    between atoms: C_25  and  O_47
REMARK    8  A    between atoms: C_27  and  O_35
REMARK    9  A    between atoms: C_32  and  O_34
REMARK   10  A    between atoms: O_35  and  C_36
REMARK   11  A    between atoms: C_36  and  C_37
REMARK   12  A    between atoms: C_39  and  O_40
REMARK   13  A    between atoms: C_41  and  O_45
REMARK   14  A    between atoms: C_42  and  O_43
REMARK                            x       y       z     vdW  Elec       q    Type
REMARK                         _______ _______ _______ _____ _____    ______ ____
ROOT
ATOM      1  C   LIG A   1      -2.676   6.883 135.483  0.00  0.00    +0.163 A 
ATOM      2  C   LIG A   1      -1.662   6.634 134.569  0.00  0.00    +0.201 A 
ATOM      3  C   LIG A   1      -1.954   6.143 133.297  0.00  0.00    +0.171 A 
ATOM      4  C   LIG A   1      -3.272   5.894 132.894  0.00  0.00    +0.046 A 
ATOM      5  C   LIG A   1      -3.525   5.397 131.519  0.00  0.00    +0.046 A 
ATOM      6  C   LIG A   1      -3.565   4.021 131.163  0.00  0.00    +0.074 A 
ATOM      7  C   LIG A   1      -3.673   3.627 129.809  0.00  0.00    +0.065 A 
ATOM      8  C   LIG A   1      -3.815   4.587 128.820  0.00  0.00    +0.163 A 
ATOM      9  C   LIG A   1      -3.838   5.931 129.156  0.00  0.00    +0.201 A 
ATOM     10  C   LIG A   1      -3.683   6.334 130.481  0.00  0.00    +0.171 A 
ATOM     11  C   LIG A   1      -3.621   2.960 132.219  0.00  0.00    +0.340 C 
ATOM     12  O   LIG A   1      -4.214   1.807 131.804  0.00  0.00    -0.458 OA
ATOM     13  C   LIG A   1      -5.660   1.767 131.630  0.00  0.00    +0.267 C 
ATOM     14  O   LIG A   1      -3.291   3.117 133.383  0.00  0.00    -0.245 OA
ATOM     15  C   LIG A   1      -4.296   6.138 133.850  0.00  0.00    +0.074 A 
ATOM     16  C   LIG A   1      -5.700   5.817 133.542  0.00  0.00    +0.340 C 
ATOM     17  O   LIG A   1      -6.131   4.989 134.526  0.00  0.00    -0.452 OA
ATOM     18  C   LIG A   1      -7.236   4.039 134.364  0.00  0.00    +0.242 C 
ATOM     19  C   LIG A   1      -8.491   4.489 133.599  0.00  0.00    +0.226 C 
ATOM     20  C   LIG A   1      -8.441   4.220 132.057  0.00  0.00    +0.344 C 
ATOM     21  O   LIG A   1      -7.729   3.044 131.640  0.00  0.00    -0.330 OA
ATOM     22  C   LIG A   1      -6.462   2.899 132.288  0.00  0.00    +0.192 C 
ATOM     23  C   LIG A   1      -6.718   2.710 133.789  0.00  0.00    +0.190 C 
ATOM     24  O   LIG A   1      -6.263   6.090 132.511  0.00  0.00    -0.245 OA
ATOM     25  C   LIG A   1      -3.996   6.635 135.140  0.00  0.00    +0.065 A 
ENDROOT
BRANCH   1  26
ATOM     26  O   LIG A   1      -2.322   7.364 136.711  0.00  0.00    -0.503 OA
ATOM     27  H   LIG A   1      -1.736   6.716 137.142  0.00  0.00    +0.292 HD
ENDBRANCH   1  26
BRANCH   3  28
ATOM     28  O   LIG A   1      -0.907   5.896 132.443  0.00  0.00    -0.503 OA
ATOM     29  H   LIG A   1      -0.108   6.100 132.969  0.00  0.00    +0.292 HD
ENDBRANCH   3  28
BRANCH   8  30
ATOM     30  O   LIG A   1      -3.961   4.258 127.502  0.00  0.00    -0.503 OA
ATOM     31  H   LIG A   1      -4.462   3.426 127.438  0.00  0.00    +0.292 HD
ENDBRANCH   8  30
BRANCH   9  32
ATOM     32  O   LIG A   1      -4.012   6.885 128.189  0.00  0.00    -0.501 OA
ATOM     33  H   LIG A   1      -4.959   7.128 128.254  0.00  0.00    +0.292 HD
ENDBRANCH   9  32
BRANCH  10  34
ATOM     34  O   LIG A   1      -3.702   7.679 130.753  0.00  0.00    -0.503 OA
ATOM     35  H   LIG A   1      -3.190   8.088 130.027  0.00  0.00    +0.292 HD
ENDBRANCH  10  34
BRANCH  23  36
ATOM     36  O   LIG A   1      -5.616   2.227 134.543  0.00  0.00    -0.385 OA
ATOM     37  H   LIG A   1      -4.780   2.616 134.211  0.00  0.00    +0.210 HD
ENDBRANCH  23  36
BRANCH  19  38
ATOM     38  O   LIG A   1      -8.873   5.835 133.909  0.00  0.00    -0.382 OA
ATOM     39  H   LIG A   1      -9.410   6.164 133.168  0.00  0.00    +0.210 HD
ENDBRANCH  19  38
BRANCH   2  40
ATOM     40  O   LIG A   1      -0.354   6.863 134.905  0.00  0.00    -0.501 OA
ATOM     41  H   LIG A   1       0.150   6.235 134.347  0.00  0.00    +0.292 HD
ENDBRANCH   2  40
BRANCH  20  42
ATOM     42  O   LIG A   1      -9.776   4.177 131.511  0.00  0.00    -0.429 OA
BRANCH  42  43
ATOM     43  C   LIG A   1      -9.887   4.474 130.192  0.00  0.00    +0.342 C 
ATOM     44  O   LIG A   1      -9.508   3.800 129.259  0.00  0.00    -0.245 OA
BRANCH  43  45
ATOM     45  C   LIG A   1     -10.624   5.752 130.037  0.00  0.00    +0.066 A 
ATOM     46  C   LIG A   1     -10.274   6.700 129.059  0.00  0.00    +0.064 A 
ATOM     47  C   LIG A   1     -10.986   7.890 128.987  0.00  0.00    +0.163 A 
ATOM     48  C   LIG A   1     -12.031   8.133 129.872  0.00  0.00    +0.201 A 
ATOM     49  C   LIG A   1     -12.376   7.192 130.832  0.00  0.00    +0.163 A 
ATOM     50  C   LIG A   1     -11.680   5.997 130.924  0.00  0.00    +0.064 A 
BRANCH  47  51
ATOM     51  O   LIG A   1     -10.689   8.853 128.064  0.00  0.00    -0.503 OA
ATOM     52  H   LIG A   1     -10.404   8.415 127.242  0.00  0.00    +0.292 HD
ENDBRANCH  47  51
BRANCH  49  53
ATOM     53  O   LIG A   1     -13.398   7.437 131.700  0.00  0.00    -0.503 OA
ATOM     54  H   LIG A   1     -13.384   8.405 131.834  0.00  0.00    +0.292 HD
ENDBRANCH  49  53
BRANCH  48  55
ATOM     55  O   LIG A   1     -12.727   9.309 129.813  0.00  0.00    -0.501 OA
ATOM     56  H   LIG A   1     -12.419   9.809 130.597  0.00  0.00    +0.292 HD
ENDBRANCH  48  55
ENDBRANCH  43  45
ENDBRANCH  42  43
ENDBRANCH  20  42
TORSDOF 14
ENDMDL
MODEL 3
REMARK VINA RESULT:      -8.1      1.896      5.513
REMARK  Name = NuBBE_54
REMARK  14 active torsions:
REMARK  status: ('A' for Active; 'I' for Inactive)
REMARK    1  A    between atoms: O_1  and  C_2
REMARK    2  A    between atoms: C_3  and  O_50
REMARK    3  A    between atoms: C_4  and  O_5
REMARK    4  A    between atoms: C_10  and  O_11
REMARK    5  A    between atoms: C_12  and  O_13
REMARK    6  A    between atoms: C_14  and  O_15
REMARK    7  A    between atoms: C_25  and  O_47
REMARK    8  A    between atoms: C_27  and  O_35
REMARK    9  A    between atoms: C_32  and  O_34
REMARK   10  A    between atoms: O_35  and  C_36
REMARK   11  A    between atoms: C_36  and  C_37
REMARK   12  A    between atoms: C_39  and  O_40
REMARK   13  A    between atoms: C_41  and  O_45
REMARK   14  A    between atoms: C_42  and  O_43
REMARK                            x       y       z     vdW  Elec       q    Type
REMARK                         _______ _______ _______ _____ _____    ______ ____
ROOT
ATOM      1  C   LIG A   1     -11.276   6.309 129.943  0.00  0.00    +0.163 A 
ATOM      2  C   LIG A   1     -11.207   5.918 131.272  0.00  0.00    +0.201 A 
ATOM      3  C   LIG A   1     -10.064   5.295 131.772  0.00  0.00    +0.171 A 
ATOM      4  C   LIG A   1      -8.949   5.051 130.960  0.00  0.00    +0.046 A 
ATOM      5  C   LIG A   1      -7.750   4.409 131.553  0.00  0.00    +0.046 A 
ATOM      6  C   LIG A   1      -7.539   3.003 131.600  0.00  0.00    +0.074 A 
ATOM      7  C   LIG A   1      -6.440   2.459 132.303  0.00  0.00    +0.065 A 
ATOM      8  C   LIG A   1      -5.513   3.303 132.895  0.00  0.00    +0.163 A 
ATOM      9  C   LIG A   1      -5.672   4.677 132.808  0.00  0.00    +0.201 A 
ATOM     10  C   LIG A   1      -6.777   5.224 132.160  0.00  0.00    +0.171 A 
ATOM     11  C   LIG A   1      -8.402   2.074 130.802  0.00  0.00    +0.340 C 
ATOM     12  O   LIG A   1      -7.788   0.904 130.474  0.00  0.00    -0.458 OA
ATOM     13  C   LIG A   1      -6.759   0.900 129.443  0.00  0.00    +0.267 C 
ATOM     14  O   LIG A   1      -9.507   2.352 130.364  0.00  0.00    -0.245 OA
ATOM     15  C   LIG A   1      -9.046   5.442 129.596  0.00  0.00    +0.074 A 
ATOM     16  C   LIG A   1      -7.957   5.142 128.652  0.00  0.00    +0.340 C 
ATOM     17  O   LIG A   1      -8.516   4.450 127.627  0.00  0.00    -0.452 OA
ATOM     18  C   LIG A   1      -7.769   3.531 126.763  0.00  0.00    +0.242 C 
ATOM     19  C   LIG A   1      -6.363   3.937 126.293  0.00  0.00    +0.226 C 
ATOM     20  C   LIG A   1      -5.205   3.490 127.249  0.00  0.00    +0.344 C 
ATOM     21  O   LIG A   1      -5.399   2.247 127.944  0.00  0.00    -0.330 OA
ATOM     22  C   LIG A   1      -6.701   2.130 128.525  0.00  0.00    +0.192 C 
ATOM     23  C   LIG A   1      -7.729   2.125 127.387  0.00  0.00    +0.190 C 
ATOM     24  O   LIG A   1      -6.784   5.315 128.869  0.00  0.00    -0.245 OA
ATOM     25  C   LIG A   1     -10.208   6.073 129.092  0.00  0.00    +0.065 A 
ENDROOT
BRANCH   1  26
ATOM     26  O   LIG A   1     -12.425   6.915 129.517  0.00  0.00    -0.503 OA
ATOM     27  H   LIG A   1     -12.964   6.259 129.040  0.00  0.00    +0.292 HD
ENDBRANCH   1  26
BRANCH   3  28
ATOM     28  O   LIG A   1     -10.061   4.911 133.091  0.00  0.00    -0.503 OA
ATOM     29  H   LIG A   1     -10.144   5.748 133.591  0.00  0.00    +0.292 HD
ENDBRANCH   3  28
BRANCH   8  30
ATOM     30  O   LIG A   1      -4.414   2.829 133.554  0.00  0.00    -0.503 OA
ATOM     31  H   LIG A   1      -3.825   3.576 133.761  0.00  0.00    +0.292 HD
ENDBRANCH   8  30
BRANCH   9  32
ATOM     32  O   LIG A   1      -4.743   5.519 133.360  0.00  0.00    -0.501 OA
ATOM     33  H   LIG A   1      -4.020   5.549 132.701  0.00  0.00    +0.292 HD
ENDBRANCH   9  32
BRANCH  10  34
ATOM     34  O   LIG A   1      -6.888   6.591 132.115  0.00  0.00    -0.503 OA
ATOM     35  H   LIG A   1      -7.405   6.826 132.911  0.00  0.00    +0.292 HD
ENDBRANCH  10  34
BRANCH  23  36
ATOM     36  O   LIG A   1      -9.034   1.691 127.740  0.00  0.00    -0.385 OA
ATOM     37  H   LIG A   1      -9.130   0.730 127.571  0.00  0.00    +0.210 HD
ENDBRANCH  23  36
BRANCH  19  38
ATOM     38  O   LIG A   1      -6.278   5.323 125.941  0.00  0.00    -0.382 OA
ATOM     39  H   LIG A   1      -5.447   5.450 125.451  0.00  0.00    +0.210 HD
ENDBRANCH  19  38
BRANCH   2  40
ATOM     40  O   LIG A   1     -12.264   6.134 132.115  0.00  0.00    -0.501 OA
ATOM     41  H   LIG A   1     -11.859   6.158 133.007  0.00  0.00    +0.292 HD
ENDBRANCH   2  40
BRANCH  20  42
ATOM     42  O   LIG A   1      -3.955   3.435 126.532  0.00  0.00    -0.429 OA
BRANCH  42  43
ATOM     43  C   LIG A   1      -2.832   3.531 127.288  0.00  0.00    +0.342 C 
ATOM     44  O   LIG A   1      -1.802   2.910 127.145  0.00  0.00    -0.245 OA
BRANCH  43  45
ATOM     45  C   LIG A   1      -3.020   4.587 128.314  0.00  0.00    +0.066 A 
ATOM     46  C   LIG A   1      -3.466   5.878 127.982  0.00  0.00    +0.064 A 
ATOM     47  C   LIG A   1      -3.591   6.828 128.986  0.00  0.00    +0.163 A 
ATOM     48  C   LIG A   1      -3.280   6.499 130.301  0.00  0.00    +0.201 A 
ATOM     49  C   LIG A   1      -2.846   5.221 130.625  0.00  0.00    +0.163 A 
ATOM     50  C   LIG A   1      -2.712   4.256 129.640  0.00  0.00    +0.064 A 
BRANCH  47  51
ATOM     51  O   LIG A   1      -4.012   8.101 128.726  0.00  0.00    -0.503 OA
ATOM     52  H   LIG A   1      -3.487   8.717 129.269  0.00  0.00    +0.292 HD
ENDBRANCH  47  51
BRANCH  49  53
ATOM     53  O   LIG A   1      -2.539   4.904 131.915  0.00  0.00    -0.503 OA
ATOM     54  H   LIG A   1      -2.577   5.755 132.396  0.00  0.00    +0.292 HD
ENDBRANCH  49  53
BRANCH  48  55
ATOM     55  O   LIG A   1      -3.391   7.435 131.293  0.00  0.00    -0.501 OA
ATOM     56  H   LIG A   1      -4.184   7.158 131.796  0.00  0.00    +0.292 HD
ENDBRANCH  48  55
ENDBRANCH  43  45
ENDBRANCH  42  43
ENDBRANCH  20  42
TORSDOF 14
ENDMDL
MODEL 4
REMARK VINA RESULT:      -8.0      2.193      8.125
REMARK  Name = NuBBE_54
REMARK  14 active torsions:
REMARK  status: ('A' for Active; 'I' for Inactive)
REMARK    1  A    between atoms: O_1  and  C_2
REMARK    2  A    between atoms: C_3  and  O_50
REMARK    3  A    between atoms: C_4  and  O_5
REMARK    4  A    between atoms: C_10  and  O_11
REMARK    5  A    between atoms: C_12  and  O_13
REMARK    6  A    between atoms: C_14  and  O_15
REMARK    7  A    between atoms: C_25  and  O_47
REMARK    8  A    between atoms: C_27  and  O_35
REMARK    9  A    between atoms: C_32  and  O_34
REMARK   10  A    between atoms: O_35  and  C_36
REMARK   11  A    between atoms: C_36  and  C_37
REMARK   12  A    between atoms: C_39  and  O_40
REMARK   13  A    between atoms: C_41  and  O_45
REMARK   14  A    between atoms: C_42  and  O_43
REMARK                            x       y       z     vdW  Elec       q    Type
REMARK                         _______ _______ _______ _____ _____    ______ ____
ROOT
ATOM      1  C   LIG A   1      -7.304   2.597 132.508  0.00  0.00    +0.163 A 
ATOM      2  C   LIG A   1      -6.136   3.181 132.979  0.00  0.00    +0.201 A 
ATOM      3  C   LIG A   1      -5.289   3.874 132.116  0.00  0.00    +0.171 A 
ATOM      4  C   LIG A   1      -5.586   4.014 130.754  0.00  0.00    +0.046 A 
ATOM      5  C   LIG A   1      -4.660   4.786 129.889  0.00  0.00    +0.046 A 
ATOM      6  C   LIG A   1      -3.559   4.217 129.193  0.00  0.00    +0.074 A 
ATOM      7  C   LIG A   1      -2.639   5.037 128.499  0.00  0.00    +0.065 A 
ATOM      8  C   LIG A   1      -2.849   6.405 128.431  0.00  0.00    +0.163 A 
ATOM      9  C   LIG A   1      -3.952   6.968 129.053  0.00  0.00    +0.201 A 
ATOM     10  C   LIG A   1      -4.837   6.177 129.781  0.00  0.00    +0.171 A 
ATOM     11  C   LIG A   1      -3.415   2.730 129.073  0.00  0.00    +0.340 C 
ATOM     12  O   LIG A   1      -2.718   2.335 127.973  0.00  0.00    -0.458 OA
ATOM     13  C   LIG A   1      -3.344   2.422 126.660  0.00  0.00    +0.267 C 
ATOM     14  O   LIG A   1      -3.960   1.917 129.802  0.00  0.00    -0.245 OA
ATOM     15  C   LIG A   1      -6.777   3.393 130.287  0.00  0.00    +0.074 A 
ATOM     16  C   LIG A   1      -7.119   3.413 128.855  0.00  0.00    +0.340 C 
ATOM     17  O   LIG A   1      -7.290   2.120 128.482  0.00  0.00    -0.452 OA
ATOM     18  C   LIG A   1      -7.127   1.642 127.106  0.00  0.00    +0.242 C 
ATOM     19  C   LIG A   1      -7.679   2.499 125.955  0.00  0.00    +0.226 C 
ATOM     20  C   LIG A   1      -6.666   3.548 125.384  0.00  0.00    +0.344 C 
ATOM     21  O   LIG A   1      -5.281   3.164 125.393  0.00  0.00    -0.330 OA
ATOM     22  C   LIG A   1      -4.870   2.587 126.636  0.00  0.00    +0.192 C 
ATOM     23  C   LIG A   1      -5.656   1.285 126.835  0.00  0.00    +0.190 C 
ATOM     24  O   LIG A   1      -7.056   4.383 128.140  0.00  0.00    -0.245 OA
ATOM     25  C   LIG A   1      -7.634   2.690 131.165  0.00  0.00    +0.065 A 
ENDROOT
BRANCH   1  26
ATOM     26  O   LIG A   1      -8.090   1.933 133.406  0.00  0.00    -0.503 OA
ATOM     27  H   LIG A   1      -8.375   1.091 133.008  0.00  0.00    +0.292 HD
ENDBRANCH   1  26
BRANCH   3  28
ATOM     28  O   LIG A   1      -4.137   4.413 132.635  0.00  0.00    -0.503 OA
ATOM     29  H   LIG A   1      -3.491   4.367 131.901  0.00  0.00    +0.292 HD
ENDBRANCH   3  28
BRANCH   8  30
ATOM     30  O   LIG A   1      -2.013   7.237 127.742  0.00  0.00    -0.503 OA
ATOM     31  H   LIG A   1      -1.683   6.771 126.954  0.00  0.00    +0.292 HD
ENDBRANCH   8  30
BRANCH   9  32
ATOM     32  O   LIG A   1      -4.186   8.315 128.962  0.00  0.00    -0.501 OA
ATOM     33  H   LIG A   1      -4.918   8.392 128.316  0.00  0.00    +0.292 HD
ENDBRANCH   9  32
BRANCH  10  34
ATOM     34  O   LIG A   1      -5.905   6.792 130.386  0.00  0.00    -0.503 OA
ATOM     35  H   LIG A   1      -6.682   6.259 130.122  0.00  0.00    +0.292 HD
ENDBRANCH  10  34
BRANCH  23  36
ATOM     36  O   LIG A   1      -5.154   0.413 127.837  0.00  0.00    -0.385 OA
ATOM     37  H   LIG A   1      -4.622   0.915 128.490  0.00  0.00    +0.210 HD
ENDBRANCH  23  36
BRANCH  19  38
ATOM     38  O   LIG A   1      -8.954   3.079 126.262  0.00  0.00    -0.382 OA
ATOM     39  H   LIG A   1      -9.534   2.929 125.496  0.00  0.00    +0.210 HD
ENDBRANCH  19  38
BRANCH   2  40
ATOM     40  O   LIG A   1      -5.795   3.081 134.301  0.00  0.00    -0.501 OA
ATOM     41  H   LIG A   1      -5.706   4.011 134.598  0.00  0.00    +0.292 HD
ENDBRANCH   2  40
BRANCH  20  42
ATOM     42  O   LIG A   1      -7.038   3.927 124.043  0.00  0.00    -0.429 OA
BRANCH  42  43
ATOM     43  C   LIG A   1      -6.690   3.057 123.062  0.00  0.00    +0.342 C 
ATOM     44  O   LIG A   1      -6.682   1.847 123.131  0.00  0.00    -0.245 OA
BRANCH  43  45
ATOM     45  C   LIG A   1      -6.372   3.812 121.826  0.00  0.00    +0.066 A 
ATOM     46  C   LIG A   1      -7.111   3.650 120.642  0.00  0.00    +0.064 A 
ATOM     47  C   LIG A   1      -6.742   4.366 119.511  0.00  0.00    +0.163 A 
ATOM     48  C   LIG A   1      -5.654   5.232 119.557  0.00  0.00    +0.201 A 
ATOM     49  C   LIG A   1      -4.930   5.394 120.730  0.00  0.00    +0.163 A 
ATOM     50  C   LIG A   1      -5.280   4.689 121.872  0.00  0.00    +0.064 A 
BRANCH  47  51
ATOM     51  O   LIG A   1      -7.415   4.246 118.329  0.00  0.00    -0.503 OA
ATOM     52  H   LIG A   1      -6.780   4.356 117.599  0.00  0.00    +0.292 HD
ENDBRANCH  47  51
BRANCH  49  53
ATOM     53  O   LIG A   1      -3.863   6.241 120.770  0.00  0.00    -0.503 OA
ATOM     54  H   LIG A   1      -3.948   6.785 119.962  0.00  0.00    +0.292 HD
ENDBRANCH  49  53
BRANCH  48  55
ATOM     55  O   LIG A   1      -5.278   5.931 118.443  0.00  0.00    -0.501 OA
ATOM     56  H   LIG A   1      -5.104   5.237 117.774  0.00  0.00    +0.292 HD
ENDBRANCH  48  55
ENDBRANCH  43  45
ENDBRANCH  42  43
ENDBRANCH  20  42
TORSDOF 14
ENDMDL
MODEL 5
REMARK VINA RESULT:      -7.8      1.885      7.651
REMARK  Name = NuBBE_54
REMARK  14 active torsions:
REMARK  status: ('A' for Active; 'I' for Inactive)
REMARK    1  A    between atoms: O_1  and  C_2
REMARK    2  A    between atoms: C_3  and  O_50
REMARK    3  A    between atoms: C_4  and  O_5
REMARK    4  A    between atoms: C_10  and  O_11
REMARK    5  A    between atoms: C_12  and  O_13
REMARK    6  A    between atoms: C_14  and  O_15
REMARK    7  A    between atoms: C_25  and  O_47
REMARK    8  A    between atoms: C_27  and  O_35
REMARK    9  A    between atoms: C_32  and  O_34
REMARK   10  A    between atoms: O_35  and  C_36
REMARK   11  A    between atoms: C_36  and  C_37
REMARK   12  A    between atoms: C_39  and  O_40
REMARK   13  A    between atoms: C_41  and  O_45
REMARK   14  A    between atoms: C_42  and  O_43
REMARK                            x       y       z     vdW  Elec       q    Type
REMARK                         _______ _______ _______ _____ _____    ______ ____
ROOT
ATOM      1  C   LIG A   1     -10.346   5.772 131.711  0.00  0.00    +0.163 A 
ATOM      2  C   LIG A   1      -9.381   6.001 132.682  0.00  0.00    +0.201 A 
ATOM      3  C   LIG A   1      -8.032   5.780 132.410  0.00  0.00    +0.171 A 
ATOM      4  C   LIG A   1      -7.602   5.330 131.155  0.00  0.00    +0.046 A 
ATOM      5  C   LIG A   1      -6.151   5.138 130.915  0.00  0.00    +0.046 A 
ATOM      6  C   LIG A   1      -5.457   3.920 131.157  0.00  0.00    +0.074 A 
ATOM      7  C   LIG A   1      -4.050   3.853 131.037  0.00  0.00    +0.065 A 
ATOM      8  C   LIG A   1      -3.340   4.963 130.606  0.00  0.00    +0.163 A 
ATOM      9  C   LIG A   1      -4.008   6.140 130.307  0.00  0.00    +0.201 A 
ATOM     10  C   LIG A   1      -5.388   6.233 130.470  0.00  0.00    +0.171 A 
ATOM     11  C   LIG A   1      -6.209   2.652 131.424  0.00  0.00    +0.340 C 
ATOM     12  O   LIG A   1      -5.524   1.528 131.076  0.00  0.00    -0.458 OA
ATOM     13  C   LIG A   1      -5.372   1.190 129.667  0.00  0.00    +0.267 C 
ATOM     14  O   LIG A   1      -7.368   2.595 131.800  0.00  0.00    -0.245 OA
ATOM     15  C   LIG A   1      -8.607   5.084 130.180  0.00  0.00    +0.074 A 
ATOM     16  C   LIG A   1      -8.253   4.524 128.864  0.00  0.00    +0.340 C 
ATOM     17  O   LIG A   1      -9.001   3.403 128.708  0.00  0.00    -0.452 OA
ATOM     18  C   LIG A   1      -8.623   2.287 127.836  0.00  0.00    +0.242 C 
ATOM     19  C   LIG A   1      -8.020   2.599 126.457  0.00  0.00    +0.226 C 
ATOM     20  C   LIG A   1      -6.460   2.733 126.446  0.00  0.00    +0.344 C 
ATOM     21  O   LIG A   1      -5.744   1.897 127.371  0.00  0.00    -0.330 OA
ATOM     22  C   LIG A   1      -6.312   1.904 128.684  0.00  0.00    +0.192 C 
ATOM     23  C   LIG A   1      -7.719   1.300 128.594  0.00  0.00    +0.190 C 
ATOM     24  O   LIG A   1      -7.335   4.898 128.176  0.00  0.00    -0.245 OA
ATOM     25  C   LIG A   1      -9.976   5.309 130.459  0.00  0.00    +0.065 A 
ENDROOT
BRANCH   1  26
ATOM     26  O   LIG A   1     -11.650   6.009 132.043  0.00  0.00    -0.503 OA
ATOM     27  H   LIG A   1     -11.703   6.178 133.000  0.00  0.00    +0.292 HD
ENDBRANCH   1  26
BRANCH   3  28
ATOM     28  O   LIG A   1      -7.124   6.003 133.417  0.00  0.00    -0.503 OA
ATOM     29  H   LIG A   1      -7.168   5.198 133.971  0.00  0.00    +0.292 HD
ENDBRANCH   3  28
BRANCH   8  30
ATOM     30  O   LIG A   1      -1.984   4.939 130.437  0.00  0.00    -0.503 OA
ATOM     31  H   LIG A   1      -1.596   5.705 130.894  0.00  0.00    +0.292 HD
ENDBRANCH   8  30
BRANCH   9  32
ATOM     32  O   LIG A   1      -3.318   7.231 129.849  0.00  0.00    -0.501 OA
ATOM     33  H   LIG A   1      -2.378   7.010 130.012  0.00  0.00    +0.292 HD
ENDBRANCH   9  32
BRANCH  10  34
ATOM     34  O   LIG A   1      -5.994   7.427 130.170  0.00  0.00    -0.503 OA
ATOM     35  H   LIG A   1      -5.391   8.110 130.525  0.00  0.00    +0.292 HD
ENDBRANCH  10  34
BRANCH  23  36
ATOM     36  O   LIG A   1      -8.305   0.924 129.831  0.00  0.00    -0.385 OA
ATOM     37  H   LIG A   1      -8.289   1.677 130.458  0.00  0.00    +0.210 HD
ENDBRANCH  23  36
BRANCH  19  38
ATOM     38  O   LIG A   1      -8.669   3.699 125.807  0.00  0.00    -0.382 OA
ATOM     39  H   LIG A   1      -8.782   3.460 124.871  0.00  0.00    +0.210 HD
ENDBRANCH  19  38
BRANCH   2  40
ATOM     40  O   LIG A   1      -9.741   6.445 133.926  0.00  0.00    -0.501 OA
ATOM     41  H   LIG A   1      -9.184   5.920 134.539  0.00  0.00    +0.292 HD
ENDBRANCH   2  40
BRANCH  20  42
ATOM     42  O   LIG A   1      -5.945   2.508 125.118  0.00  0.00    -0.429 OA
BRANCH  42  43
ATOM     43  C   LIG A   1      -5.348   3.572 124.525  0.00  0.00    +0.342 C 
ATOM     44  O   LIG A   1      -4.475   4.271 124.992  0.00  0.00    -0.245 OA
BRANCH  43  45
ATOM     45  C   LIG A   1      -5.881   3.732 123.150  0.00  0.00    +0.066 A 
ATOM     46  C   LIG A   1      -5.127   4.325 122.122  0.00  0.00    +0.064 A 
ATOM     47  C   LIG A   1      -5.697   4.470 120.864  0.00  0.00    +0.163 A 
ATOM     48  C   LIG A   1      -6.996   4.031 120.631  0.00  0.00    +0.201 A 
ATOM     49  C   LIG A   1      -7.734   3.440 121.647  0.00  0.00    +0.163 A 
ATOM     50  C   LIG A   1      -7.187   3.285 122.911  0.00  0.00    +0.064 A 
BRANCH  47  51
ATOM     51  O   LIG A   1      -5.019   5.045 119.827  0.00  0.00    -0.503 OA
ATOM     52  H   LIG A   1      -4.481   5.778 120.179  0.00  0.00    +0.292 HD
ENDBRANCH  47  51
BRANCH  49  53
ATOM     53  O   LIG A   1      -9.008   3.015 121.415  0.00  0.00    -0.503 OA
ATOM     54  H   LIG A   1      -9.113   2.224 121.981  0.00  0.00    +0.292 HD
ENDBRANCH  49  53
BRANCH  48  55
ATOM     55  O   LIG A   1      -7.567   4.183 119.397  0.00  0.00    -0.501 OA
ATOM     56  H   LIG A   1      -8.350   3.596 119.423  0.00  0.00    +0.292 HD
ENDBRANCH  48  55
ENDBRANCH  43  45
ENDBRANCH  42  43
ENDBRANCH  20  42
TORSDOF 14
ENDMDL
MODEL 6
REMARK VINA RESULT:      -7.7      3.554      7.230
REMARK  Name = NuBBE_54
REMARK  14 active torsions:
REMARK  status: ('A' for Active; 'I' for Inactive)
REMARK    1  A    between atoms: O_1  and  C_2
REMARK    2  A    between atoms: C_3  and  O_50
REMARK    3  A    between atoms: C_4  and  O_5
REMARK    4  A    between atoms: C_10  and  O_11
REMARK    5  A    between atoms: C_12  and  O_13
REMARK    6  A    between atoms: C_14  and  O_15
REMARK    7  A    between atoms: C_25  and  O_47
REMARK    8  A    between atoms: C_27  and  O_35
REMARK    9  A    between atoms: C_32  and  O_34
REMARK   10  A    between atoms: O_35  and  C_36
REMARK   11  A    between atoms: C_36  and  C_37
REMARK   12  A    between atoms: C_39  and  O_40
REMARK   13  A    between atoms: C_41  and  O_45
REMARK   14  A    between atoms: C_42  and  O_43
REMARK                            x       y       z     vdW  Elec       q    Type
REMARK                         _______ _______ _______ _____ _____    ______ ____
ROOT
ATOM      1  C   LIG A   1      -5.654  -3.288 131.276  0.00  0.00    +0.163 A 
ATOM      2  C   LIG A   1      -4.318  -3.017 131.538  0.00  0.00    +0.201 A 
ATOM      3  C   LIG A   1      -3.921  -1.758 131.987  0.00  0.00    +0.171 A 
ATOM      4  C   LIG A   1      -4.849  -0.731 132.198  0.00  0.00    +0.046 A 
ATOM      5  C   LIG A   1      -4.372   0.580 132.702  0.00  0.00    +0.046 A 
ATOM      6  C   LIG A   1      -3.956   1.653 131.867  0.00  0.00    +0.074 A 
ATOM      7  C   LIG A   1      -3.384   2.822 132.420  0.00  0.00    +0.065 A 
ATOM      8  C   LIG A   1      -3.291   2.960 133.796  0.00  0.00    +0.163 A 
ATOM      9  C   LIG A   1      -3.748   1.949 134.626  0.00  0.00    +0.201 A 
ATOM     10  C   LIG A   1      -4.268   0.772 134.092  0.00  0.00    +0.171 A 
ATOM     11  C   LIG A   1      -4.229   1.624 130.393  0.00  0.00    +0.340 C 
ATOM     12  O   LIG A   1      -4.319   2.860 129.830  0.00  0.00    -0.458 OA
ATOM     13  C   LIG A   1      -5.504   3.673 130.075  0.00  0.00    +0.267 C 
ATOM     14  O   LIG A   1      -4.473   0.617 129.750  0.00  0.00    -0.245 OA
ATOM     15  C   LIG A   1      -6.210  -1.021 131.906  0.00  0.00    +0.074 A 
ATOM     16  C   LIG A   1      -7.239   0.027 132.013  0.00  0.00    +0.340 C 
ATOM     17  O   LIG A   1      -7.860   0.082 130.808  0.00  0.00    -0.452 OA
ATOM     18  C   LIG A   1      -8.553   1.271 130.303  0.00  0.00    +0.242 C 
ATOM     19  C   LIG A   1      -9.422   2.088 131.273  0.00  0.00    +0.226 C 
ATOM     20  C   LIG A   1      -8.658   3.230 132.023  0.00  0.00    +0.344 C 
ATOM     21  O   LIG A   1      -7.598   3.872 131.293  0.00  0.00    -0.330 OA
ATOM     22  C   LIG A   1      -6.735   2.943 130.630  0.00  0.00    +0.192 C 
ATOM     23  C   LIG A   1      -7.563   2.198 129.576  0.00  0.00    +0.190 C 
ATOM     24  O   LIG A   1      -7.348   0.800 132.932  0.00  0.00    -0.245 OA
ATOM     25  C   LIG A   1      -6.610  -2.299 131.450  0.00  0.00    +0.065 A 
ENDROOT
BRANCH   1  26
ATOM     26  O   LIG A   1      -5.975  -4.541 130.839  0.00  0.00    -0.503 OA
ATOM     27  H   LIG A   1      -6.175  -5.099 131.611  0.00  0.00    +0.292 HD
ENDBRANCH   1  26
BRANCH   3  28
ATOM     28  O   LIG A   1      -2.583  -1.544 132.209  0.00  0.00    -0.503 OA
ATOM     29  H   LIG A   1      -2.215  -2.435 132.373  0.00  0.00    +0.292 HD
ENDBRANCH   3  28
BRANCH   8  30
ATOM     30  O   LIG A   1      -2.781   4.084 134.382  0.00  0.00    -0.503 OA
ATOM     31  H   LIG A   1      -3.430   4.805 134.299  0.00  0.00    +0.292 HD
ENDBRANCH   8  30
BRANCH   9  32
ATOM     32  O   LIG A   1      -3.691   2.092 135.988  0.00  0.00    -0.501 OA
ATOM     33  H   LIG A   1      -4.304   2.831 136.180  0.00  0.00    +0.292 HD
ENDBRANCH   9  32
BRANCH  10  34
ATOM     34  O   LIG A   1      -4.693  -0.200 134.963  0.00  0.00    -0.503 OA
ATOM     35  H   LIG A   1      -5.669  -0.144 134.942  0.00  0.00    +0.292 HD
ENDBRANCH  10  34
BRANCH  23  36
ATOM     36  O   LIG A   1      -6.817   1.479 128.605  0.00  0.00    -0.385 OA
ATOM     37  H   LIG A   1      -5.974   1.161 128.991  0.00  0.00    +0.210 HD
ENDBRANCH  23  36
BRANCH  19  38
ATOM     38  O   LIG A   1     -10.181   1.260 132.163  0.00  0.00    -0.382 OA
ATOM     39  H   LIG A   1     -10.911   0.873 131.649  0.00  0.00    +0.210 HD
ENDBRANCH  19  38
BRANCH   2  40
ATOM     40  O   LIG A   1      -3.366  -3.984 131.354  0.00  0.00    -0.501 OA
ATOM     41  H   LIG A   1      -2.927  -3.733 130.515  0.00  0.00    +0.292 HD
ENDBRANCH   2  40
BRANCH  20  42
ATOM     42  O   LIG A   1      -9.583   4.235 132.484  0.00  0.00    -0.429 OA
BRANCH  42  43
ATOM     43  C   LIG A   1      -9.143   5.517 132.431  0.00  0.00    +0.342 C 
ATOM     44  O   LIG A   1      -8.162   5.974 132.976  0.00  0.00    -0.245 OA
BRANCH  43  45
ATOM     45  C   LIG A   1     -10.020   6.301 131.526  0.00  0.00    +0.066 A 
ATOM     46  C   LIG A   1      -9.527   6.928 130.369  0.00  0.00    +0.064 A 
ATOM     47  C   LIG A   1     -10.396   7.671 129.581  0.00  0.00    +0.163 A 
ATOM     48  C   LIG A   1     -11.735   7.788 129.938  0.00  0.00    +0.201 A 
ATOM     49  C   LIG A   1     -12.219   7.162 131.079  0.00  0.00    +0.163 A 
ATOM     50  C   LIG A   1     -11.370   6.416 131.882  0.00  0.00    +0.064 A 
BRANCH  47  51
ATOM     51  O   LIG A   1      -9.976   8.310 128.449  0.00  0.00    -0.503 OA
ATOM     52  H   LIG A   1      -9.599   9.172 128.703  0.00  0.00    +0.292 HD
ENDBRANCH  47  51
BRANCH  49  53
ATOM     53  O   LIG A   1     -13.531   7.283 131.427  0.00  0.00    -0.503 OA
ATOM     54  H   LIG A   1     -13.742   8.226 131.280  0.00  0.00    +0.292 HD
ENDBRANCH  49  53
BRANCH  48  55
ATOM     55  O   LIG A   1     -12.593   8.529 129.173  0.00  0.00    -0.501 OA
ATOM     56  H   LIG A   1     -13.106   9.050 129.825  0.00  0.00    +0.292 HD
ENDBRANCH  48  55
ENDBRANCH  43  45
ENDBRANCH  42  43
ENDBRANCH  20  42
TORSDOF 14
ENDMDL
MODEL 7
REMARK VINA RESULT:      -7.7      3.526      6.492
REMARK  Name = NuBBE_54
REMARK  14 active torsions:
REMARK  status: ('A' for Active; 'I' for Inactive)
REMARK    1  A    between atoms: O_1  and  C_2
REMARK    2  A    between atoms: C_3  and  O_50
REMARK    3  A    between atoms: C_4  and  O_5
REMARK    4  A    between atoms: C_10  and  O_11
REMARK    5  A    between atoms: C_12  and  O_13
REMARK    6  A    between atoms: C_14  and  O_15
REMARK    7  A    between atoms: C_25  and  O_47
REMARK    8  A    between atoms: C_27  and  O_35
REMARK    9  A    between atoms: C_32  and  O_34
REMARK   10  A    between atoms: O_35  and  C_36
REMARK   11  A    between atoms: C_36  and  C_37
REMARK   12  A    between atoms: C_39  and  O_40
REMARK   13  A    between atoms: C_41  and  O_45
REMARK   14  A    between atoms: C_42  and  O_43
REMARK                            x       y       z     vdW  Elec       q    Type
REMARK                         _______ _______ _______ _____ _____    ______ ____
ROOT
ATOM      1  C   LIG A   1      -7.741  -2.745 129.626  0.00  0.00    +0.163 A 
ATOM      2  C   LIG A   1      -6.562  -3.129 130.249  0.00  0.00    +0.201 A 
ATOM      3  C   LIG A   1      -5.879  -2.248 131.086  0.00  0.00    +0.171 A 
ATOM      4  C   LIG A   1      -6.359  -0.956 131.337  0.00  0.00    +0.046 A 
ATOM      5  C   LIG A   1      -5.605  -0.071 132.258  0.00  0.00    +0.046 A 
ATOM      6  C   LIG A   1      -4.569   0.811 131.846  0.00  0.00    +0.074 A 
ATOM      7  C   LIG A   1      -3.801   1.521 132.799  0.00  0.00    +0.065 A 
ATOM      8  C   LIG A   1      -4.105   1.416 134.147  0.00  0.00    +0.163 A 
ATOM      9  C   LIG A   1      -5.151   0.606 134.560  0.00  0.00    +0.201 A 
ATOM     10  C   LIG A   1      -5.882  -0.136 133.635  0.00  0.00    +0.171 A 
ATOM     11  C   LIG A   1      -4.348   1.107 130.394  0.00  0.00    +0.340 C 
ATOM     12  O   LIG A   1      -3.776   2.320 130.164  0.00  0.00    -0.458 OA
ATOM     13  C   LIG A   1      -4.571   3.530 130.331  0.00  0.00    +0.267 C 
ATOM     14  O   LIG A   1      -4.740   0.408 129.474  0.00  0.00    -0.245 OA
ATOM     15  C   LIG A   1      -7.559  -0.575 130.675  0.00  0.00    +0.074 A 
ATOM     16  C   LIG A   1      -8.085   0.794 130.809  0.00  0.00    +0.340 C 
ATOM     17  O   LIG A   1      -8.220   1.280 129.550  0.00  0.00    -0.452 OA
ATOM     18  C   LIG A   1      -8.207   2.709 129.224  0.00  0.00    +0.242 C 
ATOM     19  C   LIG A   1      -8.958   3.684 130.145  0.00  0.00    +0.226 C 
ATOM     20  C   LIG A   1      -8.097   4.260 131.319  0.00  0.00    +0.344 C 
ATOM     21  O   LIG A   1      -6.701   4.462 131.043  0.00  0.00    -0.330 OA
ATOM     22  C   LIG A   1      -6.095   3.348 130.380  0.00  0.00    +0.192 C 
ATOM     23  C   LIG A   1      -6.764   3.195 129.008  0.00  0.00    +0.190 C 
ATOM     24  O   LIG A   1      -8.177   1.403 131.847  0.00  0.00    -0.245 OA
ATOM     25  C   LIG A   1      -8.248  -1.471 129.825  0.00  0.00    +0.065 A 
ENDROOT
BRANCH   1  26
ATOM     26  O   LIG A   1      -8.359  -3.657 128.818  0.00  0.00    -0.503 OA
ATOM     27  H   LIG A   1      -9.280  -3.765 129.118  0.00  0.00    +0.292 HD
ENDBRANCH   1  26
BRANCH   3  28
ATOM     28  O   LIG A   1      -4.706  -2.677 131.658  0.00  0.00    -0.503 OA
ATOM     29  H   LIG A   1      -4.209  -1.855 131.847  0.00  0.00    +0.292 HD
ENDBRANCH   3  28
BRANCH   8  30
ATOM     30  O   LIG A   1      -3.420   2.109 135.104  0.00  0.00    -0.503 OA
ATOM     31  H   LIG A   1      -2.497   1.799 135.118  0.00  0.00    +0.292 HD
ENDBRANCH   8  30
BRANCH   9  32
ATOM     32  O   LIG A   1      -5.480   0.522 135.887  0.00  0.00    -0.501 OA
ATOM     33  H   LIG A   1      -6.234   1.139 135.990  0.00  0.00    +0.292 HD
ENDBRANCH   9  32
BRANCH  10  34
ATOM     34  O   LIG A   1      -6.899  -0.930 134.104  0.00  0.00    -0.503 OA
ATOM     35  H   LIG A   1      -7.695  -0.364 134.067  0.00  0.00    +0.292 HD
ENDBRANCH  10  34
BRANCH  23  36
ATOM     36  O   LIG A   1      -6.082   2.361 128.083  0.00  0.00    -0.385 OA
ATOM     37  H   LIG A   1      -6.439   2.492 127.180  0.00  0.00    +0.210 HD
ENDBRANCH  23  36
BRANCH  19  38
ATOM     38  O   LIG A   1     -10.216   3.163 130.592  0.00  0.00    -0.382 OA
ATOM     39  H   LIG A   1     -10.732   3.909 130.944  0.00  0.00    +0.210 HD
ENDBRANCH  19  38
BRANCH   2  40
ATOM     40  O   LIG A   1      -6.046  -4.381 130.046  0.00  0.00    -0.501 OA
ATOM     41  H   LIG A   1      -6.341  -4.620 129.142  0.00  0.00    +0.292 HD
ENDBRANCH   2  40
BRANCH  20  42
ATOM     42  O   LIG A   1      -8.663   5.497 131.799  0.00  0.00    -0.429 OA
BRANCH  42  43
ATOM     43  C   LIG A   1      -8.476   6.582 131.006  0.00  0.00    +0.342 C 
ATOM     44  O   LIG A   1      -7.417   7.080 130.691  0.00  0.00    -0.245 OA
BRANCH  43  45
ATOM     45  C   LIG A   1      -9.789   7.055 130.504  0.00  0.00    +0.066 A 
ATOM     46  C   LIG A   1     -10.984   6.820 131.205  0.00  0.00    +0.064 A 
ATOM     47  C   LIG A   1     -12.183   7.265 130.664  0.00  0.00    +0.163 A 
ATOM     48  C   LIG A   1     -12.193   7.934 129.444  0.00  0.00    +0.201 A 
ATOM     49  C   LIG A   1     -11.010   8.168 128.758  0.00  0.00    +0.163 A 
ATOM     50  C   LIG A   1      -9.801   7.734 129.278  0.00  0.00    +0.064 A 
BRANCH  47  51
ATOM     51  O   LIG A   1     -13.378   7.060 131.293  0.00  0.00    -0.503 OA
ATOM     52  H   LIG A   1     -13.391   7.591 132.110  0.00  0.00    +0.292 HD
ENDBRANCH  47  51
BRANCH  49  53
ATOM     53  O   LIG A   1     -11.025   8.821 127.562  0.00  0.00    -0.503 OA
ATOM     54  H   LIG A   1     -10.141   8.655 127.177  0.00  0.00    +0.292 HD
ENDBRANCH  49  53
BRANCH  48  55
ATOM     55  O   LIG A   1     -13.373   8.363 128.901  0.00  0.00    -0.501 OA
ATOM     56  H   LIG A   1     -13.098   8.925 128.147  0.00  0.00    +0.292 HD
ENDBRANCH  48  55
ENDBRANCH  43  45
ENDBRANCH  42  43
ENDBRANCH  20  42
TORSDOF 14
ENDMDL
MODEL 8
REMARK VINA RESULT:      -7.6      2.487      7.898
REMARK  Name = NuBBE_54
REMARK  14 active torsions:
REMARK  status: ('A' for Active; 'I' for Inactive)
REMARK    1  A    between atoms: O_1  and  C_2
REMARK    2  A    between atoms: C_3  and  O_50
REMARK    3  A    between atoms: C_4  and  O_5
REMARK    4  A    between atoms: C_10  and  O_11
REMARK    5  A    between atoms: C_12  and  O_13
REMARK    6  A    between atoms: C_14  and  O_15
REMARK    7  A    between atoms: C_25  and  O_47
REMARK    8  A    between atoms: C_27  and  O_35
REMARK    9  A    between atoms: C_32  and  O_34
REMARK   10  A    between atoms: O_35  and  C_36
REMARK   11  A    between atoms: C_36  and  C_37
REMARK   12  A    between atoms: C_39  and  O_40
REMARK   13  A    between atoms: C_41  and  O_45
REMARK   14  A    between atoms: C_42  and  O_43
REMARK                            x       y       z     vdW  Elec       q    Type
REMARK                         _______ _______ _______ _____ _____    ______ ____
ROOT
ATOM      1  C   LIG A   1      -5.977  -0.723 132.888  0.00  0.00    +0.163 A 
ATOM      2  C   LIG A   1      -6.398   0.395 133.594  0.00  0.00    +0.201 A 
ATOM      3  C   LIG A   1      -7.022   1.457 132.939  0.00  0.00    +0.171 A 
ATOM      4  C   LIG A   1      -7.253   1.431 131.559  0.00  0.00    +0.046 A 
ATOM      5  C   LIG A   1      -7.945   2.578 130.920  0.00  0.00    +0.046 A 
ATOM      6  C   LIG A   1      -7.279   3.720 130.397  0.00  0.00    +0.074 A 
ATOM      7  C   LIG A   1      -8.013   4.835 129.929  0.00  0.00    +0.065 A 
ATOM      8  C   LIG A   1      -9.399   4.791 129.911  0.00  0.00    +0.163 A 
ATOM      9  C   LIG A   1     -10.062   3.660 130.362  0.00  0.00    +0.201 A 
ATOM     10  C   LIG A   1      -9.351   2.576 130.871  0.00  0.00    +0.171 A 
ATOM     11  C   LIG A   1      -5.792   3.720 130.212  0.00  0.00    +0.340 C 
ATOM     12  O   LIG A   1      -5.364   4.560 129.230  0.00  0.00    -0.458 OA
ATOM     13  C   LIG A   1      -5.579   4.199 127.835  0.00  0.00    +0.267 C 
ATOM     14  O   LIG A   1      -5.020   2.966 130.780  0.00  0.00    -0.245 OA
ATOM     15  C   LIG A   1      -6.797   0.286 130.850  0.00  0.00    +0.074 A 
ATOM     16  C   LIG A   1      -6.918   0.216 129.384  0.00  0.00    +0.340 C 
ATOM     17  O   LIG A   1      -5.670  -0.024 128.906  0.00  0.00    -0.452 OA
ATOM     18  C   LIG A   1      -5.235   0.336 127.553  0.00  0.00    +0.242 C 
ATOM     19  C   LIG A   1      -6.198   0.101 126.379  0.00  0.00    +0.226 C 
ATOM     20  C   LIG A   1      -7.143   1.309 126.063  0.00  0.00    +0.344 C 
ATOM     21  O   LIG A   1      -6.598   2.618 126.294  0.00  0.00    -0.330 OA
ATOM     22  C   LIG A   1      -5.925   2.730 127.551  0.00  0.00    +0.192 C 
ATOM     23  C   LIG A   1      -4.717   1.784 127.526  0.00  0.00    +0.190 C 
ATOM     24  O   LIG A   1      -7.902   0.513 128.754  0.00  0.00    -0.245 OA
ATOM     25  C   LIG A   1      -6.164  -0.790 131.516  0.00  0.00    +0.065 A 
ENDROOT
BRANCH   1  26
ATOM     26  O   LIG A   1      -5.373  -1.728 133.590  0.00  0.00    -0.503 OA
ATOM     27  H   LIG A   1      -4.408  -1.608 133.537  0.00  0.00    +0.292 HD
ENDBRANCH   1  26
BRANCH   3  28
ATOM     28  O   LIG A   1      -7.398   2.546 133.688  0.00  0.00    -0.503 OA
ATOM     29  H   LIG A   1      -7.053   3.316 133.192  0.00  0.00    +0.292 HD
ENDBRANCH   3  28
BRANCH   8  30
ATOM     30  O   LIG A   1     -10.154   5.825 129.434  0.00  0.00    -0.503 OA
ATOM     31  H   LIG A   1      -9.761   6.146 128.604  0.00  0.00    +0.292 HD
ENDBRANCH   8  30
BRANCH   9  32
ATOM     32  O   LIG A   1     -11.430   3.595 130.315  0.00  0.00    -0.501 OA
ATOM     33  H   LIG A   1     -11.681   4.256 129.639  0.00  0.00    +0.292 HD
ENDBRANCH   9  32
BRANCH  10  34
ATOM     34  O   LIG A   1     -10.062   1.489 131.314  0.00  0.00    -0.503 OA
ATOM     35  H   LIG A   1     -10.580   1.822 132.074  0.00  0.00    +0.292 HD
ENDBRANCH  10  34
BRANCH  23  36
ATOM     36  O   LIG A   1      -3.751   1.996 128.545  0.00  0.00    -0.385 OA
ATOM     37  H   LIG A   1      -3.435   2.924 128.527  0.00  0.00    +0.210 HD
ENDBRANCH  23  36
BRANCH  19  38
ATOM     38  O   LIG A   1      -6.911  -1.138 126.491  0.00  0.00    -0.382 OA
ATOM     39  H   LIG A   1      -7.738  -0.956 126.970  0.00  0.00    +0.210 HD
ENDBRANCH  19  38
BRANCH   2  40
ATOM     40  O   LIG A   1      -6.204   0.475 134.947  0.00  0.00    -0.501 OA
ATOM     41  H   LIG A   1      -5.563  -0.240 135.141  0.00  0.00    +0.292 HD
ENDBRANCH   2  40
BRANCH  20  42
ATOM     42  O   LIG A   1      -7.619   1.233 124.704  0.00  0.00    -0.429 OA
BRANCH  42  43
ATOM     43  C   LIG A   1      -8.449   2.230 124.309  0.00  0.00    +0.342 C 
ATOM     44  O   LIG A   1      -9.414   2.654 124.905  0.00  0.00    -0.245 OA
BRANCH  43  45
ATOM     45  C   LIG A   1      -7.958   2.800 123.030  0.00  0.00    +0.066 A 
ATOM     46  C   LIG A   1      -6.605   3.122 122.828  0.00  0.00    +0.064 A 
ATOM     47  C   LIG A   1      -6.216   3.680 121.618  0.00  0.00    +0.163 A 
ATOM     48  C   LIG A   1      -7.159   3.913 120.622  0.00  0.00    +0.201 A 
ATOM     49  C   LIG A   1      -8.493   3.587 120.823  0.00  0.00    +0.163 A 
ATOM     50  C   LIG A   1      -8.905   3.030 122.024  0.00  0.00    +0.064 A 
BRANCH  47  51
ATOM     51  O   LIG A   1      -4.918   4.022 121.365  0.00  0.00    -0.503 OA
ATOM     52  H   LIG A   1      -4.515   4.338 122.194  0.00  0.00    +0.292 HD
ENDBRANCH  47  51
BRANCH  49  53
ATOM     53  O   LIG A   1      -9.414   3.820 119.846  0.00  0.00    -0.503 OA
ATOM     54  H   LIG A   1     -10.277   3.799 120.307  0.00  0.00    +0.292 HD
ENDBRANCH  49  53
BRANCH  48  55
ATOM     55  O   LIG A   1      -6.784   4.474 119.432  0.00  0.00    -0.501 OA
ATOM     56  H   LIG A   1      -6.647   3.706 118.839  0.00  0.00    +0.292 HD
ENDBRANCH  48  55
ENDBRANCH  43  45
ENDBRANCH  42  43
ENDBRANCH  20  42
TORSDOF 14
ENDMDL
MODEL 9
REMARK VINA RESULT:      -7.5      2.438      6.672
REMARK  Name = NuBBE_54
REMARK  14 active torsions:
REMARK  status: ('A' for Active; 'I' for Inactive)
REMARK    1  A    between atoms: O_1  and  C_2
REMARK    2  A    between atoms: C_3  and  O_50
REMARK    3  A    between atoms: C_4  and  O_5
REMARK    4  A    between atoms: C_10  and  O_11
REMARK    5  A    between atoms: C_12  and  O_13
REMARK    6  A    between atoms: C_14  and  O_15
REMARK    7  A    between atoms: C_25  and  O_47
REMARK    8  A    between atoms: C_27  and  O_35
REMARK    9  A    between atoms: C_32  and  O_34
REMARK   10  A    between atoms: O_35  and  C_36
REMARK   11  A    between atoms: C_36  and  C_37
REMARK   12  A    between atoms: C_39  and  O_40
REMARK   13  A    between atoms: C_41  and  O_45
REMARK   14  A    between atoms: C_42  and  O_43
REMARK                            x       y       z     vdW  Elec       q    Type
REMARK                         _______ _______ _______ _____ _____    ______ ____
ROOT
ATOM      1  C   LIG A   1      -3.467   0.079 134.054  0.00  0.00    +0.163 A 
ATOM      2  C   LIG A   1      -4.545  -0.721 133.701  0.00  0.00    +0.201 A 
ATOM      3  C   LIG A   1      -5.398  -0.348 132.663  0.00  0.00    +0.171 A 
ATOM      4  C   LIG A   1      -5.196   0.832 131.938  0.00  0.00    +0.046 A 
ATOM      5  C   LIG A   1      -6.121   1.164 130.826  0.00  0.00    +0.046 A 
ATOM      6  C   LIG A   1      -7.315   1.920 130.981  0.00  0.00    +0.074 A 
ATOM      7  C   LIG A   1      -8.217   2.078 129.903  0.00  0.00    +0.065 A 
ATOM      8  C   LIG A   1      -7.904   1.554 128.659  0.00  0.00    +0.163 A 
ATOM      9  C   LIG A   1      -6.715   0.866 128.476  0.00  0.00    +0.201 A 
ATOM     10  C   LIG A   1      -5.843   0.661 129.543  0.00  0.00    +0.171 A 
ATOM     11  C   LIG A   1      -7.586   2.671 132.249  0.00  0.00    +0.340 C 
ATOM     12  O   LIG A   1      -8.395   3.753 132.082  0.00  0.00    -0.458 OA
ATOM     13  C   LIG A   1      -7.867   4.949 131.438  0.00  0.00    +0.267 C 
ATOM     14  O   LIG A   1      -7.054   2.440 133.322  0.00  0.00    -0.245 OA
ATOM     15  C   LIG A   1      -4.098   1.648 132.327  0.00  0.00    +0.074 A 
ATOM     16  C   LIG A   1      -3.867   2.950 131.678  0.00  0.00    +0.340 C 
ATOM     17  O   LIG A   1      -3.829   3.873 132.671  0.00  0.00    -0.452 OA
ATOM     18  C   LIG A   1      -4.135   5.293 132.474  0.00  0.00    +0.242 C 
ATOM     19  C   LIG A   1      -3.607   5.995 131.212  0.00  0.00    +0.226 C 
ATOM     20  C   LIG A   1      -4.574   5.932 129.982  0.00  0.00    +0.344 C 
ATOM     21  O   LIG A   1      -5.980   5.950 130.278  0.00  0.00    -0.330 OA
ATOM     22  C   LIG A   1      -6.339   5.056 131.336  0.00  0.00    +0.192 C 
ATOM     23  C   LIG A   1      -5.647   5.539 132.617  0.00  0.00    +0.190 C 
ATOM     24  O   LIG A   1      -3.907   3.149 130.489  0.00  0.00    -0.245 OA
ATOM     25  C   LIG A   1      -3.235   1.268 133.381  0.00  0.00    +0.065 A 
ENDROOT
BRANCH   1  26
ATOM     26  O   LIG A   1      -2.670  -0.343 135.080  0.00  0.00    -0.503 OA
ATOM     27  H   LIG A   1      -2.766   0.277 135.825  0.00  0.00    +0.292 HD
ENDBRANCH   1  26
BRANCH   3  28
ATOM     28  O   LIG A   1      -6.460  -1.170 132.374  0.00  0.00    -0.503 OA
ATOM     29  H   LIG A   1      -7.236  -0.715 132.759  0.00  0.00    +0.292 HD
ENDBRANCH   3  28
BRANCH   8  30
ATOM     30  O   LIG A   1      -8.722   1.711 127.576  0.00  0.00    -0.503 OA
ATOM     31  H   LIG A   1      -8.191   2.017 126.821  0.00  0.00    +0.292 HD
ENDBRANCH   8  30
BRANCH   9  32
ATOM     32  O   LIG A   1      -6.382   0.373 127.242  0.00  0.00    -0.501 OA
ATOM     33  H   LIG A   1      -5.487   0.732 127.071  0.00  0.00    +0.292 HD
ENDBRANCH   9  32
BRANCH  10  34
ATOM     34  O   LIG A   1      -4.686  -0.039 129.305  0.00  0.00    -0.503 OA
ATOM     35  H   LIG A   1      -3.995   0.647 129.208  0.00  0.00    +0.292 HD
ENDBRANCH  10  34
BRANCH  23  36
ATOM     36  O   LIG A   1      -6.138   4.981 133.827  0.00  0.00    -0.385 OA
ATOM     37  H   LIG A   1      -7.116   4.915 133.798  0.00  0.00    +0.210 HD
ENDBRANCH  23  36
BRANCH  19  38
ATOM     38  O   LIG A   1      -2.270   5.598 130.880  0.00  0.00    -0.382 OA
ATOM     39  H   LIG A   1      -1.667   6.264 131.253  0.00  0.00    +0.210 HD
ENDBRANCH  19  38
BRANCH   2  40
ATOM     40  O   LIG A   1      -4.790  -1.889 134.372  0.00  0.00    -0.501 OA
ATOM     41  H   LIG A   1      -4.083  -1.931 135.049  0.00  0.00    +0.292 HD
ENDBRANCH   2  40
BRANCH  20  42
ATOM     42  O   LIG A   1      -4.277   6.997 129.055  0.00  0.00    -0.429 OA
BRANCH  42  43
ATOM     43  C   LIG A   1      -3.325   6.728 128.127  0.00  0.00    +0.342 C 
ATOM     44  O   LIG A   1      -2.392   7.435 127.814  0.00  0.00    -0.245 OA
BRANCH  43  45
ATOM     45  C   LIG A   1      -3.550   5.371 127.572  0.00  0.00    +0.066 A 
ATOM     46  C   LIG A   1      -4.809   4.954 127.108  0.00  0.00    +0.064 A 
ATOM     47  C   LIG A   1      -4.958   3.660 126.627  0.00  0.00    +0.163 A 
ATOM     48  C   LIG A   1      -3.870   2.794 126.606  0.00  0.00    +0.201 A 
ATOM     49  C   LIG A   1      -2.627   3.211 127.060  0.00  0.00    +0.163 A 
ATOM     50  C   LIG A   1      -2.454   4.498 127.545  0.00  0.00    +0.064 A 
BRANCH  47  51
ATOM     51  O   LIG A   1      -6.158   3.194 126.170  0.00  0.00    -0.503 OA
ATOM     52  H   LIG A   1      -6.718   3.958 125.940  0.00  0.00    +0.292 HD
ENDBRANCH  47  51
BRANCH  49  53
ATOM     53  O   LIG A   1      -1.564   2.357 127.042  0.00  0.00    -0.503 OA
ATOM     54  H   LIG A   1      -0.787   2.931 126.892  0.00  0.00    +0.292 HD
ENDBRANCH  49  53
BRANCH  48  55
ATOM     55  O   LIG A   1      -4.014   1.514 126.146  0.00  0.00    -0.501 OA
ATOM     56  H   LIG A   1      -3.899   1.595 125.176  0.00  0.00    +0.292 HD
ENDBRANCH  48  55
ENDBRANCH  43  45
ENDBRANCH  42  43
ENDBRANCH  20  42
TORSDOF 14
ENDMDL
