MODEL 1
REMARK VINA RESULT:      -6.6      0.000      0.000
REMARK  Name = NuBBE_1754
REMARK  4 active torsions:
REMARK  status: ('A' for Active; 'I' for Inactive)
REMARK    1  A    between atoms: C_1  and  C_2
REMARK    2  A    between atoms: C_6  and  C_15
REMARK    3  A    between atoms: C_12  and  C_13
REMARK    4  A    between atoms: C_12  and  C_14
REMARK                            x       y       z     vdW  Elec       q    Type
REMARK                         _______ _______ _______ _____ _____    ______ ____
ROOT
ATOM      1  C   LIG A   1      -7.105  -1.259 128.530  0.00  0.00    +0.012 C 
ATOM      2  C   LIG A   1      -7.184  -2.522 127.677  0.00  0.00    +0.012 C 
ATOM      3  C   LIG A   1      -7.082  -2.281 126.197  0.00  0.00    -0.063 C 
ATOM      4  C   LIG A   1      -8.143  -2.769 125.528  0.00  0.00    -0.067 C 
ATOM      5  C   LIG A   1      -8.322  -2.683 124.034  0.00  0.00    +0.012 C 
ATOM      6  C   LIG A   1      -8.362  -1.210 123.572  0.00  0.00    +0.012 C 
ATOM      7  C   LIG A   1      -6.975  -0.551 123.523  0.00  0.00    +0.031 C 
ATOM      8  C   LIG A   1      -6.305  -0.301 124.871  0.00  0.00    -0.067 C 
ATOM      9  C   LIG A   1      -5.901  -1.596 125.569  0.00  0.00    +0.061 C 
ATOM     10  C   LIG A   1      -6.046   0.942 125.357  0.00  0.00    -0.076 C 
ATOM     11  C   LIG A   1      -5.244   1.230 126.606  0.00  0.00    +0.038 C 
ATOM     12  C   LIG A   1      -6.532   2.231 124.729  0.00  0.00    +0.038 C 
ATOM     13  C   LIG A   1      -9.550  -3.438 123.516  0.00  0.00    +0.012 C 
ATOM     14  C   LIG A   1      -9.147  -3.383 126.445  0.00  0.00    +0.031 C 
ATOM     15  C   LIG A   1      -8.548  -3.211 127.840  0.00  0.00    +0.012 C 
ENDROOT
TORSDOF 0
ENDMDL
MODEL 2
REMARK VINA RESULT:      -6.4      1.208      3.682
REMARK  Name = NuBBE_1754
REMARK  4 active torsions:
REMARK  status: ('A' for Active; 'I' for Inactive)
REMARK    1  A    between atoms: C_1  and  C_2
REMARK    2  A    between atoms: C_6  and  C_15
REMARK    3  A    between atoms: C_12  and  C_13
REMARK    4  A    between atoms: C_12  and  C_14
REMARK                            x       y       z     vdW  Elec       q    Type
REMARK                         _______ _______ _______ _____ _____    ______ ____
ROOT
ATOM      1  C   LIG A   1      -5.497   0.338 125.879  0.00  0.00    +0.012 C 
ATOM      2  C   LIG A   1      -5.388  -0.759 126.934  0.00  0.00    +0.012 C 
ATOM      3  C   LIG A   1      -6.226  -1.975 126.656  0.00  0.00    -0.063 C 
ATOM      4  C   LIG A   1      -7.075  -2.249 127.664  0.00  0.00    -0.067 C 
ATOM      5  C   LIG A   1      -8.038  -3.409 127.676  0.00  0.00    +0.012 C 
ATOM      6  C   LIG A   1      -9.034  -3.304 126.501  0.00  0.00    +0.012 C 
ATOM      7  C   LIG A   1      -8.427  -3.721 125.152  0.00  0.00    +0.031 C 
ATOM      8  C   LIG A   1      -7.369  -2.784 124.577  0.00  0.00    -0.067 C 
ATOM      9  C   LIG A   1      -6.083  -2.785 125.399  0.00  0.00    +0.061 C 
ATOM     10  C   LIG A   1      -7.540  -2.080 123.427  0.00  0.00    -0.076 C 
ATOM     11  C   LIG A   1      -6.461  -1.270 122.742  0.00  0.00    +0.038 C 
ATOM     12  C   LIG A   1      -8.841  -1.987 122.660  0.00  0.00    +0.038 C 
ATOM     13  C   LIG A   1      -8.790  -3.570 129.001  0.00  0.00    +0.012 C 
ATOM     14  C   LIG A   1      -6.976  -1.247 128.765  0.00  0.00    +0.031 C 
ATOM     15  C   LIG A   1      -5.904  -0.265 128.296  0.00  0.00    +0.012 C 
ENDROOT
TORSDOF 0
ENDMDL
MODEL 3
REMARK VINA RESULT:      -6.3      1.079      4.299
REMARK  Name = NuBBE_1754
REMARK  4 active torsions:
REMARK  status: ('A' for Active; 'I' for Inactive)
REMARK    1  A    between atoms: C_1  and  C_2
REMARK    2  A    between atoms: C_6  and  C_15
REMARK    3  A    between atoms: C_12  and  C_13
REMARK    4  A    between atoms: C_12  and  C_14
REMARK                            x       y       z     vdW  Elec       q    Type
REMARK                         _______ _______ _______ _____ _____    ______ ____
ROOT
ATOM      1  C   LIG A   1      -6.638   0.626 124.750  0.00  0.00    +0.012 C 
ATOM      2  C   LIG A   1      -6.025  -0.021 125.988  0.00  0.00    +0.012 C 
ATOM      3  C   LIG A   1      -6.515  -1.414 126.270  0.00  0.00    -0.063 C 
ATOM      4  C   LIG A   1      -7.047  -1.527 127.500  0.00  0.00    -0.067 C 
ATOM      5  C   LIG A   1      -7.617  -2.803 128.068  0.00  0.00    +0.012 C 
ATOM      6  C   LIG A   1      -8.800  -3.303 127.212  0.00  0.00    +0.012 C 
ATOM      7  C   LIG A   1      -8.359  -3.988 125.909  0.00  0.00    +0.031 C 
ATOM      8  C   LIG A   1      -7.739  -3.079 124.851  0.00  0.00    -0.067 C 
ATOM      9  C   LIG A   1      -6.379  -2.534 125.277  0.00  0.00    +0.061 C 
ATOM     10  C   LIG A   1      -8.315  -2.839 123.643  0.00  0.00    -0.076 C 
ATOM     11  C   LIG A   1      -7.660  -2.077 122.512  0.00  0.00    +0.038 C 
ATOM     12  C   LIG A   1      -9.706  -3.284 123.249  0.00  0.00    +0.038 C 
ATOM     13  C   LIG A   1      -8.033  -2.689 129.539  0.00  0.00    +0.012 C 
ATOM     14  C   LIG A   1      -7.040  -0.228 128.234  0.00  0.00    +0.031 C 
ATOM     15  C   LIG A   1      -6.401   0.759 127.259  0.00  0.00    +0.012 C 
ENDROOT
TORSDOF 0
ENDMDL
MODEL 4
REMARK VINA RESULT:      -6.1      1.533      5.217
REMARK  Name = NuBBE_1754
REMARK  4 active torsions:
REMARK  status: ('A' for Active; 'I' for Inactive)
REMARK    1  A    between atoms: C_1  and  C_2
REMARK    2  A    between atoms: C_6  and  C_15
REMARK    3  A    between atoms: C_12  and  C_13
REMARK    4  A    between atoms: C_12  and  C_14
REMARK                            x       y       z     vdW  Elec       q    Type
REMARK                         _______ _______ _______ _____ _____    ______ ____
ROOT
ATOM      1  C   LIG A   1      -9.798   0.703 123.212  0.00  0.00    +0.012 C 
ATOM      2  C   LIG A   1      -8.456   1.429 123.223  0.00  0.00    +0.012 C 
ATOM      3  C   LIG A   1      -7.315   0.618 123.769  0.00  0.00    -0.063 C 
ATOM      4  C   LIG A   1      -6.706   1.228 124.802  0.00  0.00    -0.067 C 
ATOM      5  C   LIG A   1      -5.527   0.662 125.553  0.00  0.00    +0.012 C 
ATOM      6  C   LIG A   1      -5.893  -0.686 126.209  0.00  0.00    +0.012 C 
ATOM      7  C   LIG A   1      -5.922  -1.857 125.214  0.00  0.00    +0.031 C 
ATOM      8  C   LIG A   1      -7.055  -1.839 124.192  0.00  0.00    -0.067 C 
ATOM      9  C   LIG A   1      -6.909  -0.704 123.182  0.00  0.00    +0.061 C 
ATOM     10  C   LIG A   1      -8.045  -2.771 124.157  0.00  0.00    -0.076 C 
ATOM     11  C   LIG A   1      -9.089  -2.879 123.068  0.00  0.00    +0.038 C 
ATOM     12  C   LIG A   1      -8.263  -3.836 125.210  0.00  0.00    +0.038 C 
ATOM     13  C   LIG A   1      -4.942   1.621 126.595  0.00  0.00    +0.012 C 
ATOM     14  C   LIG A   1      -7.357   2.526 125.146  0.00  0.00    +0.031 C 
ATOM     15  C   LIG A   1      -8.503   2.657 124.145  0.00  0.00    +0.012 C 
ENDROOT
TORSDOF 0
ENDMDL
MODEL 5
REMARK VINA RESULT:      -6.0      1.177      3.431
REMARK  Name = NuBBE_1754
REMARK  4 active torsions:
REMARK  status: ('A' for Active; 'I' for Inactive)
REMARK    1  A    between atoms: C_1  and  C_2
REMARK    2  A    between atoms: C_6  and  C_15
REMARK    3  A    between atoms: C_12  and  C_13
REMARK    4  A    between atoms: C_12  and  C_14
REMARK                            x       y       z     vdW  Elec       q    Type
REMARK                         _______ _______ _______ _____ _____    ______ ____
ROOT
ATOM      1  C   LIG A   1      -7.947  -1.269 122.915  0.00  0.00    +0.012 C 
ATOM      2  C   LIG A   1      -8.961  -1.860 123.889  0.00  0.00    +0.012 C 
ATOM      3  C   LIG A   1      -8.760  -1.452 125.321  0.00  0.00    -0.063 C 
ATOM      4  C   LIG A   1      -8.612  -2.512 126.136  0.00  0.00    -0.067 C 
ATOM      5  C   LIG A   1      -8.398  -2.419 127.626  0.00  0.00    +0.012 C 
ATOM      6  C   LIG A   1      -7.101  -1.646 127.945  0.00  0.00    +0.012 C 
ATOM      7  C   LIG A   1      -7.248  -0.124 127.792  0.00  0.00    +0.031 C 
ATOM      8  C   LIG A   1      -7.421   0.392 126.366  0.00  0.00    -0.067 C 
ATOM      9  C   LIG A   1      -8.761  -0.014 125.759  0.00  0.00    +0.061 C 
ATOM     10  C   LIG A   1      -6.504   1.176 125.739  0.00  0.00    -0.076 C 
ATOM     11  C   LIG A   1      -6.710   1.836 124.394  0.00  0.00    +0.038 C 
ATOM     12  C   LIG A   1      -5.130   1.499 126.285  0.00  0.00    +0.038 C 
ATOM     13  C   LIG A   1      -8.398  -3.778 128.334  0.00  0.00    +0.012 C 
ATOM     14  C   LIG A   1      -8.650  -3.802 125.388  0.00  0.00    +0.031 C 
ATOM     15  C   LIG A   1      -8.855  -3.393 123.930  0.00  0.00    +0.012 C 
ENDROOT
TORSDOF 0
ENDMDL
MODEL 6
REMARK VINA RESULT:      -6.0      1.166      3.872
REMARK  Name = NuBBE_1754
REMARK  4 active torsions:
REMARK  status: ('A' for Active; 'I' for Inactive)
REMARK    1  A    between atoms: C_1  and  C_2
REMARK    2  A    between atoms: C_6  and  C_15
REMARK    3  A    between atoms: C_12  and  C_13
REMARK    4  A    between atoms: C_12  and  C_14
REMARK                            x       y       z     vdW  Elec       q    Type
REMARK                         _______ _______ _______ _____ _____    ______ ____
ROOT
ATOM      1  C   LIG A   1      -5.622   0.581 125.803  0.00  0.00    +0.012 C 
ATOM      2  C   LIG A   1      -6.970   0.479 125.096  0.00  0.00    +0.012 C 
ATOM      3  C   LIG A   1      -7.867  -0.607 125.619  0.00  0.00    -0.063 C 
ATOM      4  C   LIG A   1      -8.239  -1.469 124.654  0.00  0.00    -0.067 C 
ATOM      5  C   LIG A   1      -9.139  -2.658 124.874  0.00  0.00    +0.012 C 
ATOM      6  C   LIG A   1      -8.513  -3.638 125.889  0.00  0.00    +0.012 C 
ATOM      7  C   LIG A   1      -8.646  -3.170 127.346  0.00  0.00    +0.031 C 
ATOM      8  C   LIG A   1      -7.816  -1.950 127.735  0.00  0.00    -0.067 C 
ATOM      9  C   LIG A   1      -8.304  -0.673 127.056  0.00  0.00    +0.061 C 
ATOM     10  C   LIG A   1      -6.798  -1.995 128.635  0.00  0.00    -0.076 C 
ATOM     11  C   LIG A   1      -6.060  -0.786 129.165  0.00  0.00    +0.038 C 
ATOM     12  C   LIG A   1      -6.236  -3.265 129.236  0.00  0.00    +0.038 C 
ATOM     13  C   LIG A   1      -9.514  -3.394 123.583  0.00  0.00    +0.012 C 
ATOM     14  C   LIG A   1      -7.627  -1.129 123.337  0.00  0.00    +0.031 C 
ATOM     15  C   LIG A   1      -6.787   0.116 123.614  0.00  0.00    +0.012 C 
ENDROOT
TORSDOF 0
ENDMDL
MODEL 7
REMARK VINA RESULT:      -5.8      7.361      9.264
REMARK  Name = NuBBE_1754
REMARK  4 active torsions:
REMARK  status: ('A' for Active; 'I' for Inactive)
REMARK    1  A    between atoms: C_1  and  C_2
REMARK    2  A    between atoms: C_6  and  C_15
REMARK    3  A    between atoms: C_12  and  C_13
REMARK    4  A    between atoms: C_12  and  C_14
REMARK                            x       y       z     vdW  Elec       q    Type
REMARK                         _______ _______ _______ _____ _____    ______ ____
ROOT
ATOM      1  C   LIG A   1     -10.220   3.072 130.719  0.00  0.00    +0.012 C 
ATOM      2  C   LIG A   1      -9.942   2.375 132.047  0.00  0.00    +0.012 C 
ATOM      3  C   LIG A   1      -8.892   3.039 132.891  0.00  0.00    -0.063 C 
ATOM      4  C   LIG A   1      -7.883   2.203 133.199  0.00  0.00    -0.067 C 
ATOM      5  C   LIG A   1      -6.687   2.582 134.036  0.00  0.00    +0.012 C 
ATOM      6  C   LIG A   1      -5.897   3.731 133.374  0.00  0.00    +0.012 C 
ATOM      7  C   LIG A   1      -6.559   5.106 133.556  0.00  0.00    +0.031 C 
ATOM      8  C   LIG A   1      -7.867   5.325 132.801  0.00  0.00    -0.067 C 
ATOM      9  C   LIG A   1      -9.005   4.467 133.347  0.00  0.00    +0.061 C 
ATOM     10  C   LIG A   1      -8.007   6.231 131.797  0.00  0.00    -0.076 C 
ATOM     11  C   LIG A   1      -9.320   6.590 131.136  0.00  0.00    +0.038 C 
ATOM     12  C   LIG A   1      -6.869   7.011 131.176  0.00  0.00    +0.038 C 
ATOM     13  C   LIG A   1      -5.756   1.406 134.347  0.00  0.00    +0.012 C 
ATOM     14  C   LIG A   1      -8.066   0.856 132.585  0.00  0.00    +0.031 C 
ATOM     15  C   LIG A   1      -9.385   0.961 131.819  0.00  0.00    +0.012 C 
ENDROOT
TORSDOF 0
ENDMDL
MODEL 8
REMARK VINA RESULT:      -5.7      8.633      9.722
REMARK  Name = NuBBE_1754
REMARK  4 active torsions:
REMARK  status: ('A' for Active; 'I' for Inactive)
REMARK    1  A    between atoms: C_1  and  C_2
REMARK    2  A    between atoms: C_6  and  C_15
REMARK    3  A    between atoms: C_12  and  C_13
REMARK    4  A    between atoms: C_12  and  C_14
REMARK                            x       y       z     vdW  Elec       q    Type
REMARK                         _______ _______ _______ _____ _____    ______ ____
ROOT
ATOM      1  C   LIG A   1      -9.355   3.036 133.312  0.00  0.00    +0.012 C 
ATOM      2  C   LIG A   1      -7.943   3.282 133.835  0.00  0.00    +0.012 C 
ATOM      3  C   LIG A   1      -7.250   4.465 133.220  0.00  0.00    -0.063 C 
ATOM      4  C   LIG A   1      -6.079   4.127 132.648  0.00  0.00    -0.067 C 
ATOM      5  C   LIG A   1      -5.157   5.099 131.955  0.00  0.00    +0.012 C 
ATOM      6  C   LIG A   1      -5.865   5.765 130.756  0.00  0.00    +0.012 C 
ATOM      7  C   LIG A   1      -6.848   6.871 131.169  0.00  0.00    +0.031 C 
ATOM      8  C   LIG A   1      -8.110   6.409 131.892  0.00  0.00    -0.067 C 
ATOM      9  C   LIG A   1      -7.814   5.856 133.283  0.00  0.00    +0.061 C 
ATOM     10  C   LIG A   1      -9.359   6.538 131.371  0.00  0.00    -0.076 C 
ATOM     11  C   LIG A   1     -10.640   6.242 132.118  0.00  0.00    +0.038 C 
ATOM     12  C   LIG A   1      -9.660   6.985 129.957  0.00  0.00    +0.038 C 
ATOM     13  C   LIG A   1      -3.828   4.478 131.513  0.00  0.00    +0.012 C 
ATOM     14  C   LIG A   1      -5.810   2.663 132.749  0.00  0.00    +0.031 C 
ATOM     15  C   LIG A   1      -7.018   2.102 133.496  0.00  0.00    +0.012 C 
ENDROOT
TORSDOF 0
ENDMDL
MODEL 9
REMARK VINA RESULT:      -5.7      1.665      1.877
REMARK  Name = NuBBE_1754
REMARK  4 active torsions:
REMARK  status: ('A' for Active; 'I' for Inactive)
REMARK    1  A    between atoms: C_1  and  C_2
REMARK    2  A    between atoms: C_6  and  C_15
REMARK    3  A    between atoms: C_12  and  C_13
REMARK    4  A    between atoms: C_12  and  C_14
REMARK                            x       y       z     vdW  Elec       q    Type
REMARK                         _______ _______ _______ _____ _____    ______ ____
ROOT
ATOM      1  C   LIG A   1      -7.953  -1.851 130.099  0.00  0.00    +0.012 C 
ATOM      2  C   LIG A   1      -7.584  -2.846 129.002  0.00  0.00    +0.012 C 
ATOM      3  C   LIG A   1      -7.379  -2.230 127.647  0.00  0.00    -0.063 C 
ATOM      4  C   LIG A   1      -8.180  -2.776 126.713  0.00  0.00    -0.067 C 
ATOM      5  C   LIG A   1      -8.198  -2.368 125.261  0.00  0.00    +0.012 C 
ATOM      6  C   LIG A   1      -8.583  -0.881 125.116  0.00  0.00    +0.012 C 
ATOM      7  C   LIG A   1      -7.431   0.080 125.452  0.00  0.00    +0.031 C 
ATOM      8  C   LIG A   1      -7.018   0.141 126.920  0.00  0.00    -0.067 C 
ATOM      9  C   LIG A   1      -6.362  -1.152 127.394  0.00  0.00    +0.061 C 
ATOM     10  C   LIG A   1      -7.166   1.251 127.691  0.00  0.00    -0.076 C 
ATOM     11  C   LIG A   1      -6.625   1.403 129.096  0.00  0.00    +0.038 C 
ATOM     12  C   LIG A   1      -7.906   2.501 127.269  0.00  0.00    +0.038 C 
ATOM     13  C   LIG A   1      -9.105  -3.242 124.388  0.00  0.00    +0.012 C 
ATOM     14  C   LIG A   1      -9.080  -3.817 127.289  0.00  0.00    +0.031 C 
ATOM     15  C   LIG A   1      -8.719  -3.857 128.773  0.00  0.00    +0.012 C 
ENDROOT
TORSDOF 0
ENDMDL
