MODEL 1
REMARK VINA RESULT:      -6.9      0.000      0.000
REMARK  Name = NuBBE_1628
REMARK  17 active torsions:
REMARK  status: ('A' for Active; 'I' for Inactive)
REMARK    1  A    between atoms: C_1  and  C_2
REMARK    2  A    between atoms: C_1  and  C_6
REMARK    3  A    between atoms: C_2  and  O_4
REMARK    4  A    between atoms: O_4  and  C_5
REMARK    5  A    between atoms: C_6  and  C_7
REMARK    6  A    between atoms: C_7  and  C_8
REMARK    7  A    between atoms: C_9  and  C_10
REMARK    8  A    between atoms: C_9  and  C_21
REMARK    9  A    between atoms: C_10  and  C_11
REMARK   10  A    between atoms: C_11  and  C_12
REMARK   11  A    between atoms: C_13  and  C_14
REMARK   12  A    between atoms: C_13  and  C_20
REMARK   13  A    between atoms: C_14  and  C_15
REMARK   14  A    between atoms: C_15  and  C_16
REMARK   15  A    between atoms: C_17  and  C_18
REMARK   16  A    between atoms: C_17  and  C_19
REMARK   17  A    between atoms: C_26  and  O_29
REMARK                            x       y       z     vdW  Elec       q    Type
REMARK                         _______ _______ _______ _____ _____    ______ ____
ROOT
ATOM      1  C   LIG A   1      -6.424  -0.439 124.104  0.00  0.00    +0.042 C 
ENDROOT
BRANCH   1   2
ATOM      2  C   LIG A   1      -6.842   0.964 124.667  0.00  0.00    +0.049 C 
ATOM      3  C   LIG A   1      -5.821   1.381 125.733  0.00  0.00    +0.163 C 
ATOM      4  O   LIG A   1      -5.593   0.681 126.720  0.00  0.00    -0.292 OA
ATOM      5  C   LIG A   1      -5.153   2.695 125.657  0.00  0.00    +0.045 C 
ATOM      6  C   LIG A   1      -5.520   3.614 124.760  0.00  0.00    +0.007 C 
ATOM      7  C   LIG A   1      -6.537   3.408 123.693  0.00  0.00    +0.139 C 
ATOM      8  C   LIG A   1      -6.989   1.961 123.482  0.00  0.00    +0.051 C 
BRANCH   7   9
ATOM      9  O   LIG A   1      -7.659   4.240 123.943  0.00  0.00    -0.388 OA
ATOM     10  H   LIG A   1      -8.461   3.694 123.810  0.00  0.00    +0.210 HD
ENDBRANCH   7   9
BRANCH   2  11
ATOM     11  C   LIG A   1      -8.197   0.751 125.409  0.00  0.00    +0.135 C 
BRANCH  11  12
ATOM     12  C   LIG A   1      -9.411   1.342 124.731  0.00  0.00    +0.308 C 
ATOM     13  O   LIG A   1      -9.750   2.532 124.782  0.00  0.00    -0.251 OA
BRANCH  12  14
ATOM     14  O   LIG A   1     -10.088   0.385 124.058  0.00  0.00    -0.468 OA
ATOM     15  C   LIG A   1     -10.153   0.598 122.645  0.00  0.00    +0.280 C 
ENDBRANCH  12  14
ENDBRANCH  11  12
ENDBRANCH   2  11
ENDBRANCH   1   2
BRANCH   1  16
ATOM     16  C   LIG A   1      -7.274  -1.602 124.561  0.00  0.00    -0.027 C 
ATOM     17  C   LIG A   1      -6.927  -2.902 124.630  0.00  0.00    -0.076 C 
ATOM     18  C   LIG A   1      -5.572  -3.459 124.289  0.00  0.00    +0.038 C 
BRANCH  17  19
ATOM     19  C   LIG A   1      -7.939  -3.933 125.083  0.00  0.00    +0.034 C 
BRANCH  19  20
ATOM     20  C   LIG A   1      -8.996  -3.340 126.030  0.00  0.00    +0.031 C 
BRANCH  20  21
ATOM     21  C   LIG A   1      -8.693  -3.703 127.456  0.00  0.00    -0.027 C 
ATOM     22  C   LIG A   1      -8.163  -2.894 128.395  0.00  0.00    -0.076 C 
ATOM     23  C   LIG A   1      -7.842  -1.441 128.145  0.00  0.00    +0.038 C 
BRANCH  22  24
ATOM     24  C   LIG A   1      -7.845  -3.365 129.807  0.00  0.00    +0.034 C 
BRANCH  24  25
ATOM     25  C   LIG A   1      -6.558  -4.193 129.977  0.00  0.00    +0.031 C 
BRANCH  25  26
ATOM     26  C   LIG A   1      -5.382  -3.375 130.426  0.00  0.00    -0.028 C 
ATOM     27  C   LIG A   1      -4.466  -2.775 129.644  0.00  0.00    -0.080 C 
ATOM     28  C   LIG A   1      -4.488  -2.764 128.139  0.00  0.00    +0.038 C 
ATOM     29  C   LIG A   1      -3.290  -2.068 130.261  0.00  0.00    +0.038 C 
ENDBRANCH  25  26
ENDBRANCH  24  25
ENDBRANCH  22  24
ENDBRANCH  20  21
ENDBRANCH  19  20
ENDBRANCH  17  19
ENDBRANCH   1  16
TORSDOF 12
ENDMDL
MODEL 2
REMARK VINA RESULT:      -6.9      4.860      8.614
REMARK  Name = NuBBE_1628
REMARK  17 active torsions:
REMARK  status: ('A' for Active; 'I' for Inactive)
REMARK    1  A    between atoms: C_1  and  C_2
REMARK    2  A    between atoms: C_1  and  C_6
REMARK    3  A    between atoms: C_2  and  O_4
REMARK    4  A    between atoms: O_4  and  C_5
REMARK    5  A    between atoms: C_6  and  C_7
REMARK    6  A    between atoms: C_7  and  C_8
REMARK    7  A    between atoms: C_9  and  C_10
REMARK    8  A    between atoms: C_9  and  C_21
REMARK    9  A    between atoms: C_10  and  C_11
REMARK   10  A    between atoms: C_11  and  C_12
REMARK   11  A    between atoms: C_13  and  C_14
REMARK   12  A    between atoms: C_13  and  C_20
REMARK   13  A    between atoms: C_14  and  C_15
REMARK   14  A    between atoms: C_15  and  C_16
REMARK   15  A    between atoms: C_17  and  C_18
REMARK   16  A    between atoms: C_17  and  C_19
REMARK   17  A    between atoms: C_26  and  O_29
REMARK                            x       y       z     vdW  Elec       q    Type
REMARK                         _______ _______ _______ _____ _____    ______ ____
ROOT
ATOM      1  C   LIG A   1      -5.461  -4.821 131.156  0.00  0.00    +0.042 C 
ENDROOT
BRANCH   1   2
ATOM      2  C   LIG A   1      -5.531  -4.162 132.577  0.00  0.00    +0.049 C 
ATOM      3  C   LIG A   1      -4.190  -3.470 132.854  0.00  0.00    +0.163 C 
ATOM      4  O   LIG A   1      -3.125  -4.087 132.827  0.00  0.00    -0.292 OA
ATOM      5  C   LIG A   1      -4.150  -2.053 133.270  0.00  0.00    +0.045 C 
ATOM      6  C   LIG A   1      -5.264  -1.380 133.561  0.00  0.00    +0.007 C 
ATOM      7  C   LIG A   1      -6.647  -1.911 133.414  0.00  0.00    +0.139 C 
ATOM      8  C   LIG A   1      -6.771  -3.224 132.640  0.00  0.00    +0.051 C 
BRANCH   7   9
ATOM      9  O   LIG A   1      -7.243  -2.039 134.696  0.00  0.00    -0.388 OA
ATOM     10  H   LIG A   1      -6.871  -1.329 135.261  0.00  0.00    +0.210 HD
ENDBRANCH   7   9
BRANCH   2  11
ATOM     11  C   LIG A   1      -5.645  -5.334 133.599  0.00  0.00    +0.135 C 
BRANCH  11  12
ATOM     12  C   LIG A   1      -6.350  -5.003 134.894  0.00  0.00    +0.308 C 
ATOM     13  O   LIG A   1      -7.546  -5.215 135.131  0.00  0.00    -0.251 OA
BRANCH  12  14
ATOM     14  O   LIG A   1      -5.489  -4.433 135.767  0.00  0.00    -0.468 OA
ATOM     15  C   LIG A   1      -6.000  -4.312 137.098  0.00  0.00    +0.280 C 
ENDBRANCH  12  14
ENDBRANCH  11  12
ENDBRANCH   2  11
ENDBRANCH   1   2
BRANCH   1  16
ATOM     16  C   LIG A   1      -5.779  -3.904 129.998  0.00  0.00    -0.027 C 
ATOM     17  C   LIG A   1      -4.911  -3.250 129.200  0.00  0.00    -0.076 C 
ATOM     18  C   LIG A   1      -3.413  -3.341 129.288  0.00  0.00    +0.038 C 
BRANCH  17  19
ATOM     19  C   LIG A   1      -5.427  -2.340 128.106  0.00  0.00    +0.034 C 
BRANCH  19  20
ATOM     20  C   LIG A   1      -6.821  -1.774 128.423  0.00  0.00    +0.031 C 
BRANCH  20  21
ATOM     21  C   LIG A   1      -7.727  -1.898 127.230  0.00  0.00    -0.027 C 
ATOM     22  C   LIG A   1      -8.594  -2.900 126.981  0.00  0.00    -0.076 C 
ATOM     23  C   LIG A   1      -8.819  -4.049 127.931  0.00  0.00    +0.038 C 
BRANCH  22  24
ATOM     24  C   LIG A   1      -9.439  -2.964 125.717  0.00  0.00    +0.034 C 
BRANCH  24  25
ATOM     25  C   LIG A   1      -8.681  -2.846 124.381  0.00  0.00    +0.031 C 
BRANCH  25  26
ATOM     26  C   LIG A   1      -7.444  -3.696 124.324  0.00  0.00    -0.028 C 
ATOM     27  C   LIG A   1      -6.176  -3.271 124.171  0.00  0.00    -0.080 C 
ATOM     28  C   LIG A   1      -5.751  -1.830 124.087  0.00  0.00    +0.038 C 
ATOM     29  C   LIG A   1      -5.056  -4.267 124.039  0.00  0.00    +0.038 C 
ENDBRANCH  25  26
ENDBRANCH  24  25
ENDBRANCH  22  24
ENDBRANCH  20  21
ENDBRANCH  19  20
ENDBRANCH  17  19
ENDBRANCH   1  16
TORSDOF 12
ENDMDL
MODEL 3
REMARK VINA RESULT:      -6.9      5.314      7.005
REMARK  Name = NuBBE_1628
REMARK  17 active torsions:
REMARK  status: ('A' for Active; 'I' for Inactive)
REMARK    1  A    between atoms: C_1  and  C_2
REMARK    2  A    between atoms: C_1  and  C_6
REMARK    3  A    between atoms: C_2  and  O_4
REMARK    4  A    between atoms: O_4  and  C_5
REMARK    5  A    between atoms: C_6  and  C_7
REMARK    6  A    between atoms: C_7  and  C_8
REMARK    7  A    between atoms: C_9  and  C_10
REMARK    8  A    between atoms: C_9  and  C_21
REMARK    9  A    between atoms: C_10  and  C_11
REMARK   10  A    between atoms: C_11  and  C_12
REMARK   11  A    between atoms: C_13  and  C_14
REMARK   12  A    between atoms: C_13  and  C_20
REMARK   13  A    between atoms: C_14  and  C_15
REMARK   14  A    between atoms: C_15  and  C_16
REMARK   15  A    between atoms: C_17  and  C_18
REMARK   16  A    between atoms: C_17  and  C_19
REMARK   17  A    between atoms: C_26  and  O_29
REMARK                            x       y       z     vdW  Elec       q    Type
REMARK                         _______ _______ _______ _____ _____    ______ ____
ROOT
ATOM      1  C   LIG A   1      -7.727   3.591 130.285  0.00  0.00    +0.042 C 
ENDROOT
BRANCH   1   2
ATOM      2  C   LIG A   1      -8.796   4.024 131.348  0.00  0.00    +0.049 C 
ATOM      3  C   LIG A   1      -8.800   2.988 132.479  0.00  0.00    +0.163 C 
ATOM      4  O   LIG A   1      -9.011   1.794 132.263  0.00  0.00    -0.292 OA
ATOM      5  C   LIG A   1      -8.654   3.413 133.885  0.00  0.00    +0.045 C 
ATOM      6  C   LIG A   1      -8.666   4.703 134.229  0.00  0.00    +0.007 C 
ATOM      7  C   LIG A   1      -8.723   5.842 133.272  0.00  0.00    +0.139 C 
ATOM      8  C   LIG A   1      -8.497   5.481 131.803  0.00  0.00    +0.051 C 
BRANCH   7   9
ATOM      9  O   LIG A   1      -9.956   6.527 133.425  0.00  0.00    -0.388 OA
ATOM     10  H   LIG A   1     -10.532   5.965 133.985  0.00  0.00    +0.210 HD
ENDBRANCH   7   9
BRANCH   2  11
ATOM     11  C   LIG A   1     -10.183   3.916 130.642  0.00  0.00    +0.135 C 
BRANCH  11  12
ATOM     12  C   LIG A   1     -10.863   5.231 130.339  0.00  0.00    +0.308 C 
ATOM     13  O   LIG A   1     -11.663   5.810 131.084  0.00  0.00    -0.251 OA
BRANCH  12  14
ATOM     14  O   LIG A   1     -10.478   5.692 129.128  0.00  0.00    -0.468 OA
ATOM     15  C   LIG A   1     -10.833   7.056 128.881  0.00  0.00    +0.280 C 
ENDBRANCH  12  14
ENDBRANCH  11  12
ENDBRANCH   2  11
ENDBRANCH   1   2
BRANCH   1  16
ATOM     16  C   LIG A   1      -8.280   2.973 129.022  0.00  0.00    -0.027 C 
ATOM     17  C   LIG A   1      -8.147   1.701 128.598  0.00  0.00    -0.076 C 
ATOM     18  C   LIG A   1      -7.433   0.607 129.343  0.00  0.00    +0.038 C 
BRANCH  17  19
ATOM     19  C   LIG A   1      -8.749   1.277 127.275  0.00  0.00    +0.034 C 
BRANCH  19  20
ATOM     20  C   LIG A   1      -7.796   0.393 126.454  0.00  0.00    +0.031 C 
BRANCH  20  21
ATOM     21  C   LIG A   1      -8.550  -0.724 125.789  0.00  0.00    -0.027 C 
ATOM     22  C   LIG A   1      -8.670  -1.990 126.238  0.00  0.00    -0.076 C 
ATOM     23  C   LIG A   1      -8.088  -2.457 127.549  0.00  0.00    +0.038 C 
BRANCH  22  24
ATOM     24  C   LIG A   1      -9.416  -3.071 125.469  0.00  0.00    +0.034 C 
BRANCH  24  25
ATOM     25  C   LIG A   1      -8.768  -3.544 124.154  0.00  0.00    +0.031 C 
BRANCH  25  26
ATOM     26  C   LIG A   1      -7.293  -3.791 124.274  0.00  0.00    -0.028 C 
ATOM     27  C   LIG A   1      -6.303  -3.081 123.701  0.00  0.00    -0.080 C 
ATOM     28  C   LIG A   1      -6.497  -1.847 122.864  0.00  0.00    +0.038 C 
ATOM     29  C   LIG A   1      -4.872  -3.523 123.849  0.00  0.00    +0.038 C 
ENDBRANCH  25  26
ENDBRANCH  24  25
ENDBRANCH  22  24
ENDBRANCH  20  21
ENDBRANCH  19  20
ENDBRANCH  17  19
ENDBRANCH   1  16
TORSDOF 12
ENDMDL
MODEL 4
REMARK VINA RESULT:      -6.8      2.030      4.461
REMARK  Name = NuBBE_1628
REMARK  17 active torsions:
REMARK  status: ('A' for Active; 'I' for Inactive)
REMARK    1  A    between atoms: C_1  and  C_2
REMARK    2  A    between atoms: C_1  and  C_6
REMARK    3  A    between atoms: C_2  and  O_4
REMARK    4  A    between atoms: O_4  and  C_5
REMARK    5  A    between atoms: C_6  and  C_7
REMARK    6  A    between atoms: C_7  and  C_8
REMARK    7  A    between atoms: C_9  and  C_10
REMARK    8  A    between atoms: C_9  and  C_21
REMARK    9  A    between atoms: C_10  and  C_11
REMARK   10  A    between atoms: C_11  and  C_12
REMARK   11  A    between atoms: C_13  and  C_14
REMARK   12  A    between atoms: C_13  and  C_20
REMARK   13  A    between atoms: C_14  and  C_15
REMARK   14  A    between atoms: C_15  and  C_16
REMARK   15  A    between atoms: C_17  and  C_18
REMARK   16  A    between atoms: C_17  and  C_19
REMARK   17  A    between atoms: C_26  and  O_29
REMARK                            x       y       z     vdW  Elec       q    Type
REMARK                         _______ _______ _______ _____ _____    ______ ____
ROOT
ATOM      1  C   LIG A   1      -5.026   2.421 125.653  0.00  0.00    +0.042 C 
ENDROOT
BRANCH   1   2
ATOM      2  C   LIG A   1      -6.318   3.117 125.101  0.00  0.00    +0.049 C 
ATOM      3  C   LIG A   1      -5.994   3.714 123.725  0.00  0.00    +0.163 C 
ATOM      4  O   LIG A   1      -5.086   4.530 123.570  0.00  0.00    -0.292 OA
ATOM      5  C   LIG A   1      -6.840   3.401 122.555  0.00  0.00    +0.045 C 
ATOM      6  C   LIG A   1      -7.983   2.725 122.682  0.00  0.00    +0.007 C 
ATOM      7  C   LIG A   1      -8.488   2.129 123.949  0.00  0.00    +0.139 C 
ATOM      8  C   LIG A   1      -7.487   2.091 125.105  0.00  0.00    +0.051 C 
BRANCH   7   9
ATOM      9  O   LIG A   1      -9.673   2.799 124.348  0.00  0.00    -0.388 OA
ATOM     10  H   LIG A   1      -9.524   3.136 125.256  0.00  0.00    +0.210 HD
ENDBRANCH   7   9
BRANCH   2  11
ATOM     11  C   LIG A   1      -6.607   4.321 126.049  0.00  0.00    +0.135 C 
BRANCH  11  12
ATOM     12  C   LIG A   1      -8.053   4.502 126.449  0.00  0.00    +0.308 C 
ATOM     13  O   LIG A   1      -8.875   5.210 125.853  0.00  0.00    -0.251 OA
BRANCH  12  14
ATOM     14  O   LIG A   1      -8.328   3.784 127.560  0.00  0.00    -0.468 OA
ATOM     15  C   LIG A   1      -8.181   4.516 128.781  0.00  0.00    +0.280 C 
ENDBRANCH  12  14
ENDBRANCH  11  12
ENDBRANCH   2  11
ENDBRANCH   1   2
BRANCH   1  16
ATOM     16  C   LIG A   1      -5.230   1.042 126.236  0.00  0.00    -0.027 C 
ATOM     17  C   LIG A   1      -5.456   0.714 127.523  0.00  0.00    -0.076 C 
ATOM     18  C   LIG A   1      -5.593   1.692 128.657  0.00  0.00    +0.038 C 
BRANCH  17  19
ATOM     19  C   LIG A   1      -5.600  -0.740 127.920  0.00  0.00    +0.034 C 
BRANCH  19  20
ATOM     20  C   LIG A   1      -7.028  -1.088 128.368  0.00  0.00    +0.031 C 
BRANCH  20  21
ATOM     21  C   LIG A   1      -7.585  -2.213 127.541  0.00  0.00    -0.027 C 
ATOM     22  C   LIG A   1      -8.497  -2.110 126.555  0.00  0.00    -0.076 C 
ATOM     23  C   LIG A   1      -9.064  -0.790 126.091  0.00  0.00    +0.038 C 
BRANCH  22  24
ATOM     24  C   LIG A   1      -9.040  -3.317 125.803  0.00  0.00    +0.034 C 
BRANCH  24  25
ATOM     25  C   LIG A   1      -8.586  -3.471 124.339  0.00  0.00    +0.031 C 
BRANCH  25  26
ATOM     26  C   LIG A   1      -7.106  -3.678 124.197  0.00  0.00    -0.028 C 
ATOM     27  C   LIG A   1      -6.194  -2.768 123.805  0.00  0.00    -0.080 C 
ATOM     28  C   LIG A   1      -6.492  -1.327 123.488  0.00  0.00    +0.038 C 
ATOM     29  C   LIG A   1      -4.756  -3.167 123.624  0.00  0.00    +0.038 C 
ENDBRANCH  25  26
ENDBRANCH  24  25
ENDBRANCH  22  24
ENDBRANCH  20  21
ENDBRANCH  19  20
ENDBRANCH  17  19
ENDBRANCH   1  16
TORSDOF 12
ENDMDL
MODEL 5
REMARK VINA RESULT:      -6.8      1.556      3.236
REMARK  Name = NuBBE_1628
REMARK  17 active torsions:
REMARK  status: ('A' for Active; 'I' for Inactive)
REMARK    1  A    between atoms: C_1  and  C_2
REMARK    2  A    between atoms: C_1  and  C_6
REMARK    3  A    between atoms: C_2  and  O_4
REMARK    4  A    between atoms: O_4  and  C_5
REMARK    5  A    between atoms: C_6  and  C_7
REMARK    6  A    between atoms: C_7  and  C_8
REMARK    7  A    between atoms: C_9  and  C_10
REMARK    8  A    between atoms: C_9  and  C_21
REMARK    9  A    between atoms: C_10  and  C_11
REMARK   10  A    between atoms: C_11  and  C_12
REMARK   11  A    between atoms: C_13  and  C_14
REMARK   12  A    between atoms: C_13  and  C_20
REMARK   13  A    between atoms: C_14  and  C_15
REMARK   14  A    between atoms: C_15  and  C_16
REMARK   15  A    between atoms: C_17  and  C_18
REMARK   16  A    between atoms: C_17  and  C_19
REMARK   17  A    between atoms: C_26  and  O_29
REMARK                            x       y       z     vdW  Elec       q    Type
REMARK                         _______ _______ _______ _____ _____    ______ ____
ROOT
ATOM      1  C   LIG A   1      -7.519   0.955 123.438  0.00  0.00    +0.042 C 
ENDROOT
BRANCH   1   2
ATOM      2  C   LIG A   1      -7.505   1.840 124.733  0.00  0.00    +0.049 C 
ATOM      3  C   LIG A   1      -8.815   1.601 125.495  0.00  0.00    +0.163 C 
ATOM      4  O   LIG A   1      -9.913   1.794 124.972  0.00  0.00    -0.292 OA
ATOM      5  C   LIG A   1      -8.793   1.230 126.924  0.00  0.00    +0.045 C 
ATOM      6  C   LIG A   1      -7.660   1.239 127.630  0.00  0.00    +0.007 C 
ATOM      7  C   LIG A   1      -6.308   1.511 127.071  0.00  0.00    +0.139 C 
ATOM      8  C   LIG A   1      -6.215   1.530 125.544  0.00  0.00    +0.051 C 
BRANCH   7   9
ATOM      9  O   LIG A   1      -5.811   2.727 127.608  0.00  0.00    -0.388 OA
ATOM     10  H   LIG A   1      -6.537   3.384 127.558  0.00  0.00    +0.210 HD
ENDBRANCH   7   9
BRANCH   2  11
ATOM     11  C   LIG A   1      -7.537   3.322 124.249  0.00  0.00    +0.135 C 
BRANCH  11  12
ATOM     12  C   LIG A   1      -7.850   4.348 125.314  0.00  0.00    +0.308 C 
ATOM     13  O   LIG A   1      -8.987   4.706 125.648  0.00  0.00    -0.251 OA
BRANCH  12  14
ATOM     14  O   LIG A   1      -6.709   4.830 125.854  0.00  0.00    -0.468 OA
ATOM     15  C   LIG A   1      -5.667   5.070 124.903  0.00  0.00    +0.280 C 
ENDBRANCH  12  14
ENDBRANCH  11  12
ENDBRANCH   2  11
ENDBRANCH   1   2
BRANCH   1  16
ATOM     16  C   LIG A   1      -8.150  -0.410 123.591  0.00  0.00    -0.027 C 
ATOM     17  C   LIG A   1      -7.644  -1.601 123.217  0.00  0.00    -0.076 C 
ATOM     18  C   LIG A   1      -6.293  -1.812 122.590  0.00  0.00    +0.038 C 
BRANCH  17  19
ATOM     19  C   LIG A   1      -8.450  -2.865 123.424  0.00  0.00    +0.034 C 
BRANCH  19  20
ATOM     20  C   LIG A   1      -7.854  -3.770 124.515  0.00  0.00    +0.031 C 
BRANCH  20  21
ATOM     21  C   LIG A   1      -8.218  -3.263 125.882  0.00  0.00    -0.027 C 
ATOM     22  C   LIG A   1      -7.421  -2.573 126.722  0.00  0.00    -0.076 C 
ATOM     23  C   LIG A   1      -6.017  -2.152 126.364  0.00  0.00    +0.038 C 
BRANCH  22  24
ATOM     24  C   LIG A   1      -7.863  -2.143 128.113  0.00  0.00    +0.034 C 
BRANCH  24  25
ATOM     25  C   LIG A   1      -8.324  -3.265 129.062  0.00  0.00    +0.031 C 
BRANCH  25  26
ATOM     26  C   LIG A   1      -7.767  -3.134 130.450  0.00  0.00    -0.028 C 
ATOM     27  C   LIG A   1      -6.531  -3.473 130.863  0.00  0.00    -0.080 C 
ATOM     28  C   LIG A   1      -5.438  -4.002 129.974  0.00  0.00    +0.038 C 
ATOM     29  C   LIG A   1      -6.163  -3.364 132.317  0.00  0.00    +0.038 C 
ENDBRANCH  25  26
ENDBRANCH  24  25
ENDBRANCH  22  24
ENDBRANCH  20  21
ENDBRANCH  19  20
ENDBRANCH  17  19
ENDBRANCH   1  16
TORSDOF 12
ENDMDL
MODEL 6
REMARK VINA RESULT:      -6.7      4.431      7.853
REMARK  Name = NuBBE_1628
REMARK  17 active torsions:
REMARK  status: ('A' for Active; 'I' for Inactive)
REMARK    1  A    between atoms: C_1  and  C_2
REMARK    2  A    between atoms: C_1  and  C_6
REMARK    3  A    between atoms: C_2  and  O_4
REMARK    4  A    between atoms: O_4  and  C_5
REMARK    5  A    between atoms: C_6  and  C_7
REMARK    6  A    between atoms: C_7  and  C_8
REMARK    7  A    between atoms: C_9  and  C_10
REMARK    8  A    between atoms: C_9  and  C_21
REMARK    9  A    between atoms: C_10  and  C_11
REMARK   10  A    between atoms: C_11  and  C_12
REMARK   11  A    between atoms: C_13  and  C_14
REMARK   12  A    between atoms: C_13  and  C_20
REMARK   13  A    between atoms: C_14  and  C_15
REMARK   14  A    between atoms: C_15  and  C_16
REMARK   15  A    between atoms: C_17  and  C_18
REMARK   16  A    between atoms: C_17  and  C_19
REMARK   17  A    between atoms: C_26  and  O_29
REMARK                            x       y       z     vdW  Elec       q    Type
REMARK                         _______ _______ _______ _____ _____    ______ ____
ROOT
ATOM      1  C   LIG A   1      -7.231  -2.829 131.150  0.00  0.00    +0.042 C 
ENDROOT
BRANCH   1   2
ATOM      2  C   LIG A   1      -5.723  -3.128 131.463  0.00  0.00    +0.049 C 
ATOM      3  C   LIG A   1      -5.233  -4.206 130.488  0.00  0.00    +0.163 C 
ATOM      4  O   LIG A   1      -5.780  -5.306 130.409  0.00  0.00    -0.292 OA
ATOM      5  C   LIG A   1      -4.013  -3.990 129.684  0.00  0.00    +0.045 C 
ATOM      6  C   LIG A   1      -3.223  -2.933 129.885  0.00  0.00    +0.007 C 
ATOM      7  C   LIG A   1      -3.507  -1.822 130.835  0.00  0.00    +0.139 C 
ATOM      8  C   LIG A   1      -4.922  -1.796 131.416  0.00  0.00    +0.051 C 
BRANCH   7   9
ATOM      9  O   LIG A   1      -2.548  -1.837 131.881  0.00  0.00    -0.388 OA
ATOM     10  H   LIG A   1      -2.611  -2.711 132.319  0.00  0.00    +0.210 HD
ENDBRANCH   7   9
BRANCH   2  11
ATOM     11  C   LIG A   1      -5.690  -3.768 132.885  0.00  0.00    +0.135 C 
BRANCH  11  12
ATOM     12  C   LIG A   1      -5.125  -2.893 133.980  0.00  0.00    +0.308 C 
ATOM     13  O   LIG A   1      -3.926  -2.799 134.272  0.00  0.00    -0.251 OA
BRANCH  12  14
ATOM     14  O   LIG A   1      -6.118  -2.223 134.607  0.00  0.00    -0.468 OA
ATOM     15  C   LIG A   1      -5.900  -0.812 134.705  0.00  0.00    +0.280 C 
ENDBRANCH  12  14
ENDBRANCH  11  12
ENDBRANCH   2  11
ENDBRANCH   1   2
BRANCH   1  16
ATOM     16  C   LIG A   1      -7.487  -2.042 129.886  0.00  0.00    -0.027 C 
ATOM     17  C   LIG A   1      -7.993  -2.491 128.721  0.00  0.00    -0.076 C 
ATOM     18  C   LIG A   1      -8.449  -3.900 128.458  0.00  0.00    +0.038 C 
BRANCH  17  19
ATOM     19  C   LIG A   1      -8.143  -1.548 127.546  0.00  0.00    +0.034 C 
BRANCH  19  20
ATOM     20  C   LIG A   1      -8.929  -2.177 126.385  0.00  0.00    +0.031 C 
BRANCH  20  21
ATOM     21  C   LIG A   1      -8.364  -1.740 125.063  0.00  0.00    -0.027 C 
ATOM     22  C   LIG A   1      -8.595  -2.309 123.863  0.00  0.00    -0.076 C 
ATOM     23  C   LIG A   1      -9.535  -3.473 123.671  0.00  0.00    +0.038 C 
BRANCH  22  24
ATOM     24  C   LIG A   1      -7.937  -1.824 122.579  0.00  0.00    +0.034 C 
BRANCH  24  25
ATOM     25  C   LIG A   1      -6.424  -1.544 122.650  0.00  0.00    +0.031 C 
BRANCH  25  26
ATOM     26  C   LIG A   1      -5.590  -2.793 122.682  0.00  0.00    -0.028 C 
ATOM     27  C   LIG A   1      -4.998  -3.345 123.757  0.00  0.00    -0.080 C 
ATOM     28  C   LIG A   1      -5.115  -2.833 125.167  0.00  0.00    +0.038 C 
ATOM     29  C   LIG A   1      -4.116  -4.553 123.597  0.00  0.00    +0.038 C 
ENDBRANCH  25  26
ENDBRANCH  24  25
ENDBRANCH  22  24
ENDBRANCH  20  21
ENDBRANCH  19  20
ENDBRANCH  17  19
ENDBRANCH   1  16
TORSDOF 12
ENDMDL
MODEL 7
REMARK VINA RESULT:      -6.7      1.570      2.262
REMARK  Name = NuBBE_1628
REMARK  17 active torsions:
REMARK  status: ('A' for Active; 'I' for Inactive)
REMARK    1  A    between atoms: C_1  and  C_2
REMARK    2  A    between atoms: C_1  and  C_6
REMARK    3  A    between atoms: C_2  and  O_4
REMARK    4  A    between atoms: O_4  and  C_5
REMARK    5  A    between atoms: C_6  and  C_7
REMARK    6  A    between atoms: C_7  and  C_8
REMARK    7  A    between atoms: C_9  and  C_10
REMARK    8  A    between atoms: C_9  and  C_21
REMARK    9  A    between atoms: C_10  and  C_11
REMARK   10  A    between atoms: C_11  and  C_12
REMARK   11  A    between atoms: C_13  and  C_14
REMARK   12  A    between atoms: C_13  and  C_20
REMARK   13  A    between atoms: C_14  and  C_15
REMARK   14  A    between atoms: C_15  and  C_16
REMARK   15  A    between atoms: C_17  and  C_18
REMARK   16  A    between atoms: C_17  and  C_19
REMARK   17  A    between atoms: C_26  and  O_29
REMARK                            x       y       z     vdW  Elec       q    Type
REMARK                         _______ _______ _______ _____ _____    ______ ____
ROOT
ATOM      1  C   LIG A   1      -6.809   1.244 123.135  0.00  0.00    +0.042 C 
ENDROOT
BRANCH   1   2
ATOM      2  C   LIG A   1      -6.838   2.354 124.243  0.00  0.00    +0.049 C 
ATOM      3  C   LIG A   1      -5.837   1.968 125.339  0.00  0.00    +0.163 C 
ATOM      4  O   LIG A   1      -5.915   0.896 125.941  0.00  0.00    -0.292 OA
ATOM      5  C   LIG A   1      -4.803   2.926 125.780  0.00  0.00    +0.045 C 
ATOM      6  C   LIG A   1      -4.799   4.192 125.358  0.00  0.00    +0.007 C 
ATOM      7  C   LIG A   1      -5.734   4.759 124.348  0.00  0.00    +0.139 C 
ATOM      8  C   LIG A   1      -6.576   3.737 123.581  0.00  0.00    +0.051 C 
BRANCH   7   9
ATOM      9  O   LIG A   1      -6.574   5.720 124.968  0.00  0.00    -0.388 OA
ATOM     10  H   LIG A   1      -7.415   5.737 124.465  0.00  0.00    +0.210 HD
ENDBRANCH   7   9
BRANCH   2  11
ATOM     11  C   LIG A   1      -8.254   2.287 124.893  0.00  0.00    +0.135 C 
BRANCH  11  12
ATOM     12  C   LIG A   1      -8.364   2.880 126.278  0.00  0.00    +0.308 C 
ATOM     13  O   LIG A   1      -8.158   4.066 126.566  0.00  0.00    -0.251 OA
BRANCH  12  14
ATOM     14  O   LIG A   1      -8.716   1.928 127.172  0.00  0.00    -0.468 OA
ATOM     15  C   LIG A   1      -9.264   0.746 126.581  0.00  0.00    +0.280 C 
ENDBRANCH  12  14
ENDBRANCH  11  12
ENDBRANCH   2  11
ENDBRANCH   1   2
BRANCH   1  16
ATOM     16  C   LIG A   1      -7.845   0.154 123.282  0.00  0.00    -0.027 C 
ATOM     17  C   LIG A   1      -7.698  -1.164 123.041  0.00  0.00    -0.076 C 
ATOM     18  C   LIG A   1      -6.422  -1.829 122.604  0.00  0.00    +0.038 C 
BRANCH  17  19
ATOM     19  C   LIG A   1      -8.874  -2.101 123.213  0.00  0.00    +0.034 C 
BRANCH  19  20
ATOM     20  C   LIG A   1      -8.485  -3.406 123.926  0.00  0.00    +0.031 C 
BRANCH  20  21
ATOM     21  C   LIG A   1      -8.888  -3.361 125.373  0.00  0.00    -0.027 C 
ATOM     22  C   LIG A   1      -8.119  -2.973 126.410  0.00  0.00    -0.076 C 
ATOM     23  C   LIG A   1      -6.711  -2.459 126.243  0.00  0.00    +0.038 C 
BRANCH  22  24
ATOM     24  C   LIG A   1      -8.600  -3.007 127.853  0.00  0.00    +0.034 C 
BRANCH  24  25
ATOM     25  C   LIG A   1      -7.603  -2.514 128.918  0.00  0.00    +0.031 C 
BRANCH  25  26
ATOM     26  C   LIG A   1      -7.099  -3.610 129.812  0.00  0.00    -0.028 C 
ATOM     27  C   LIG A   1      -5.815  -3.935 130.051  0.00  0.00    -0.080 C 
ATOM     28  C   LIG A   1      -4.621  -3.204 129.499  0.00  0.00    +0.038 C 
ATOM     29  C   LIG A   1      -5.483  -5.128 130.905  0.00  0.00    +0.038 C 
ENDBRANCH  25  26
ENDBRANCH  24  25
ENDBRANCH  22  24
ENDBRANCH  20  21
ENDBRANCH  19  20
ENDBRANCH  17  19
ENDBRANCH   1  16
TORSDOF 12
ENDMDL
MODEL 8
REMARK VINA RESULT:      -6.6      2.530      4.914
REMARK  Name = NuBBE_1628
REMARK  17 active torsions:
REMARK  status: ('A' for Active; 'I' for Inactive)
REMARK    1  A    between atoms: C_1  and  C_2
REMARK    2  A    between atoms: C_1  and  C_6
REMARK    3  A    between atoms: C_2  and  O_4
REMARK    4  A    between atoms: O_4  and  C_5
REMARK    5  A    between atoms: C_6  and  C_7
REMARK    6  A    between atoms: C_7  and  C_8
REMARK    7  A    between atoms: C_9  and  C_10
REMARK    8  A    between atoms: C_9  and  C_21
REMARK    9  A    between atoms: C_10  and  C_11
REMARK   10  A    between atoms: C_11  and  C_12
REMARK   11  A    between atoms: C_13  and  C_14
REMARK   12  A    between atoms: C_13  and  C_20
REMARK   13  A    between atoms: C_14  and  C_15
REMARK   14  A    between atoms: C_15  and  C_16
REMARK   15  A    between atoms: C_17  and  C_18
REMARK   16  A    between atoms: C_17  and  C_19
REMARK   17  A    between atoms: C_26  and  O_29
REMARK                            x       y       z     vdW  Elec       q    Type
REMARK                         _______ _______ _______ _____ _____    ______ ____
ROOT
ATOM      1  C   LIG A   1      -7.919  -0.813 127.290  0.00  0.00    +0.042 C 
ENDROOT
BRANCH   1   2
ATOM      2  C   LIG A   1      -8.284  -1.199 125.815  0.00  0.00    +0.049 C 
ATOM      3  C   LIG A   1      -6.980  -1.386 125.028  0.00  0.00    +0.163 C 
ATOM      4  O   LIG A   1      -6.143  -0.487 124.939  0.00  0.00    -0.292 OA
ATOM      5  C   LIG A   1      -6.739  -2.624 124.261  0.00  0.00    +0.045 C 
ATOM      6  C   LIG A   1      -7.693  -3.544 124.103  0.00  0.00    +0.007 C 
ATOM      7  C   LIG A   1      -9.039  -3.497 124.738  0.00  0.00    +0.139 C 
ATOM      8  C   LIG A   1      -9.216  -2.444 125.833  0.00  0.00    +0.051 C 
BRANCH   7   9
ATOM      9  O   LIG A   1     -10.029  -3.333 123.735  0.00  0.00    -0.388 OA
ATOM     10  H   LIG A   1     -10.436  -2.452 123.871  0.00  0.00    +0.210 HD
ENDBRANCH   7   9
BRANCH   2  11
ATOM     11  C   LIG A   1      -8.998   0.044 125.201  0.00  0.00    +0.135 C 
BRANCH  11  12
ATOM     12  C   LIG A   1      -9.107   0.054 123.694  0.00  0.00    +0.308 C 
ATOM     13  O   LIG A   1      -9.792  -0.727 123.021  0.00  0.00    -0.251 OA
BRANCH  12  14
ATOM     14  O   LIG A   1      -8.342   1.040 123.173  0.00  0.00    -0.468 OA
ATOM     15  C   LIG A   1      -9.033   2.278 122.983  0.00  0.00    +0.280 C 
ENDBRANCH  12  14
ENDBRANCH  11  12
ENDBRANCH   2  11
ENDBRANCH   1   2
BRANCH   1  16
ATOM     16  C   LIG A   1      -7.838  -1.966 128.263  0.00  0.00    -0.027 C 
ATOM     17  C   LIG A   1      -6.743  -2.657 128.637  0.00  0.00    -0.076 C 
ATOM     18  C   LIG A   1      -5.340  -2.378 128.173  0.00  0.00    +0.038 C 
BRANCH  17  19
ATOM     19  C   LIG A   1      -6.872  -3.815 129.604  0.00  0.00    +0.034 C 
BRANCH  19  20
ATOM     20  C   LIG A   1      -6.280  -3.493 130.986  0.00  0.00    +0.031 C 
BRANCH  20  21
ATOM     21  C   LIG A   1      -7.076  -2.415 131.667  0.00  0.00    -0.027 C 
ATOM     22  C   LIG A   1      -6.673  -1.152 131.911  0.00  0.00    -0.076 C 
ATOM     23  C   LIG A   1      -5.336  -0.614 131.466  0.00  0.00    +0.038 C 
BRANCH  22  24
ATOM     24  C   LIG A   1      -7.533  -0.140 132.654  0.00  0.00    +0.034 C 
BRANCH  24  25
ATOM     25  C   LIG A   1      -8.828   0.304 131.948  0.00  0.00    +0.031 C 
BRANCH  25  26
ATOM     26  C   LIG A   1      -8.596   0.842 130.566  0.00  0.00    -0.028 C 
ATOM     27  C   LIG A   1      -8.295   2.110 130.230  0.00  0.00    -0.080 C 
ATOM     28  C   LIG A   1      -8.074   3.234 131.206  0.00  0.00    +0.038 C 
ATOM     29  C   LIG A   1      -8.187   2.503 128.782  0.00  0.00    +0.038 C 
ENDBRANCH  25  26
ENDBRANCH  24  25
ENDBRANCH  22  24
ENDBRANCH  20  21
ENDBRANCH  19  20
ENDBRANCH  17  19
ENDBRANCH   1  16
TORSDOF 12
ENDMDL
MODEL 9
REMARK VINA RESULT:      -6.5      2.968      5.724
REMARK  Name = NuBBE_1628
REMARK  17 active torsions:
REMARK  status: ('A' for Active; 'I' for Inactive)
REMARK    1  A    between atoms: C_1  and  C_2
REMARK    2  A    between atoms: C_1  and  C_6
REMARK    3  A    between atoms: C_2  and  O_4
REMARK    4  A    between atoms: O_4  and  C_5
REMARK    5  A    between atoms: C_6  and  C_7
REMARK    6  A    between atoms: C_7  and  C_8
REMARK    7  A    between atoms: C_9  and  C_10
REMARK    8  A    between atoms: C_9  and  C_21
REMARK    9  A    between atoms: C_10  and  C_11
REMARK   10  A    between atoms: C_11  and  C_12
REMARK   11  A    between atoms: C_13  and  C_14
REMARK   12  A    between atoms: C_13  and  C_20
REMARK   13  A    between atoms: C_14  and  C_15
REMARK   14  A    between atoms: C_15  and  C_16
REMARK   15  A    between atoms: C_17  and  C_18
REMARK   16  A    between atoms: C_17  and  C_19
REMARK   17  A    between atoms: C_26  and  O_29
REMARK                            x       y       z     vdW  Elec       q    Type
REMARK                         _______ _______ _______ _____ _____    ______ ____
ROOT
ATOM      1  C   LIG A   1      -5.551   3.255 124.999  0.00  0.00    +0.042 C 
ENDROOT
BRANCH   1   2
ATOM      2  C   LIG A   1      -5.088   3.125 126.492  0.00  0.00    +0.049 C 
ATOM      3  C   LIG A   1      -6.156   3.768 127.386  0.00  0.00    +0.163 C 
ATOM      4  O   LIG A   1      -6.498   4.942 127.246  0.00  0.00    -0.292 OA
ATOM      5  C   LIG A   1      -6.734   3.018 128.520  0.00  0.00    +0.045 C 
ATOM      6  C   LIG A   1      -6.247   1.832 128.893  0.00  0.00    +0.007 C 
ATOM      7  C   LIG A   1      -5.169   1.090 128.184  0.00  0.00    +0.139 C 
ATOM      8  C   LIG A   1      -4.794   1.630 126.802  0.00  0.00    +0.051 C 
BRANCH   7   9
ATOM      9  O   LIG A   1      -4.019   1.020 129.012  0.00  0.00    -0.388 OA
ATOM     10  H   LIG A   1      -3.262   1.354 128.486  0.00  0.00    +0.210 HD
ENDBRANCH   7   9
BRANCH   2  11
ATOM     11  C   LIG A   1      -3.806   4.003 126.631  0.00  0.00    +0.135 C 
BRANCH  11  12
ATOM     12  C   LIG A   1      -2.954   3.723 127.846  0.00  0.00    +0.308 C 
ATOM     13  O   LIG A   1      -3.194   4.119 128.994  0.00  0.00    -0.251 OA
BRANCH  12  14
ATOM     14  O   LIG A   1      -1.879   2.977 127.507  0.00  0.00    -0.468 OA
ATOM     15  C   LIG A   1      -1.488   3.105 126.136  0.00  0.00    +0.280 C 
ENDBRANCH  12  14
ENDBRANCH  11  12
ENDBRANCH   2  11
ENDBRANCH   1   2
BRANCH   1  16
ATOM     16  C   LIG A   1      -6.839   2.545 124.655  0.00  0.00    -0.027 C 
ATOM     17  C   LIG A   1      -7.412   2.413 123.442  0.00  0.00    -0.076 C 
ATOM     18  C   LIG A   1      -6.840   2.931 122.151  0.00  0.00    +0.038 C 
BRANCH  17  19
ATOM     19  C   LIG A   1      -8.735   1.690 123.303  0.00  0.00    +0.034 C 
BRANCH  19  20
ATOM     20  C   LIG A   1      -9.348   1.323 124.664  0.00  0.00    +0.031 C 
BRANCH  20  21
ATOM     21  C   LIG A   1      -9.574  -0.160 124.762  0.00  0.00    -0.027 C 
ATOM     22  C   LIG A   1      -8.958  -1.012 125.604  0.00  0.00    -0.076 C 
ATOM     23  C   LIG A   1      -7.959  -0.566 126.644  0.00  0.00    +0.038 C 
BRANCH  22  24
ATOM     24  C   LIG A   1      -9.217  -2.512 125.597  0.00  0.00    +0.034 C 
BRANCH  24  25
ATOM     25  C   LIG A   1      -8.725  -3.285 124.359  0.00  0.00    +0.031 C 
BRANCH  25  26
ATOM     26  C   LIG A   1      -7.237  -3.480 124.334  0.00  0.00    -0.028 C 
ATOM     27  C   LIG A   1      -6.334  -2.742 123.661  0.00  0.00    -0.080 C 
ATOM     28  C   LIG A   1      -6.654  -1.524 122.838  0.00  0.00    +0.038 C 
ATOM     29  C   LIG A   1      -4.881  -3.133 123.669  0.00  0.00    +0.038 C 
ENDBRANCH  25  26
ENDBRANCH  24  25
ENDBRANCH  22  24
ENDBRANCH  20  21
ENDBRANCH  19  20
ENDBRANCH  17  19
ENDBRANCH   1  16
TORSDOF 12
ENDMDL
