MODEL 1
REMARK VINA RESULT:      -6.7      0.000      0.000
REMARK  Name = NuBBE_448
REMARK  12 active torsions:
REMARK  status: ('A' for Active; 'I' for Inactive)
REMARK    1  A    between atoms: C_4  and  O_13
REMARK    2  A    between atoms: C_8  and  C_9
REMARK    3  A    between atoms: C_9  and  O_10
REMARK    4  A    between atoms: O_10  and  C_11
REMARK    5  A    between atoms: O_13  and  C_14
REMARK    6  A    between atoms: C_17  and  C_25
REMARK    7  A    between atoms: C_19  and  O_24
REMARK    8  A    between atoms: C_21  and  O_23
REMARK    9  A    between atoms: C_25  and  O_26
REMARK   10  A    between atoms: C_27  and  O_29
REMARK   11  A    between atoms: C_33  and  C_35
REMARK   12  A    between atoms: C_35  and  O_36
REMARK                            x       y       z     vdW  Elec       q    Type
REMARK                         _______ _______ _______ _____ _____    ______ ____
ROOT
ATOM      1  C   LIG A   1      -7.830  -2.385 128.442  0.00  0.00    +0.061 C 
ATOM      2  C   LIG A   1      -7.617  -2.171 126.937  0.00  0.00    +0.087 C 
ATOM      3  C   LIG A   1      -7.034  -0.778 126.665  0.00  0.00    +0.314 C 
ATOM      4  O   LIG A   1      -5.882  -0.528 127.506  0.00  0.00    -0.470 OA
ATOM      5  C   LIG A   1      -5.657  -1.344 128.589  0.00  0.00    +0.201 C 
ATOM      6  C   LIG A   1      -6.483  -2.307 129.055  0.00  0.00    +0.078 C 
ATOM      7  C   LIG A   1      -8.620  -3.655 128.414  0.00  0.00    -0.021 C 
ATOM      8  C   LIG A   1      -9.293  -3.740 127.253  0.00  0.00    -0.016 C 
ATOM      9  C   LIG A   1      -8.957  -2.576 126.340  0.00  0.00    +0.130 C 
ENDROOT
BRANCH   6  10
ATOM     10  C   LIG A   1      -6.047  -3.211 130.159  0.00  0.00    +0.338 C 
ATOM     11  O   LIG A   1      -5.611  -4.331 130.030  0.00  0.00    -0.245 OA
BRANCH  10  12
ATOM     12  O   LIG A   1      -6.190  -2.501 131.322  0.00  0.00    -0.465 OA
ATOM     13  C   LIG A   1      -7.252  -2.906 132.184  0.00  0.00    +0.280 C 
ENDBRANCH  10  12
ENDBRANCH   6  10
BRANCH   9  14
ATOM     14  C   LIG A   1      -8.849  -3.018 124.893  0.00  0.00    +0.312 C 
ATOM     15  O   LIG A   1      -9.655  -2.840 124.000  0.00  0.00    -0.250 OA
BRANCH  14  16
ATOM     16  O   LIG A   1      -7.686  -3.660 124.655  0.00  0.00    -0.480 OA
ATOM     17  H   LIG A   1      -7.861  -4.159 123.831  0.00  0.00    +0.295 HD
ENDBRANCH  14  16
ENDBRANCH   9  14
BRANCH   3  18
ATOM     18  O   LIG A   1      -6.685  -0.707 125.268  0.00  0.00    -0.309 OA
BRANCH  18  19
ATOM     19  C   LIG A   1      -6.686   0.620 124.712  0.00  0.00    +0.286 C 
ATOM     20  O   LIG A   1      -7.398   1.503 125.598  0.00  0.00    -0.340 OA
ATOM     21  C   LIG A   1      -7.722   2.756 124.969  0.00  0.00    +0.178 C 
ATOM     22  C   LIG A   1      -8.813   2.564 123.891  0.00  0.00    +0.177 C 
ATOM     23  C   LIG A   1      -8.804   1.121 123.354  0.00  0.00    +0.179 C 
ATOM     24  C   LIG A   1      -7.359   0.583 123.296  0.00  0.00    +0.201 C 
BRANCH  23  25
ATOM     25  O   LIG A   1      -9.652   0.282 124.140  0.00  0.00    -0.386 OA
ATOM     26  H   LIG A   1     -10.502   0.184 123.669  0.00  0.00    +0.210 HD
ENDBRANCH  23  25
BRANCH  22  27
ATOM     27  O   LIG A   1      -8.545   3.469 122.804  0.00  0.00    -0.387 OA
ATOM     28  H   LIG A   1      -8.642   4.374 123.158  0.00  0.00    +0.210 HD
ENDBRANCH  22  27
BRANCH  24  29
ATOM     29  O   LIG A   1      -6.579   1.366 122.366  0.00  0.00    -0.384 OA
ATOM     30  H   LIG A   1      -7.026   2.225 122.217  0.00  0.00    +0.210 HD
ENDBRANCH  24  29
BRANCH  21  31
ATOM     31  C   LIG A   1      -8.214   3.716 126.059  0.00  0.00    +0.190 C 
BRANCH  31  32
ATOM     32  O   LIG A   1      -8.944   4.798 125.484  0.00  0.00    -0.392 OA
ATOM     33  H   LIG A   1      -9.438   5.208 126.220  0.00  0.00    +0.209 HD
ENDBRANCH  31  32
ENDBRANCH  21  31
ENDBRANCH  18  19
ENDBRANCH   3  18
TORSDOF 11
ENDMDL
MODEL 2
REMARK VINA RESULT:      -6.7      1.155      1.965
REMARK  Name = NuBBE_448
REMARK  12 active torsions:
REMARK  status: ('A' for Active; 'I' for Inactive)
REMARK    1  A    between atoms: C_4  and  O_13
REMARK    2  A    between atoms: C_8  and  C_9
REMARK    3  A    between atoms: C_9  and  O_10
REMARK    4  A    between atoms: O_10  and  C_11
REMARK    5  A    between atoms: O_13  and  C_14
REMARK    6  A    between atoms: C_17  and  C_25
REMARK    7  A    between atoms: C_19  and  O_24
REMARK    8  A    between atoms: C_21  and  O_23
REMARK    9  A    between atoms: C_25  and  O_26
REMARK   10  A    between atoms: C_27  and  O_29
REMARK   11  A    between atoms: C_33  and  C_35
REMARK   12  A    between atoms: C_35  and  O_36
REMARK                            x       y       z     vdW  Elec       q    Type
REMARK                         _______ _______ _______ _____ _____    ______ ____
ROOT
ATOM      1  C   LIG A   1      -7.886  -2.594 128.510  0.00  0.00    +0.061 C 
ATOM      2  C   LIG A   1      -7.636  -2.176 127.054  0.00  0.00    +0.087 C 
ATOM      3  C   LIG A   1      -7.151  -0.722 126.984  0.00  0.00    +0.314 C 
ATOM      4  O   LIG A   1      -6.052  -0.501 127.900  0.00  0.00    -0.470 OA
ATOM      5  C   LIG A   1      -5.805  -1.430 128.882  0.00  0.00    +0.201 C 
ATOM      6  C   LIG A   1      -6.571  -2.501 129.187  0.00  0.00    +0.078 C 
ATOM      7  C   LIG A   1      -8.576  -3.904 128.289  0.00  0.00    -0.021 C 
ATOM      8  C   LIG A   1      -9.199  -3.887 127.098  0.00  0.00    -0.016 C 
ATOM      9  C   LIG A   1      -8.920  -2.596 126.352  0.00  0.00    +0.130 C 
ENDROOT
BRANCH   6  10
ATOM     10  C   LIG A   1      -6.108  -3.504 130.189  0.00  0.00    +0.338 C 
ATOM     11  O   LIG A   1      -5.153  -4.236 130.071  0.00  0.00    -0.245 OA
BRANCH  10  12
ATOM     12  O   LIG A   1      -6.940  -3.387 131.271  0.00  0.00    -0.465 OA
ATOM     13  C   LIG A   1      -6.465  -2.585 132.350  0.00  0.00    +0.280 C 
ENDBRANCH  10  12
ENDBRANCH   6  10
BRANCH   9  14
ATOM     14  C   LIG A   1      -8.728  -2.841 124.868  0.00  0.00    +0.312 C 
ATOM     15  O   LIG A   1      -9.539  -2.680 123.977  0.00  0.00    -0.250 OA
BRANCH  14  16
ATOM     16  O   LIG A   1      -7.478  -3.270 124.593  0.00  0.00    -0.480 OA
ATOM     17  H   LIG A   1      -7.237  -2.778 123.781  0.00  0.00    +0.295 HD
ENDBRANCH  14  16
ENDBRANCH   9  14
BRANCH   3  18
ATOM     18  O   LIG A   1      -6.760  -0.450 125.623  0.00  0.00    -0.309 OA
BRANCH  18  19
ATOM     19  C   LIG A   1      -7.488   0.616 124.987  0.00  0.00    +0.286 C 
ATOM     20  O   LIG A   1      -6.554   1.542 124.402  0.00  0.00    -0.340 OA
ATOM     21  C   LIG A   1      -7.181   2.786 124.037  0.00  0.00    +0.178 C 
ATOM     22  C   LIG A   1      -7.570   3.595 125.296  0.00  0.00    +0.177 C 
ATOM     23  C   LIG A   1      -7.770   2.664 126.505  0.00  0.00    +0.179 C 
ATOM     24  C   LIG A   1      -8.393   1.327 126.052  0.00  0.00    +0.201 C 
BRANCH  23  25
ATOM     25  O   LIG A   1      -6.539   2.467 127.203  0.00  0.00    -0.386 OA
ATOM     26  H   LIG A   1      -6.385   3.247 127.771  0.00  0.00    +0.210 HD
ENDBRANCH  23  25
BRANCH  22  27
ATOM     27  O   LIG A   1      -8.804   4.288 125.029  0.00  0.00    -0.387 OA
ATOM     28  H   LIG A   1      -8.599   4.994 124.386  0.00  0.00    +0.210 HD
ENDBRANCH  22  27
BRANCH  24  29
ATOM     29  O   LIG A   1      -9.706   1.559 125.497  0.00  0.00    -0.384 OA
ATOM     30  H   LIG A   1     -10.159   0.699 125.376  0.00  0.00    +0.210 HD
ENDBRANCH  24  29
BRANCH  21  31
ATOM     31  C   LIG A   1      -6.186   3.579 123.180  0.00  0.00    +0.190 C 
BRANCH  31  32
ATOM     32  O   LIG A   1      -6.000   4.890 123.712  0.00  0.00    -0.392 OA
ATOM     33  H   LIG A   1      -6.037   4.792 124.682  0.00  0.00    +0.209 HD
ENDBRANCH  31  32
ENDBRANCH  21  31
ENDBRANCH  18  19
ENDBRANCH   3  18
TORSDOF 11
ENDMDL
MODEL 3
REMARK VINA RESULT:      -6.5      5.384      8.015
REMARK  Name = NuBBE_448
REMARK  12 active torsions:
REMARK  status: ('A' for Active; 'I' for Inactive)
REMARK    1  A    between atoms: C_4  and  O_13
REMARK    2  A    between atoms: C_8  and  C_9
REMARK    3  A    between atoms: C_9  and  O_10
REMARK    4  A    between atoms: O_10  and  C_11
REMARK    5  A    between atoms: O_13  and  C_14
REMARK    6  A    between atoms: C_17  and  C_25
REMARK    7  A    between atoms: C_19  and  O_24
REMARK    8  A    between atoms: C_21  and  O_23
REMARK    9  A    between atoms: C_25  and  O_26
REMARK   10  A    between atoms: C_27  and  O_29
REMARK   11  A    between atoms: C_33  and  C_35
REMARK   12  A    between atoms: C_35  and  O_36
REMARK                            x       y       z     vdW  Elec       q    Type
REMARK                         _______ _______ _______ _____ _____    ______ ____
ROOT
ATOM      1  C   LIG A   1      -6.365   3.768 128.902  0.00  0.00    +0.061 C 
ATOM      2  C   LIG A   1      -7.450   4.449 128.057  0.00  0.00    +0.087 C 
ATOM      3  C   LIG A   1      -8.639   4.865 128.934  0.00  0.00    +0.314 C 
ATOM      4  O   LIG A   1      -8.188   5.604 130.095  0.00  0.00    -0.470 OA
ATOM      5  C   LIG A   1      -6.857   5.568 130.433  0.00  0.00    +0.201 C 
ATOM      6  C   LIG A   1      -5.904   4.794 129.868  0.00  0.00    +0.078 C 
ATOM      7  C   LIG A   1      -5.480   3.244 127.815  0.00  0.00    -0.021 C 
ATOM      8  C   LIG A   1      -6.209   3.031 126.706  0.00  0.00    -0.016 C 
ATOM      9  C   LIG A   1      -7.646   3.474 126.903  0.00  0.00    +0.130 C 
ENDROOT
BRANCH   6  10
ATOM     10  C   LIG A   1      -4.470   4.960 130.244  0.00  0.00    +0.338 C 
ATOM     11  O   LIG A   1      -3.867   4.297 131.055  0.00  0.00    -0.245 OA
BRANCH  10  12
ATOM     12  O   LIG A   1      -3.974   5.963 129.454  0.00  0.00    -0.465 OA
ATOM     13  C   LIG A   1      -3.516   7.132 130.129  0.00  0.00    +0.280 C 
ENDBRANCH  10  12
ENDBRANCH   6  10
BRANCH   9  14
ATOM     14  C   LIG A   1      -8.200   4.140 125.658  0.00  0.00    +0.312 C 
ATOM     15  O   LIG A   1      -8.877   3.634 124.784  0.00  0.00    -0.250 OA
BRANCH  14  16
ATOM     16  O   LIG A   1      -7.866   5.446 125.603  0.00  0.00    -0.480 OA
ATOM     17  H   LIG A   1      -7.819   5.633 124.642  0.00  0.00    +0.295 HD
ENDBRANCH  14  16
ENDBRANCH   9  14
BRANCH   3  18
ATOM     18  O   LIG A   1      -9.532   5.655 128.125  0.00  0.00    -0.309 OA
BRANCH  18  19
ATOM     19  C   LIG A   1     -10.045   6.836 128.769  0.00  0.00    +0.286 C 
ATOM     20  O   LIG A   1     -11.149   6.469 129.616  0.00  0.00    -0.340 OA
ATOM     21  C   LIG A   1     -11.914   7.615 130.035  0.00  0.00    +0.178 C 
ATOM     22  C   LIG A   1     -12.706   8.210 128.848  0.00  0.00    +0.177 C 
ATOM     23  C   LIG A   1     -12.028   7.866 127.510  0.00  0.00    +0.179 C 
ATOM     24  C   LIG A   1     -10.494   7.864 127.674  0.00  0.00    +0.201 C 
BRANCH  23  25
ATOM     25  O   LIG A   1     -12.509   6.619 127.003  0.00  0.00    -0.386 OA
ATOM     26  H   LIG A   1     -12.877   6.110 127.751  0.00  0.00    +0.210 HD
ENDBRANCH  23  25
BRANCH  22  27
ATOM     27  O   LIG A   1     -12.745   9.642 128.998  0.00  0.00    -0.387 OA
ATOM     28  H   LIG A   1     -12.953  10.014 128.120  0.00  0.00    +0.210 HD
ENDBRANCH  22  27
BRANCH  24  29
ATOM     29  O   LIG A   1     -10.036   9.187 128.031  0.00  0.00    -0.384 OA
ATOM     30  H   LIG A   1     -10.734   9.837 127.810  0.00  0.00    +0.210 HD
ENDBRANCH  24  29
BRANCH  21  31
ATOM     31  C   LIG A   1     -12.874   7.159 131.141  0.00  0.00    +0.190 C 
BRANCH  31  32
ATOM     32  O   LIG A   1     -12.243   6.202 131.990  0.00  0.00    -0.392 OA
ATOM     33  H   LIG A   1     -11.612   6.707 132.538  0.00  0.00    +0.209 HD
ENDBRANCH  31  32
ENDBRANCH  21  31
ENDBRANCH  18  19
ENDBRANCH   3  18
TORSDOF 11
ENDMDL
MODEL 4
REMARK VINA RESULT:      -6.4      1.166      1.967
REMARK  Name = NuBBE_448
REMARK  12 active torsions:
REMARK  status: ('A' for Active; 'I' for Inactive)
REMARK    1  A    between atoms: C_4  and  O_13
REMARK    2  A    between atoms: C_8  and  C_9
REMARK    3  A    between atoms: C_9  and  O_10
REMARK    4  A    between atoms: O_10  and  C_11
REMARK    5  A    between atoms: O_13  and  C_14
REMARK    6  A    between atoms: C_17  and  C_25
REMARK    7  A    between atoms: C_19  and  O_24
REMARK    8  A    between atoms: C_21  and  O_23
REMARK    9  A    between atoms: C_25  and  O_26
REMARK   10  A    between atoms: C_27  and  O_29
REMARK   11  A    between atoms: C_33  and  C_35
REMARK   12  A    between atoms: C_35  and  O_36
REMARK                            x       y       z     vdW  Elec       q    Type
REMARK                         _______ _______ _______ _____ _____    ______ ____
ROOT
ATOM      1  C   LIG A   1      -8.114  -2.397 128.794  0.00  0.00    +0.061 C 
ATOM      2  C   LIG A   1      -7.741  -1.803 127.429  0.00  0.00    +0.087 C 
ATOM      3  C   LIG A   1      -7.505  -0.291 127.542  0.00  0.00    +0.314 C 
ATOM      4  O   LIG A   1      -6.596   0.008 128.629  0.00  0.00    -0.470 OA
ATOM      5  C   LIG A   1      -6.332  -0.963 129.565  0.00  0.00    +0.201 C 
ATOM      6  C   LIG A   1      -6.940  -2.166 129.669  0.00  0.00    +0.078 C 
ATOM      7  C   LIG A   1      -8.535  -3.770 128.374  0.00  0.00    -0.021 C 
ATOM      8  C   LIG A   1      -8.982  -3.734 127.106  0.00  0.00    -0.016 C 
ATOM      9  C   LIG A   1      -8.827  -2.348 126.511  0.00  0.00    +0.130 C 
ENDROOT
BRANCH   6  10
ATOM     10  C   LIG A   1      -6.455  -3.178 130.651  0.00  0.00    +0.338 C 
ATOM     11  O   LIG A   1      -6.030  -4.278 130.386  0.00  0.00    -0.245 OA
BRANCH  10  12
ATOM     12  O   LIG A   1      -6.539  -2.593 131.887  0.00  0.00    -0.465 OA
ATOM     13  C   LIG A   1      -7.294  -3.297 132.871  0.00  0.00    +0.280 C 
ENDBRANCH  10  12
ENDBRANCH   6  10
BRANCH   9  14
ATOM     14  C   LIG A   1      -8.393  -2.412 125.059  0.00  0.00    +0.312 C 
ATOM     15  O   LIG A   1      -7.364  -2.880 124.611  0.00  0.00    -0.250 OA
BRANCH  14  16
ATOM     16  O   LIG A   1      -9.323  -1.880 124.239  0.00  0.00    -0.480 OA
ATOM     17  H   LIG A   1      -9.507  -1.003 124.635  0.00  0.00    +0.295 HD
ENDBRANCH  14  16
ENDBRANCH   9  14
BRANCH   3  18
ATOM     18  O   LIG A   1      -6.982   0.172 126.281  0.00  0.00    -0.309 OA
BRANCH  18  19
ATOM     19  C   LIG A   1      -7.676   1.299 125.717  0.00  0.00    +0.286 C 
ATOM     20  O   LIG A   1      -8.874   0.837 125.065  0.00  0.00    -0.340 OA
ATOM     21  C   LIG A   1      -9.446   1.843 124.208  0.00  0.00    +0.178 C 
ATOM     22  C   LIG A   1      -8.562   2.068 122.960  0.00  0.00    +0.177 C 
ATOM     23  C   LIG A   1      -7.101   1.678 123.246  0.00  0.00    +0.179 C 
ATOM     24  C   LIG A   1      -6.730   2.030 124.702  0.00  0.00    +0.201 C 
BRANCH  23  25
ATOM     25  O   LIG A   1      -6.879   0.296 122.961  0.00  0.00    -0.386 OA
ATOM     26  H   LIG A   1      -5.920   0.123 123.029  0.00  0.00    +0.210 HD
ENDBRANCH  23  25
BRANCH  22  27
ATOM     27  O   LIG A   1      -8.614   3.464 122.610  0.00  0.00    -0.387 OA
ATOM     28  H   LIG A   1      -8.714   3.511 121.640  0.00  0.00    +0.210 HD
ENDBRANCH  22  27
BRANCH  24  29
ATOM     29  O   LIG A   1      -6.814   3.458 124.900  0.00  0.00    -0.384 OA
ATOM     30  H   LIG A   1      -6.214   3.716 125.629  0.00  0.00    +0.210 HD
ENDBRANCH  24  29
BRANCH  21  31
ATOM     31  C   LIG A   1     -10.843   1.365 123.792  0.00  0.00    +0.190 C 
BRANCH  31  32
ATOM     32  O   LIG A   1     -10.755   0.442 122.707  0.00  0.00    -0.392 OA
ATOM     33  H   LIG A   1     -10.002  -0.144 122.916  0.00  0.00    +0.209 HD
ENDBRANCH  31  32
ENDBRANCH  21  31
ENDBRANCH  18  19
ENDBRANCH   3  18
TORSDOF 11
ENDMDL
MODEL 5
REMARK VINA RESULT:      -6.4      1.487      2.063
REMARK  Name = NuBBE_448
REMARK  12 active torsions:
REMARK  status: ('A' for Active; 'I' for Inactive)
REMARK    1  A    between atoms: C_4  and  O_13
REMARK    2  A    between atoms: C_8  and  C_9
REMARK    3  A    between atoms: C_9  and  O_10
REMARK    4  A    between atoms: O_10  and  C_11
REMARK    5  A    between atoms: O_13  and  C_14
REMARK    6  A    between atoms: C_17  and  C_25
REMARK    7  A    between atoms: C_19  and  O_24
REMARK    8  A    between atoms: C_21  and  O_23
REMARK    9  A    between atoms: C_25  and  O_26
REMARK   10  A    between atoms: C_27  and  O_29
REMARK   11  A    between atoms: C_33  and  C_35
REMARK   12  A    between atoms: C_35  and  O_36
REMARK                            x       y       z     vdW  Elec       q    Type
REMARK                         _______ _______ _______ _____ _____    ______ ____
ROOT
ATOM      1  C   LIG A   1      -7.957  -2.441 128.365  0.00  0.00    +0.061 C 
ATOM      2  C   LIG A   1      -7.842  -1.671 127.042  0.00  0.00    +0.087 C 
ATOM      3  C   LIG A   1      -7.614  -0.176 127.303  0.00  0.00    +0.314 C 
ATOM      4  O   LIG A   1      -6.532   0.023 128.244  0.00  0.00    -0.470 OA
ATOM      5  C   LIG A   1      -6.091  -1.044 128.989  0.00  0.00    +0.201 C 
ATOM      6  C   LIG A   1      -6.651  -2.273 129.044  0.00  0.00    +0.078 C 
ATOM      7  C   LIG A   1      -8.424  -3.768 127.854  0.00  0.00    -0.021 C 
ATOM      8  C   LIG A   1      -9.089  -3.595 126.699  0.00  0.00    -0.016 C 
ATOM      9  C   LIG A   1      -9.064  -2.142 126.265  0.00  0.00    +0.130 C 
ENDROOT
BRANCH   6  10
ATOM     10  C   LIG A   1      -5.983  -3.378 129.792  0.00  0.00    +0.338 C 
ATOM     11  O   LIG A   1      -6.475  -4.033 130.680  0.00  0.00    -0.245 OA
BRANCH  10  12
ATOM     12  O   LIG A   1      -4.741  -3.529 129.234  0.00  0.00    -0.465 OA
ATOM     13  C   LIG A   1      -3.648  -3.631 130.144  0.00  0.00    +0.280 C 
ENDBRANCH  10  12
ENDBRANCH   6  10
BRANCH   9  14
ATOM     14  C   LIG A   1      -8.894  -2.012 124.764  0.00  0.00    +0.312 C 
ATOM     15  O   LIG A   1      -8.390  -2.813 124.002  0.00  0.00    -0.250 OA
BRANCH  14  16
ATOM     16  O   LIG A   1      -9.402  -0.849 124.305  0.00  0.00    -0.480 OA
ATOM     17  H   LIG A   1      -9.395  -0.961 123.331  0.00  0.00    +0.295 HD
ENDBRANCH  14  16
ENDBRANCH   9  14
BRANCH   3  18
ATOM     18  O   LIG A   1      -7.331   0.457 126.039  0.00  0.00    -0.309 OA
BRANCH  18  19
ATOM     19  C   LIG A   1      -6.868   1.816 126.135  0.00  0.00    +0.286 C 
ATOM     20  O   LIG A   1      -7.660   2.516 127.112  0.00  0.00    -0.340 OA
ATOM     21  C   LIG A   1      -7.481   3.943 127.032  0.00  0.00    +0.178 C 
ATOM     22  C   LIG A   1      -8.127   4.506 125.746  0.00  0.00    +0.177 C 
ATOM     23  C   LIG A   1      -8.212   3.424 124.656  0.00  0.00    +0.179 C 
ATOM     24  C   LIG A   1      -6.981   2.497 124.727  0.00  0.00    +0.201 C 
BRANCH  23  25
ATOM     25  O   LIG A   1      -9.435   2.691 124.762  0.00  0.00    -0.386 OA
ATOM     26  H   LIG A   1      -9.839   2.901 125.626  0.00  0.00    +0.210 HD
ENDBRANCH  23  25
BRANCH  22  27
ATOM     27  O   LIG A   1      -7.313   5.592 125.265  0.00  0.00    -0.387 OA
ATOM     28  H   LIG A   1      -7.476   5.666 124.305  0.00  0.00    +0.210 HD
ENDBRANCH  22  27
BRANCH  24  29
ATOM     29  O   LIG A   1      -5.780   3.253 124.454  0.00  0.00    -0.384 OA
ATOM     30  H   LIG A   1      -5.949   4.199 124.639  0.00  0.00    +0.210 HD
ENDBRANCH  24  29
BRANCH  21  31
ATOM     31  C   LIG A   1      -8.131   4.567 128.273  0.00  0.00    +0.190 C 
BRANCH  31  32
ATOM     32  O   LIG A   1      -9.071   5.572 127.895  0.00  0.00    -0.392 OA
ATOM     33  H   LIG A   1      -9.534   5.223 127.111  0.00  0.00    +0.209 HD
ENDBRANCH  31  32
ENDBRANCH  21  31
ENDBRANCH  18  19
ENDBRANCH   3  18
TORSDOF 11
ENDMDL
MODEL 6
REMARK VINA RESULT:      -6.2      7.177      9.501
REMARK  Name = NuBBE_448
REMARK  12 active torsions:
REMARK  status: ('A' for Active; 'I' for Inactive)
REMARK    1  A    between atoms: C_4  and  O_13
REMARK    2  A    between atoms: C_8  and  C_9
REMARK    3  A    between atoms: C_9  and  O_10
REMARK    4  A    between atoms: O_10  and  C_11
REMARK    5  A    between atoms: O_13  and  C_14
REMARK    6  A    between atoms: C_17  and  C_25
REMARK    7  A    between atoms: C_19  and  O_24
REMARK    8  A    between atoms: C_21  and  O_23
REMARK    9  A    between atoms: C_25  and  O_26
REMARK   10  A    between atoms: C_27  and  O_29
REMARK   11  A    between atoms: C_33  and  C_35
REMARK   12  A    between atoms: C_35  and  O_36
REMARK                            x       y       z     vdW  Elec       q    Type
REMARK                         _______ _______ _______ _____ _____    ______ ____
ROOT
ATOM      1  C   LIG A   1      -9.898   4.687 130.128  0.00  0.00    +0.061 C 
ATOM      2  C   LIG A   1      -8.704   4.661 131.093  0.00  0.00    +0.087 C 
ATOM      3  C   LIG A   1      -7.646   5.691 130.673  0.00  0.00    +0.314 C 
ATOM      4  O   LIG A   1      -8.250   6.988 130.452  0.00  0.00    -0.470 OA
ATOM      5  C   LIG A   1      -9.616   7.076 130.324  0.00  0.00    +0.201 C 
ATOM      6  C   LIG A   1     -10.484   6.043 130.249  0.00  0.00    +0.078 C 
ATOM      7  C   LIG A   1     -10.626   3.461 130.585  0.00  0.00    -0.021 C 
ATOM      8  C   LIG A   1      -9.751   2.594 131.122  0.00  0.00    -0.016 C 
ATOM      9  C   LIG A   1      -8.354   3.181 131.165  0.00  0.00    +0.130 C 
ENDROOT
BRANCH   6  10
ATOM     10  C   LIG A   1     -11.956   6.287 130.250  0.00  0.00    +0.338 C 
ATOM     11  O   LIG A   1     -12.609   6.681 131.188  0.00  0.00    -0.245 OA
BRANCH  10  12
ATOM     12  O   LIG A   1     -12.394   6.030 128.978  0.00  0.00    -0.465 OA
ATOM     13  C   LIG A   1     -12.720   7.166 128.180  0.00  0.00    +0.280 C 
ENDBRANCH  10  12
ENDBRANCH   6  10
BRANCH   9  14
ATOM     14  C   LIG A   1      -7.632   2.808 132.445  0.00  0.00    +0.312 C 
ATOM     15  O   LIG A   1      -8.123   2.440 133.494  0.00  0.00    -0.250 OA
BRANCH  14  16
ATOM     16  O   LIG A   1      -6.293   2.909 132.308  0.00  0.00    -0.480 OA
ATOM     17  H   LIG A   1      -6.092   3.803 132.656  0.00  0.00    +0.295 HD
ENDBRANCH  14  16
ENDBRANCH   9  14
BRANCH   3  18
ATOM     18  O   LIG A   1      -6.647   5.749 131.710  0.00  0.00    -0.309 OA
BRANCH  18  19
ATOM     19  C   LIG A   1      -5.462   6.490 131.367  0.00  0.00    +0.286 C 
ATOM     20  O   LIG A   1      -5.098   6.192 130.006  0.00  0.00    -0.340 OA
ATOM     21  C   LIG A   1      -3.762   6.629 129.695  0.00  0.00    +0.178 C 
ATOM     22  C   LIG A   1      -2.714   5.757 130.424  0.00  0.00    +0.177 C 
ATOM     23  C   LIG A   1      -3.315   5.125 131.692  0.00  0.00    +0.179 C 
ATOM     24  C   LIG A   1      -4.309   6.101 132.355  0.00  0.00    +0.201 C 
BRANCH  23  25
ATOM     25  O   LIG A   1      -3.925   3.868 131.393  0.00  0.00    -0.386 OA
ATOM     26  H   LIG A   1      -3.218   3.198 131.322  0.00  0.00    +0.210 HD
ENDBRANCH  23  25
BRANCH  22  27
ATOM     27  O   LIG A   1      -1.604   6.594 130.798  0.00  0.00    -0.387 OA
ATOM     28  H   LIG A   1      -1.689   6.766 131.756  0.00  0.00    +0.210 HD
ENDBRANCH  22  27
BRANCH  24  29
ATOM     29  O   LIG A   1      -3.615   7.293 132.786  0.00  0.00    -0.384 OA
ATOM     30  H   LIG A   1      -3.699   7.980 132.093  0.00  0.00    +0.210 HD
ENDBRANCH  24  29
BRANCH  21  31
ATOM     31  C   LIG A   1      -3.576   6.527 128.176  0.00  0.00    +0.190 C 
BRANCH  31  32
ATOM     32  O   LIG A   1      -2.205   6.304 127.852  0.00  0.00    -0.392 OA
ATOM     33  H   LIG A   1      -1.748   7.148 128.031  0.00  0.00    +0.209 HD
ENDBRANCH  31  32
ENDBRANCH  21  31
ENDBRANCH  18  19
ENDBRANCH   3  18
TORSDOF 11
ENDMDL
MODEL 7
REMARK VINA RESULT:      -6.2      4.484      7.592
REMARK  Name = NuBBE_448
REMARK  12 active torsions:
REMARK  status: ('A' for Active; 'I' for Inactive)
REMARK    1  A    between atoms: C_4  and  O_13
REMARK    2  A    between atoms: C_8  and  C_9
REMARK    3  A    between atoms: C_9  and  O_10
REMARK    4  A    between atoms: O_10  and  C_11
REMARK    5  A    between atoms: O_13  and  C_14
REMARK    6  A    between atoms: C_17  and  C_25
REMARK    7  A    between atoms: C_19  and  O_24
REMARK    8  A    between atoms: C_21  and  O_23
REMARK    9  A    between atoms: C_25  and  O_26
REMARK   10  A    between atoms: C_27  and  O_29
REMARK   11  A    between atoms: C_33  and  C_35
REMARK   12  A    between atoms: C_35  and  O_36
REMARK                            x       y       z     vdW  Elec       q    Type
REMARK                         _______ _______ _______ _____ _____    ______ ____
ROOT
ATOM      1  C   LIG A   1      -7.692   5.321 131.111  0.00  0.00    +0.061 C 
ATOM      2  C   LIG A   1      -6.973   4.881 129.828  0.00  0.00    +0.087 C 
ATOM      3  C   LIG A   1      -7.451   3.490 129.389  0.00  0.00    +0.314 C 
ATOM      4  O   LIG A   1      -8.897   3.430 129.354  0.00  0.00    -0.470 OA
ATOM      5  C   LIG A   1      -9.621   4.416 129.979  0.00  0.00    +0.201 C 
ATOM      6  C   LIG A   1      -9.129   5.403 130.760  0.00  0.00    +0.078 C 
ATOM      7  C   LIG A   1      -6.886   6.534 131.456  0.00  0.00    -0.021 C 
ATOM      8  C   LIG A   1      -5.642   6.402 130.962  0.00  0.00    -0.016 C 
ATOM      9  C   LIG A   1      -5.506   5.125 130.155  0.00  0.00    +0.130 C 
ENDROOT
BRANCH   6  10
ATOM     10  C   LIG A   1     -10.020   6.489 131.262  0.00  0.00    +0.338 C 
ATOM     11  O   LIG A   1     -10.502   6.559 132.368  0.00  0.00    -0.245 OA
BRANCH  10  12
ATOM     12  O   LIG A   1     -10.130   7.403 130.246  0.00  0.00    -0.465 OA
ATOM     13  C   LIG A   1     -11.434   7.582 129.696  0.00  0.00    +0.280 C 
ENDBRANCH  10  12
ENDBRANCH   6  10
BRANCH   9  14
ATOM     14  C   LIG A   1      -4.653   5.336 128.919  0.00  0.00    +0.312 C 
ATOM     15  O   LIG A   1      -4.423   6.383 128.345  0.00  0.00    -0.250 OA
BRANCH  14  16
ATOM     16  O   LIG A   1      -4.115   4.178 128.484  0.00  0.00    -0.480 OA
ATOM     17  H   LIG A   1      -4.552   4.030 127.619  0.00  0.00    +0.295 HD
ENDBRANCH  14  16
ENDBRANCH   9  14
BRANCH   3  18
ATOM     18  O   LIG A   1      -6.885   3.215 128.093  0.00  0.00    -0.309 OA
BRANCH  18  19
ATOM     19  C   LIG A   1      -7.723   3.573 126.979  0.00  0.00    +0.286 C 
ATOM     20  O   LIG A   1      -8.291   2.377 126.412  0.00  0.00    -0.340 OA
ATOM     21  C   LIG A   1      -8.869   2.615 125.115  0.00  0.00    +0.178 C 
ATOM     22  C   LIG A   1      -7.769   2.883 124.064  0.00  0.00    +0.177 C 
ATOM     23  C   LIG A   1      -6.495   3.430 124.732  0.00  0.00    +0.179 C 
ATOM     24  C   LIG A   1      -6.865   4.345 125.918  0.00  0.00    +0.201 C 
BRANCH  23  25
ATOM     25  O   LIG A   1      -5.633   2.363 125.133  0.00  0.00    -0.386 OA
ATOM     26  H   LIG A   1      -6.058   1.894 125.877  0.00  0.00    +0.210 HD
ENDBRANCH  23  25
BRANCH  22  27
ATOM     27  O   LIG A   1      -8.262   3.858 123.126  0.00  0.00    -0.387 OA
ATOM     28  H   LIG A   1      -7.950   3.585 122.242  0.00  0.00    +0.210 HD
ENDBRANCH  22  27
BRANCH  24  29
ATOM     29  O   LIG A   1      -7.598   5.495 125.442  0.00  0.00    -0.384 OA
ATOM     30  H   LIG A   1      -7.005   6.048 124.893  0.00  0.00    +0.210 HD
ENDBRANCH  24  29
BRANCH  21  31
ATOM     31  C   LIG A   1      -9.683   1.374 124.730  0.00  0.00    +0.190 C 
BRANCH  31  32
ATOM     32  O   LIG A   1     -10.533   1.655 123.619  0.00  0.00    -0.392 OA
ATOM     33  H   LIG A   1     -11.442   1.481 123.928  0.00  0.00    +0.209 HD
ENDBRANCH  31  32
ENDBRANCH  21  31
ENDBRANCH  18  19
ENDBRANCH   3  18
TORSDOF 11
ENDMDL
MODEL 8
REMARK VINA RESULT:      -6.2      5.320      7.894
REMARK  Name = NuBBE_448
REMARK  12 active torsions:
REMARK  status: ('A' for Active; 'I' for Inactive)
REMARK    1  A    between atoms: C_4  and  O_13
REMARK    2  A    between atoms: C_8  and  C_9
REMARK    3  A    between atoms: C_9  and  O_10
REMARK    4  A    between atoms: O_10  and  C_11
REMARK    5  A    between atoms: O_13  and  C_14
REMARK    6  A    between atoms: C_17  and  C_25
REMARK    7  A    between atoms: C_19  and  O_24
REMARK    8  A    between atoms: C_21  and  O_23
REMARK    9  A    between atoms: C_25  and  O_26
REMARK   10  A    between atoms: C_27  and  O_29
REMARK   11  A    between atoms: C_33  and  C_35
REMARK   12  A    between atoms: C_35  and  O_36
REMARK                            x       y       z     vdW  Elec       q    Type
REMARK                         _______ _______ _______ _____ _____    ______ ____
ROOT
ATOM      1  C   LIG A   1      -5.136   3.362 127.291  0.00  0.00    +0.061 C 
ATOM      2  C   LIG A   1      -6.516   4.017 127.139  0.00  0.00    +0.087 C 
ATOM      3  C   LIG A   1      -7.190   4.182 128.508  0.00  0.00    +0.314 C 
ATOM      4  O   LIG A   1      -6.292   4.816 129.451  0.00  0.00    -0.470 OA
ATOM      5  C   LIG A   1      -4.953   4.888 129.152  0.00  0.00    +0.201 C 
ATOM      6  C   LIG A   1      -4.330   4.303 128.105  0.00  0.00    +0.078 C 
ATOM      7  C   LIG A   1      -4.822   3.082 125.855  0.00  0.00    -0.021 C 
ATOM      8  C   LIG A   1      -5.967   2.930 125.167  0.00  0.00    -0.016 C 
ATOM      9  C   LIG A   1      -7.174   3.180 126.051  0.00  0.00    +0.130 C 
ENDROOT
BRANCH   6  10
ATOM     10  C   LIG A   1      -2.891   4.581 127.826  0.00  0.00    +0.338 C 
ATOM     11  O   LIG A   1      -2.387   5.674 127.716  0.00  0.00    -0.245 OA
BRANCH  10  12
ATOM     12  O   LIG A   1      -2.262   3.365 127.778  0.00  0.00    -0.465 OA
ATOM     13  C   LIG A   1      -1.512   3.087 126.597  0.00  0.00    +0.280 C 
ENDBRANCH  10  12
ENDBRANCH   6  10
BRANCH   9  14
ATOM     14  C   LIG A   1      -8.262   3.930 125.308  0.00  0.00    +0.312 C 
ATOM     15  O   LIG A   1      -9.214   3.462 124.714  0.00  0.00    -0.250 OA
BRANCH  14  16
ATOM     16  O   LIG A   1      -8.084   5.266 125.380  0.00  0.00    -0.480 OA
ATOM     17  H   LIG A   1      -8.771   5.625 124.782  0.00  0.00    +0.295 HD
ENDBRANCH  14  16
ENDBRANCH   9  14
BRANCH   3  18
ATOM     18  O   LIG A   1      -8.388   4.963 128.321  0.00  0.00    -0.309 OA
BRANCH  18  19
ATOM     19  C   LIG A   1      -9.389   4.785 129.338  0.00  0.00    +0.286 C 
ATOM     20  O   LIG A   1     -10.361   5.842 129.234  0.00  0.00    -0.340 OA
ATOM     21  C   LIG A   1     -11.201   5.923 130.401  0.00  0.00    +0.178 C 
ATOM     22  C   LIG A   1     -10.403   6.446 131.617  0.00  0.00    +0.177 C 
ATOM     23  C   LIG A   1      -8.902   6.148 131.455  0.00  0.00    +0.179 C 
ATOM     24  C   LIG A   1      -8.699   4.793 130.746  0.00  0.00    +0.201 C 
BRANCH  23  25
ATOM     25  O   LIG A   1      -8.245   7.212 130.764  0.00  0.00    -0.386 OA
ATOM     26  H   LIG A   1      -7.671   7.679 131.402  0.00  0.00    +0.210 HD
ENDBRANCH  23  25
BRANCH  22  27
ATOM     27  O   LIG A   1     -10.887   5.782 132.799  0.00  0.00    -0.387 OA
ATOM     28  H   LIG A   1     -11.275   6.471 133.373  0.00  0.00    +0.210 HD
ENDBRANCH  22  27
BRANCH  24  29
ATOM     29  O   LIG A   1      -9.238   3.727 131.559  0.00  0.00    -0.384 OA
ATOM     30  H   LIG A   1     -10.215   3.800 131.576  0.00  0.00    +0.210 HD
ENDBRANCH  24  29
BRANCH  21  31
ATOM     31  C   LIG A   1     -12.362   6.871 130.078  0.00  0.00    +0.190 C 
BRANCH  31  32
ATOM     32  O   LIG A   1     -13.078   7.210 131.265  0.00  0.00    -0.392 OA
ATOM     33  H   LIG A   1     -13.592   6.415 131.503  0.00  0.00    +0.209 HD
ENDBRANCH  31  32
ENDBRANCH  21  31
ENDBRANCH  18  19
ENDBRANCH   3  18
TORSDOF 11
ENDMDL
MODEL 9
REMARK VINA RESULT:      -6.2      2.995      6.432
REMARK  Name = NuBBE_448
REMARK  12 active torsions:
REMARK  status: ('A' for Active; 'I' for Inactive)
REMARK    1  A    between atoms: C_4  and  O_13
REMARK    2  A    between atoms: C_8  and  C_9
REMARK    3  A    between atoms: C_9  and  O_10
REMARK    4  A    between atoms: O_10  and  C_11
REMARK    5  A    between atoms: O_13  and  C_14
REMARK    6  A    between atoms: C_17  and  C_25
REMARK    7  A    between atoms: C_19  and  O_24
REMARK    8  A    between atoms: C_21  and  O_23
REMARK    9  A    between atoms: C_25  and  O_26
REMARK   10  A    between atoms: C_27  and  O_29
REMARK   11  A    between atoms: C_33  and  C_35
REMARK   12  A    between atoms: C_35  and  O_36
REMARK                            x       y       z     vdW  Elec       q    Type
REMARK                         _______ _______ _______ _____ _____    ______ ____
ROOT
ATOM      1  C   LIG A   1      -4.806   3.476 125.633  0.00  0.00    +0.061 C 
ATOM      2  C   LIG A   1      -5.993   2.524 125.832  0.00  0.00    +0.087 C 
ATOM      3  C   LIG A   1      -5.551   1.254 126.570  0.00  0.00    +0.314 C 
ATOM      4  O   LIG A   1      -4.803   1.585 127.764  0.00  0.00    -0.470 OA
ATOM      5  C   LIG A   1      -4.324   2.864 127.918  0.00  0.00    +0.201 C 
ATOM      6  C   LIG A   1      -4.358   3.851 126.995  0.00  0.00    +0.078 C 
ATOM      7  C   LIG A   1      -5.422   4.467 124.697  0.00  0.00    -0.021 C 
ATOM      8  C   LIG A   1      -6.396   3.870 123.989  0.00  0.00    -0.016 C 
ATOM      9  C   LIG A   1      -6.598   2.436 124.438  0.00  0.00    +0.130 C 
ENDROOT
BRANCH   6  10
ATOM     10  C   LIG A   1      -3.924   5.234 127.348  0.00  0.00    +0.338 C 
ATOM     11  O   LIG A   1      -4.615   6.225 127.317  0.00  0.00    -0.245 OA
BRANCH  10  12
ATOM     12  O   LIG A   1      -2.620   5.140 127.759  0.00  0.00    -0.465 OA
ATOM     13  C   LIG A   1      -2.174   6.134 128.679  0.00  0.00    +0.280 C 
ENDBRANCH  10  12
ENDBRANCH   6  10
BRANCH   9  14
ATOM     14  C   LIG A   1      -8.068   2.060 124.456  0.00  0.00    +0.312 C 
ATOM     15  O   LIG A   1      -8.955   2.564 125.116  0.00  0.00    -0.250 OA
BRANCH  14  16
ATOM     16  O   LIG A   1      -8.333   1.052 123.599  0.00  0.00    -0.480 OA
ATOM     17  H   LIG A   1      -8.328   1.486 122.721  0.00  0.00    +0.295 HD
ENDBRANCH  14  16
ENDBRANCH   9  14
BRANCH   3  18
ATOM     18  O   LIG A   1      -6.733   0.491 126.889  0.00  0.00    -0.309 OA
BRANCH  18  19
ATOM     19  C   LIG A   1      -6.693  -0.886 126.474  0.00  0.00    +0.286 C 
ATOM     20  O   LIG A   1      -6.696  -0.945 125.035  0.00  0.00    -0.340 OA
ATOM     21  C   LIG A   1      -6.984  -2.269 124.548  0.00  0.00    +0.178 C 
ATOM     22  C   LIG A   1      -8.462  -2.640 124.809  0.00  0.00    +0.177 C 
ATOM     23  C   LIG A   1      -9.025  -1.842 125.998  0.00  0.00    +0.179 C 
ATOM     24  C   LIG A   1      -7.934  -1.638 127.069  0.00  0.00    +0.201 C 
BRANCH  23  25
ATOM     25  O   LIG A   1      -9.578  -0.599 125.559  0.00  0.00    -0.386 OA
ATOM     26  H   LIG A   1     -10.492  -0.539 125.896  0.00  0.00    +0.210 HD
ENDBRANCH  23  25
BRANCH  22  27
ATOM     27  O   LIG A   1      -8.532  -4.046 125.114  0.00  0.00    -0.387 OA
ATOM     28  H   LIG A   1      -7.734  -4.459 124.733  0.00  0.00    +0.210 HD
ENDBRANCH  22  27
BRANCH  24  29
ATOM     29  O   LIG A   1      -7.520  -2.916 127.600  0.00  0.00    -0.384 OA
ATOM     30  H   LIG A   1      -7.046  -3.414 126.902  0.00  0.00    +0.210 HD
ENDBRANCH  24  29
BRANCH  21  31
ATOM     31  C   LIG A   1      -6.687  -2.291 123.044  0.00  0.00    +0.190 C 
BRANCH  31  32
ATOM     32  O   LIG A   1      -6.414  -0.974 122.567  0.00  0.00    -0.392 OA
ATOM     33  H   LIG A   1      -7.242  -0.471 122.683  0.00  0.00    +0.209 HD
ENDBRANCH  31  32
ENDBRANCH  21  31
ENDBRANCH  18  19
ENDBRANCH   3  18
TORSDOF 11
ENDMDL
