MODEL 1
REMARK VINA RESULT:      -8.0      0.000      0.000
REMARK  Name = NuBBE_160
REMARK  7 active torsions:
REMARK  status: ('A' for Active; 'I' for Inactive)
REMARK    1  A    between atoms: O_1  and  C_2
REMARK    2  A    between atoms: C_4  and  O_5
REMARK    3  A    between atoms: C_8  and  O_9
REMARK    4  A    between atoms: C_10  and  C_11
REMARK    5  A    between atoms: C_13  and  O_14
REMARK    6  A    between atoms: C_15  and  O_16
REMARK    7  A    between atoms: C_17  and  O_18
REMARK                            x       y       z     vdW  Elec       q    Type
REMARK                         _______ _______ _______ _____ _____    ______ ____
ROOT
ATOM      1  C   LIG A   1      -7.134  -1.972 124.296  0.00  0.00    +0.124 A 
ATOM      2  C   LIG A   1      -7.766  -1.657 125.494  0.00  0.00    +0.091 A 
ATOM      3  C   LIG A   1      -8.067  -0.320 125.777  0.00  0.00    +0.135 A 
ATOM      4  C   LIG A   1      -7.735   0.692 124.865  0.00  0.00    +0.109 A 
ATOM      5  C   LIG A   1      -8.027   2.121 125.102  0.00  0.00    +0.238 A 
ATOM      6  C   LIG A   1      -7.595   3.078 124.051  0.00  0.00    +0.208 A 
ATOM      7  C   LIG A   1      -6.982   2.611 122.951  0.00  0.00    +0.181 A 
ATOM      8  O   LIG A   1      -6.736   1.268 122.716  0.00  0.00    -0.451 OA
ATOM      9  O   LIG A   1      -8.598   2.577 126.087  0.00  0.00    -0.283 OA
ATOM     10  C   LIG A   1      -7.100   0.351 123.670  0.00  0.00    +0.146 A 
ATOM     11  C   LIG A   1      -6.799  -0.981 123.383  0.00  0.00    +0.092 A 
ENDROOT
BRANCH   7  12
ATOM     12  C   LIG A   1      -6.523   3.483 121.849  0.00  0.00    +0.028 A 
ATOM     13  C   LIG A   1      -5.391   4.302 122.038  0.00  0.00    +0.061 A 
ATOM     14  C   LIG A   1      -4.968   5.148 121.016  0.00  0.00    +0.163 A 
ATOM     15  C   LIG A   1      -5.661   5.195 119.814  0.00  0.00    +0.201 A 
ATOM     16  C   LIG A   1      -6.781   4.398 119.624  0.00  0.00    +0.163 A 
ATOM     17  C   LIG A   1      -7.218   3.545 120.629  0.00  0.00    +0.061 A 
BRANCH  14  18
ATOM     18  O   LIG A   1      -3.873   5.957 121.151  0.00  0.00    -0.503 OA
ATOM     19  H   LIG A   1      -4.071   6.625 121.831  0.00  0.00    +0.292 HD
ENDBRANCH  14  18
BRANCH  15  20
ATOM     20  O   LIG A   1      -5.253   6.026 118.806  0.00  0.00    -0.501 OA
ATOM     21  H   LIG A   1      -4.780   5.434 118.187  0.00  0.00    +0.292 HD
ENDBRANCH  15  20
BRANCH  16  22
ATOM     22  O   LIG A   1      -7.465   4.453 118.443  0.00  0.00    -0.503 OA
ATOM     23  H   LIG A   1      -8.227   3.855 118.573  0.00  0.00    +0.292 HD
ENDBRANCH  16  22
ENDBRANCH   7  12
BRANCH   1  24
ATOM     24  O   LIG A   1      -6.821  -3.259 123.973  0.00  0.00    -0.506 OA
ATOM     25  H   LIG A   1      -6.977  -3.835 124.739  0.00  0.00    +0.292 HD
ENDBRANCH   1  24
BRANCH   3  26
ATOM     26  O   LIG A   1      -8.688  -0.020 126.955  0.00  0.00    -0.506 OA
ATOM     27  H   LIG A   1      -9.201  -0.776 127.279  0.00  0.00    +0.292 HD
ENDBRANCH   3  26
BRANCH   6  28
ATOM     28  O   LIG A   1      -7.877   4.414 124.273  0.00  0.00    -0.501 OA
ATOM     29  H   LIG A   1      -7.003   4.860 124.242  0.00  0.00    +0.292 HD
ENDBRANCH   6  28
TORSDOF 7
ENDMDL
MODEL 2
REMARK VINA RESULT:      -7.9      0.077      1.725
REMARK  Name = NuBBE_160
REMARK  7 active torsions:
REMARK  status: ('A' for Active; 'I' for Inactive)
REMARK    1  A    between atoms: O_1  and  C_2
REMARK    2  A    between atoms: C_4  and  O_5
REMARK    3  A    between atoms: C_8  and  O_9
REMARK    4  A    between atoms: C_10  and  C_11
REMARK    5  A    between atoms: C_13  and  O_14
REMARK    6  A    between atoms: C_15  and  O_16
REMARK    7  A    between atoms: C_17  and  O_18
REMARK                            x       y       z     vdW  Elec       q    Type
REMARK                         _______ _______ _______ _____ _____    ______ ____
ROOT
ATOM      1  C   LIG A   1      -7.049  -1.968 124.247  0.00  0.00    +0.124 A 
ATOM      2  C   LIG A   1      -7.701  -1.683 125.443  0.00  0.00    +0.091 A 
ATOM      3  C   LIG A   1      -8.042  -0.359 125.737  0.00  0.00    +0.135 A 
ATOM      4  C   LIG A   1      -7.731   0.673 124.839  0.00  0.00    +0.109 A 
ATOM      5  C   LIG A   1      -8.066   2.090 125.088  0.00  0.00    +0.238 A 
ATOM      6  C   LIG A   1      -7.652   3.070 124.052  0.00  0.00    +0.208 A 
ATOM      7  C   LIG A   1      -7.017   2.633 122.952  0.00  0.00    +0.181 A 
ATOM      8  O   LIG A   1      -6.730   1.299 122.705  0.00  0.00    -0.451 OA
ATOM      9  O   LIG A   1      -8.658   2.518 126.074  0.00  0.00    -0.283 OA
ATOM     10  C   LIG A   1      -7.076   0.363 123.646  0.00  0.00    +0.146 A 
ATOM     11  C   LIG A   1      -6.735  -0.957 123.348  0.00  0.00    +0.092 A 
ENDROOT
BRANCH   7  12
ATOM     12  C   LIG A   1      -6.573   3.530 121.864  0.00  0.00    +0.028 A 
ATOM     13  C   LIG A   1      -7.280   3.545 120.645  0.00  0.00    +0.061 A 
ATOM     14  C   LIG A   1      -6.853   4.364 119.604  0.00  0.00    +0.163 A 
ATOM     15  C   LIG A   1      -5.727   5.163 119.759  0.00  0.00    +0.201 A 
ATOM     16  C   LIG A   1      -5.021   5.147 120.953  0.00  0.00    +0.163 A 
ATOM     17  C   LIG A   1      -5.432   4.338 122.005  0.00  0.00    +0.061 A 
BRANCH  14  18
ATOM     18  O   LIG A   1      -7.509   4.416 118.405  0.00  0.00    -0.503 OA
ATOM     19  H   LIG A   1      -6.897   4.774 117.739  0.00  0.00    +0.292 HD
ENDBRANCH  14  18
BRANCH  15  20
ATOM     20  O   LIG A   1      -5.299   5.970 118.740  0.00  0.00    -0.501 OA
ATOM     21  H   LIG A   1      -5.668   6.848 118.961  0.00  0.00    +0.292 HD
ENDBRANCH  15  20
BRANCH  16  22
ATOM     22  O   LIG A   1      -3.910   5.928 121.098  0.00  0.00    -0.503 OA
ATOM     23  H   LIG A   1      -3.273   5.572 120.447  0.00  0.00    +0.292 HD
ENDBRANCH  16  22
ENDBRANCH   7  12
BRANCH   1  24
ATOM     24  O   LIG A   1      -6.697  -3.241 123.913  0.00  0.00    -0.506 OA
ATOM     25  H   LIG A   1      -6.505  -3.287 122.961  0.00  0.00    +0.292 HD
ENDBRANCH   1  24
BRANCH   3  26
ATOM     26  O   LIG A   1      -8.681  -0.089 126.913  0.00  0.00    -0.506 OA
ATOM     27  H   LIG A   1      -8.233   0.622 127.396  0.00  0.00    +0.292 HD
ENDBRANCH   3  26
BRANCH   6  28
ATOM     28  O   LIG A   1      -7.974   4.395 124.286  0.00  0.00    -0.501 OA
ATOM     29  H   LIG A   1      -8.762   4.358 124.872  0.00  0.00    +0.292 HD
ENDBRANCH   6  28
TORSDOF 7
ENDMDL
MODEL 3
REMARK VINA RESULT:      -7.2      8.296     10.649
REMARK  Name = NuBBE_160
REMARK  7 active torsions:
REMARK  status: ('A' for Active; 'I' for Inactive)
REMARK    1  A    between atoms: O_1  and  C_2
REMARK    2  A    between atoms: C_4  and  O_5
REMARK    3  A    between atoms: C_8  and  O_9
REMARK    4  A    between atoms: C_10  and  C_11
REMARK    5  A    between atoms: C_13  and  O_14
REMARK    6  A    between atoms: C_15  and  O_16
REMARK    7  A    between atoms: C_17  and  O_18
REMARK                            x       y       z     vdW  Elec       q    Type
REMARK                         _______ _______ _______ _____ _____    ______ ____
ROOT
ATOM      1  C   LIG A   1     -11.293   7.399 126.806  0.00  0.00    +0.124 A 
ATOM      2  C   LIG A   1     -12.551   7.318 127.395  0.00  0.00    +0.091 A 
ATOM      3  C   LIG A   1     -12.649   7.077 128.769  0.00  0.00    +0.135 A 
ATOM      4  C   LIG A   1     -11.493   6.919 129.548  0.00  0.00    +0.109 A 
ATOM      5  C   LIG A   1     -11.527   6.665 131.003  0.00  0.00    +0.238 A 
ATOM      6  C   LIG A   1     -10.219   6.498 131.687  0.00  0.00    +0.208 A 
ATOM      7  C   LIG A   1      -9.087   6.594 130.969  0.00  0.00    +0.181 A 
ATOM      8  O   LIG A   1      -9.056   6.862 129.609  0.00  0.00    -0.451 OA
ATOM      9  O   LIG A   1     -12.542   6.587 131.688  0.00  0.00    -0.283 OA
ATOM     10  C   LIG A   1     -10.242   7.003 128.935  0.00  0.00    +0.146 A 
ATOM     11  C   LIG A   1     -10.140   7.244 127.564  0.00  0.00    +0.092 A 
ENDROOT
BRANCH   7  12
ATOM     12  C   LIG A   1      -7.740   6.451 131.560  0.00  0.00    +0.028 A 
ATOM     13  C   LIG A   1      -6.634   7.043 130.919  0.00  0.00    +0.061 A 
ATOM     14  C   LIG A   1      -5.357   6.889 131.452  0.00  0.00    +0.163 A 
ATOM     15  C   LIG A   1      -5.168   6.146 132.611  0.00  0.00    +0.201 A 
ATOM     16  C   LIG A   1      -6.251   5.553 133.243  0.00  0.00    +0.163 A 
ATOM     17  C   LIG A   1      -7.533   5.697 132.729  0.00  0.00    +0.061 A 
BRANCH  14  18
ATOM     18  O   LIG A   1      -4.254   7.448 130.869  0.00  0.00    -0.503 OA
ATOM     19  H   LIG A   1      -3.858   8.071 131.503  0.00  0.00    +0.292 HD
ENDBRANCH  14  18
BRANCH  15  20
ATOM     20  O   LIG A   1      -3.915   5.987 133.140  0.00  0.00    -0.501 OA
ATOM     21  H   LIG A   1      -3.877   5.040 133.382  0.00  0.00    +0.292 HD
ENDBRANCH  15  20
BRANCH  16  22
ATOM     22  O   LIG A   1      -6.059   4.817 134.377  0.00  0.00    -0.503 OA
ATOM     23  H   LIG A   1      -5.575   4.023 134.076  0.00  0.00    +0.292 HD
ENDBRANCH  16  22
ENDBRANCH   7  12
BRANCH   1  24
ATOM     24  O   LIG A   1     -11.144   7.634 125.472  0.00  0.00    -0.506 OA
ATOM     25  H   LIG A   1     -10.697   8.486 125.339  0.00  0.00    +0.292 HD
ENDBRANCH   1  24
BRANCH   3  26
ATOM     26  O   LIG A   1     -13.887   6.999 129.338  0.00  0.00    -0.506 OA
ATOM     27  H   LIG A   1     -14.542   7.485 128.813  0.00  0.00    +0.292 HD
ENDBRANCH   3  26
BRANCH   6  28
ATOM     28  O   LIG A   1     -10.255   6.269 133.050  0.00  0.00    -0.501 OA
ATOM     29  H   LIG A   1      -9.523   6.814 133.412  0.00  0.00    +0.292 HD
ENDBRANCH   6  28
TORSDOF 7
ENDMDL
MODEL 4
REMARK VINA RESULT:      -6.9      2.851      6.543
REMARK  Name = NuBBE_160
REMARK  7 active torsions:
REMARK  status: ('A' for Active; 'I' for Inactive)
REMARK    1  A    between atoms: O_1  and  C_2
REMARK    2  A    between atoms: C_4  and  O_5
REMARK    3  A    between atoms: C_8  and  O_9
REMARK    4  A    between atoms: C_10  and  C_11
REMARK    5  A    between atoms: C_13  and  O_14
REMARK    6  A    between atoms: C_15  and  O_16
REMARK    7  A    between atoms: C_17  and  O_18
REMARK                            x       y       z     vdW  Elec       q    Type
REMARK                         _______ _______ _______ _____ _____    ______ ____
ROOT
ATOM      1  C   LIG A   1      -5.971   4.923 119.546  0.00  0.00    +0.124 A 
ATOM      2  C   LIG A   1      -7.276   4.580 119.207  0.00  0.00    +0.091 A 
ATOM      3  C   LIG A   1      -8.074   3.918 120.146  0.00  0.00    +0.135 A 
ATOM      4  C   LIG A   1      -7.567   3.602 121.415  0.00  0.00    +0.109 A 
ATOM      5  C   LIG A   1      -8.357   2.907 122.452  0.00  0.00    +0.238 A 
ATOM      6  C   LIG A   1      -7.674   2.623 123.740  0.00  0.00    +0.208 A 
ATOM      7  C   LIG A   1      -6.399   3.012 123.906  0.00  0.00    +0.181 A 
ATOM      8  O   LIG A   1      -5.668   3.691 122.943  0.00  0.00    -0.451 OA
ATOM      9  O   LIG A   1      -9.526   2.552 122.336  0.00  0.00    -0.283 OA
ATOM     10  C   LIG A   1      -6.254   3.956 121.731  0.00  0.00    +0.146 A 
ATOM     11  C   LIG A   1      -5.454   4.617 120.798  0.00  0.00    +0.092 A 
ENDROOT
BRANCH   7  12
ATOM     12  C   LIG A   1      -5.638   2.781 125.152  0.00  0.00    +0.028 A 
ATOM     13  C   LIG A   1      -4.832   3.812 125.674  0.00  0.00    +0.061 A 
ATOM     14  C   LIG A   1      -4.089   3.595 126.831  0.00  0.00    +0.163 A 
ATOM     15  C   LIG A   1      -4.133   2.362 127.470  0.00  0.00    +0.201 A 
ATOM     16  C   LIG A   1      -4.919   1.340 126.957  0.00  0.00    +0.163 A 
ATOM     17  C   LIG A   1      -5.670   1.538 125.805  0.00  0.00    +0.061 A 
BRANCH  14  18
ATOM     18  O   LIG A   1      -3.296   4.566 127.377  0.00  0.00    -0.503 OA
ATOM     19  H   LIG A   1      -2.999   5.154 126.662  0.00  0.00    +0.292 HD
ENDBRANCH  14  18
BRANCH  15  20
ATOM     20  O   LIG A   1      -3.404   2.140 128.607  0.00  0.00    -0.501 OA
ATOM     21  H   LIG A   1      -3.902   1.439 129.075  0.00  0.00    +0.292 HD
ENDBRANCH  15  20
BRANCH  16  22
ATOM     22  O   LIG A   1      -4.953   0.127 127.584  0.00  0.00    -0.503 OA
ATOM     23  H   LIG A   1      -4.025  -0.044 127.840  0.00  0.00    +0.292 HD
ENDBRANCH  16  22
ENDBRANCH   7  12
BRANCH   1  24
ATOM     24  O   LIG A   1      -5.154   5.571 118.668  0.00  0.00    -0.506 OA
ATOM     25  H   LIG A   1      -4.820   6.388 119.075  0.00  0.00    +0.292 HD
ENDBRANCH   1  24
BRANCH   3  26
ATOM     26  O   LIG A   1      -9.353   3.585 119.805  0.00  0.00    -0.506 OA
ATOM     27  H   LIG A   1      -9.808   3.152 120.544  0.00  0.00    +0.292 HD
ENDBRANCH   3  26
BRANCH   6  28
ATOM     28  O   LIG A   1      -8.420   1.979 124.710  0.00  0.00    -0.501 OA
ATOM     29  H   LIG A   1      -7.768   1.431 125.200  0.00  0.00    +0.292 HD
ENDBRANCH   6  28
TORSDOF 7
ENDMDL
MODEL 5
REMARK VINA RESULT:      -6.9      5.231      9.446
REMARK  Name = NuBBE_160
REMARK  7 active torsions:
REMARK  status: ('A' for Active; 'I' for Inactive)
REMARK    1  A    between atoms: O_1  and  C_2
REMARK    2  A    between atoms: C_4  and  O_5
REMARK    3  A    between atoms: C_8  and  O_9
REMARK    4  A    between atoms: C_10  and  C_11
REMARK    5  A    between atoms: C_13  and  O_14
REMARK    6  A    between atoms: C_15  and  O_16
REMARK    7  A    between atoms: C_17  and  O_18
REMARK                            x       y       z     vdW  Elec       q    Type
REMARK                         _______ _______ _______ _____ _____    ______ ____
ROOT
ATOM      1  C   LIG A   1      -9.242  -3.085 123.961  0.00  0.00    +0.124 A 
ATOM      2  C   LIG A   1      -8.358  -2.311 123.216  0.00  0.00    +0.091 A 
ATOM      3  C   LIG A   1      -7.258  -1.727 123.853  0.00  0.00    +0.135 A 
ATOM      4  C   LIG A   1      -7.046  -1.916 125.226  0.00  0.00    +0.109 A 
ATOM      5  C   LIG A   1      -5.904  -1.329 125.957  0.00  0.00    +0.238 A 
ATOM      6  C   LIG A   1      -5.828  -1.602 127.415  0.00  0.00    +0.208 A 
ATOM      7  C   LIG A   1      -6.773  -2.364 127.990  0.00  0.00    +0.181 A 
ATOM      8  O   LIG A   1      -7.827  -2.939 127.297  0.00  0.00    -0.451 OA
ATOM      9  O   LIG A   1      -5.018  -0.642 125.458  0.00  0.00    -0.283 OA
ATOM     10  C   LIG A   1      -7.948  -2.696 125.953  0.00  0.00    +0.146 A 
ATOM     11  C   LIG A   1      -9.046  -3.282 125.322  0.00  0.00    +0.092 A 
ENDROOT
BRANCH   7  12
ATOM     12  C   LIG A   1      -6.778  -2.697 129.430  0.00  0.00    +0.028 A 
ATOM     13  C   LIG A   1      -7.465  -1.861 130.333  0.00  0.00    +0.061 A 
ATOM     14  C   LIG A   1      -7.451  -2.149 131.695  0.00  0.00    +0.163 A 
ATOM     15  C   LIG A   1      -6.756  -3.255 132.169  0.00  0.00    +0.201 A 
ATOM     16  C   LIG A   1      -6.072  -4.078 131.287  0.00  0.00    +0.163 A 
ATOM     17  C   LIG A   1      -6.075  -3.809 129.923  0.00  0.00    +0.061 A 
BRANCH  14  18
ATOM     18  O   LIG A   1      -8.106  -1.371 132.608  0.00  0.00    -0.503 OA
ATOM     19  H   LIG A   1      -8.928  -1.826 132.862  0.00  0.00    +0.292 HD
ENDBRANCH  14  18
BRANCH  15  20
ATOM     20  O   LIG A   1      -6.736  -3.545 133.506  0.00  0.00    -0.501 OA
ATOM     21  H   LIG A   1      -6.863  -2.676 133.940  0.00  0.00    +0.292 HD
ENDBRANCH  15  20
BRANCH  16  22
ATOM     22  O   LIG A   1      -5.383  -5.159 131.758  0.00  0.00    -0.503 OA
ATOM     23  H   LIG A   1      -4.923  -5.518 130.973  0.00  0.00    +0.292 HD
ENDBRANCH  16  22
ENDBRANCH   7  12
BRANCH   1  24
ATOM     24  O   LIG A   1     -10.327  -3.678 123.389  0.00  0.00    -0.506 OA
ATOM     25  H   LIG A   1     -11.108  -3.112 123.508  0.00  0.00    +0.292 HD
ENDBRANCH   1  24
BRANCH   3  26
ATOM     26  O   LIG A   1      -6.396  -0.969 123.113  0.00  0.00    -0.506 OA
ATOM     27  H   LIG A   1      -5.980  -0.283 123.659  0.00  0.00    +0.292 HD
ENDBRANCH   3  26
BRANCH   6  28
ATOM     28  O   LIG A   1      -4.753  -1.057 128.093  0.00  0.00    -0.501 OA
ATOM     29  H   LIG A   1      -5.113  -0.247 128.517  0.00  0.00    +0.292 HD
ENDBRANCH   6  28
TORSDOF 7
ENDMDL
MODEL 6
REMARK VINA RESULT:      -6.9      7.602     10.651
REMARK  Name = NuBBE_160
REMARK  7 active torsions:
REMARK  status: ('A' for Active; 'I' for Inactive)
REMARK    1  A    between atoms: O_1  and  C_2
REMARK    2  A    between atoms: C_4  and  O_5
REMARK    3  A    between atoms: C_8  and  O_9
REMARK    4  A    between atoms: C_10  and  C_11
REMARK    5  A    between atoms: C_13  and  O_14
REMARK    6  A    between atoms: C_15  and  O_16
REMARK    7  A    between atoms: C_17  and  O_18
REMARK                            x       y       z     vdW  Elec       q    Type
REMARK                         _______ _______ _______ _____ _____    ______ ____
ROOT
ATOM      1  C   LIG A   1     -10.973   7.790 127.042  0.00  0.00    +0.124 A 
ATOM      2  C   LIG A   1     -11.769   8.598 127.847  0.00  0.00    +0.091 A 
ATOM      3  C   LIG A   1     -11.891   8.298 129.208  0.00  0.00    +0.135 A 
ATOM      4  C   LIG A   1     -11.220   7.196 129.757  0.00  0.00    +0.109 A 
ATOM      5  C   LIG A   1     -11.305   6.826 131.185  0.00  0.00    +0.238 A 
ATOM      6  C   LIG A   1     -10.554   5.618 131.612  0.00  0.00    +0.208 A 
ATOM      7  C   LIG A   1      -9.836   4.936 130.703  0.00  0.00    +0.181 A 
ATOM      8  O   LIG A   1      -9.733   5.301 129.370  0.00  0.00    -0.451 OA
ATOM      9  O   LIG A   1     -11.938   7.435 132.040  0.00  0.00    -0.283 OA
ATOM     10  C   LIG A   1     -10.428   6.399 128.928  0.00  0.00    +0.146 A 
ATOM     11  C   LIG A   1     -10.302   6.695 127.570  0.00  0.00    +0.092 A 
ENDROOT
BRANCH   7  12
ATOM     12  C   LIG A   1      -9.051   3.728 131.033  0.00  0.00    +0.028 A 
ATOM     13  C   LIG A   1      -9.719   2.510 131.268  0.00  0.00    +0.061 A 
ATOM     14  C   LIG A   1      -8.990   1.373 131.609  0.00  0.00    +0.163 A 
ATOM     15  C   LIG A   1      -7.608   1.437 131.725  0.00  0.00    +0.201 A 
ATOM     16  C   LIG A   1      -6.944   2.635 131.503  0.00  0.00    +0.163 A 
ATOM     17  C   LIG A   1      -7.652   3.780 131.160  0.00  0.00    +0.061 A 
BRANCH  14  18
ATOM     18  O   LIG A   1      -9.593   0.168 131.841  0.00  0.00    -0.503 OA
ATOM     19  H   LIG A   1      -9.428  -0.081 132.767  0.00  0.00    +0.292 HD
ENDBRANCH  14  18
BRANCH  15  20
ATOM     20  O   LIG A   1      -6.884   0.324 132.061  0.00  0.00    -0.501 OA
ATOM     21  H   LIG A   1      -7.388  -0.072 132.801  0.00  0.00    +0.292 HD
ENDBRANCH  15  20
BRANCH  16  22
ATOM     22  O   LIG A   1      -5.586   2.695 131.626  0.00  0.00    -0.503 OA
ATOM     23  H   LIG A   1      -5.421   3.518 132.128  0.00  0.00    +0.292 HD
ENDBRANCH  16  22
ENDBRANCH   7  12
BRANCH   1  24
ATOM     24  O   LIG A   1     -10.819   8.041 125.711  0.00  0.00    -0.506 OA
ATOM     25  H   LIG A   1      -9.912   7.821 125.440  0.00  0.00    +0.292 HD
ENDBRANCH   1  24
BRANCH   3  26
ATOM     26  O   LIG A   1     -12.675   9.096 129.990  0.00  0.00    -0.506 OA
ATOM     27  H   LIG A   1     -13.542   8.689 130.143  0.00  0.00    +0.292 HD
ENDBRANCH   3  26
BRANCH   6  28
ATOM     28  O   LIG A   1     -10.630   5.280 132.951  0.00  0.00    -0.501 OA
ATOM     29  H   LIG A   1     -11.561   4.995 133.082  0.00  0.00    +0.292 HD
ENDBRANCH   6  28
TORSDOF 7
ENDMDL
MODEL 7
REMARK VINA RESULT:      -6.7      3.614      6.569
REMARK  Name = NuBBE_160
REMARK  7 active torsions:
REMARK  status: ('A' for Active; 'I' for Inactive)
REMARK    1  A    between atoms: O_1  and  C_2
REMARK    2  A    between atoms: C_4  and  O_5
REMARK    3  A    between atoms: C_8  and  O_9
REMARK    4  A    between atoms: C_10  and  C_11
REMARK    5  A    between atoms: C_13  and  O_14
REMARK    6  A    between atoms: C_15  and  O_16
REMARK    7  A    between atoms: C_17  and  O_18
REMARK                            x       y       z     vdW  Elec       q    Type
REMARK                         _______ _______ _______ _____ _____    ______ ____
ROOT
ATOM      1  C   LIG A   1      -5.892   4.709 119.827  0.00  0.00    +0.124 A 
ATOM      2  C   LIG A   1      -7.159   4.146 119.708  0.00  0.00    +0.091 A 
ATOM      3  C   LIG A   1      -7.794   3.647 120.850  0.00  0.00    +0.135 A 
ATOM      4  C   LIG A   1      -7.164   3.711 122.101  0.00  0.00    +0.109 A 
ATOM      5  C   LIG A   1      -7.782   3.204 123.344  0.00  0.00    +0.238 A 
ATOM      6  C   LIG A   1      -6.980   3.323 124.589  0.00  0.00    +0.208 A 
ATOM      7  C   LIG A   1      -5.761   3.885 124.533  0.00  0.00    +0.181 A 
ATOM      8  O   LIG A   1      -5.196   4.387 123.372  0.00  0.00    -0.451 OA
ATOM      9  O   LIG A   1      -8.897   2.701 123.431  0.00  0.00    -0.283 OA
ATOM     10  C   LIG A   1      -5.893   4.279 122.195  0.00  0.00    +0.146 A 
ATOM     11  C   LIG A   1      -5.255   4.779 121.060  0.00  0.00    +0.092 A 
ENDROOT
BRANCH   7  12
ATOM     12  C   LIG A   1      -4.893   4.054 125.718  0.00  0.00    +0.028 A 
ATOM     13  C   LIG A   1      -3.837   3.148 125.939  0.00  0.00    +0.061 A 
ATOM     14  C   LIG A   1      -3.032   3.281 127.068  0.00  0.00    +0.163 A 
ATOM     15  C   LIG A   1      -3.271   4.300 127.981  0.00  0.00    +0.201 A 
ATOM     16  C   LIG A   1      -4.314   5.191 127.774  0.00  0.00    +0.163 A 
ATOM     17  C   LIG A   1      -5.127   5.077 126.653  0.00  0.00    +0.061 A 
BRANCH  14  18
ATOM     18  O   LIG A   1      -1.993   2.430 127.322  0.00  0.00    -0.503 OA
ATOM     19  H   LIG A   1      -1.393   2.863 127.954  0.00  0.00    +0.292 HD
ENDBRANCH  14  18
BRANCH  15  20
ATOM     20  O   LIG A   1      -2.486   4.436 129.094  0.00  0.00    -0.501 OA
ATOM     21  H   LIG A   1      -1.706   3.876 128.905  0.00  0.00    +0.292 HD
ENDBRANCH  15  20
BRANCH  16  22
ATOM     22  O   LIG A   1      -4.551   6.186 128.679  0.00  0.00    -0.503 OA
ATOM     23  H   LIG A   1      -4.368   7.012 128.189  0.00  0.00    +0.292 HD
ENDBRANCH  16  22
ENDBRANCH   7  12
BRANCH   1  24
ATOM     24  O   LIG A   1      -5.231   5.211 118.747  0.00  0.00    -0.506 OA
ATOM     25  H   LIG A   1      -5.613   4.845 117.932  0.00  0.00    +0.292 HD
ENDBRANCH   1  24
BRANCH   3  26
ATOM     26  O   LIG A   1      -9.037   3.096 120.724  0.00  0.00    -0.506 OA
ATOM     27  H   LIG A   1      -8.979   2.146 120.540  0.00  0.00    +0.292 HD
ENDBRANCH   3  26
BRANCH   6  28
ATOM     28  O   LIG A   1      -7.565   2.855 125.752  0.00  0.00    -0.501 OA
ATOM     29  H   LIG A   1      -8.440   2.510 125.467  0.00  0.00    +0.292 HD
ENDBRANCH   6  28
TORSDOF 7
ENDMDL
MODEL 8
REMARK VINA RESULT:      -6.7      6.692      9.022
REMARK  Name = NuBBE_160
REMARK  7 active torsions:
REMARK  status: ('A' for Active; 'I' for Inactive)
REMARK    1  A    between atoms: O_1  and  C_2
REMARK    2  A    between atoms: C_4  and  O_5
REMARK    3  A    between atoms: C_8  and  O_9
REMARK    4  A    between atoms: C_10  and  C_11
REMARK    5  A    between atoms: C_13  and  O_14
REMARK    6  A    between atoms: C_15  and  O_16
REMARK    7  A    between atoms: C_17  and  O_18
REMARK                            x       y       z     vdW  Elec       q    Type
REMARK                         _______ _______ _______ _____ _____    ______ ____
ROOT
ATOM      1  C   LIG A   1      -7.880   0.549 128.609  0.00  0.00    +0.124 A 
ATOM      2  C   LIG A   1      -7.542  -0.036 129.825  0.00  0.00    +0.091 A 
ATOM      3  C   LIG A   1      -7.866   0.626 131.015  0.00  0.00    +0.135 A 
ATOM      4  C   LIG A   1      -8.523   1.864 130.984  0.00  0.00    +0.109 A 
ATOM      5  C   LIG A   1      -8.894   2.613 132.203  0.00  0.00    +0.238 A 
ATOM      6  C   LIG A   1      -9.568   3.922 132.007  0.00  0.00    +0.208 A 
ATOM      7  C   LIG A   1      -9.815   4.353 130.759  0.00  0.00    +0.181 A 
ATOM      8  O   LIG A   1      -9.492   3.636 129.617  0.00  0.00    -0.451 OA
ATOM      9  O   LIG A   1      -8.697   2.240 133.354  0.00  0.00    -0.283 OA
ATOM     10  C   LIG A   1      -8.851   2.431 129.751  0.00  0.00    +0.146 A 
ATOM     11  C   LIG A   1      -8.531   1.775 128.562  0.00  0.00    +0.092 A 
ENDROOT
BRANCH   7  12
ATOM     12  C   LIG A   1     -10.485   5.637 130.464  0.00  0.00    +0.028 A 
ATOM     13  C   LIG A   1     -11.683   5.964 131.132  0.00  0.00    +0.061 A 
ATOM     14  C   LIG A   1     -12.338   7.157 130.840  0.00  0.00    +0.163 A 
ATOM     15  C   LIG A   1     -11.819   8.025 129.887  0.00  0.00    +0.201 A 
ATOM     16  C   LIG A   1     -10.645   7.706 129.221  0.00  0.00    +0.163 A 
ATOM     17  C   LIG A   1      -9.975   6.522 129.499  0.00  0.00    +0.061 A 
BRANCH  14  18
ATOM     18  O   LIG A   1     -13.499   7.520 131.465  0.00  0.00    -0.503 OA
ATOM     19  H   LIG A   1     -13.471   7.183 132.378  0.00  0.00    +0.292 HD
ENDBRANCH  14  18
BRANCH  15  20
ATOM     20  O   LIG A   1     -12.458   9.199 129.593  0.00  0.00    -0.501 OA
ATOM     21  H   LIG A   1     -12.958   9.408 130.408  0.00  0.00    +0.292 HD
ENDBRANCH  15  20
BRANCH  16  22
ATOM     22  O   LIG A   1     -10.144   8.558 128.279  0.00  0.00    -0.503 OA
ATOM     23  H   LIG A   1     -10.180   9.440 128.700  0.00  0.00    +0.292 HD
ENDBRANCH  16  22
ENDBRANCH   7  12
BRANCH   1  24
ATOM     24  O   LIG A   1      -7.589  -0.056 127.422  0.00  0.00    -0.506 OA
ATOM     25  H   LIG A   1      -8.296  -0.682 127.194  0.00  0.00    +0.292 HD
ENDBRANCH   1  24
BRANCH   3  26
ATOM     26  O   LIG A   1      -7.529   0.045 132.203  0.00  0.00    -0.506 OA
ATOM     27  H   LIG A   1      -6.568   0.050 132.333  0.00  0.00    +0.292 HD
ENDBRANCH   3  26
BRANCH   6  28
ATOM     28  O   LIG A   1      -9.921   4.616 133.151  0.00  0.00    -0.501 OA
ATOM     29  H   LIG A   1     -10.430   3.968 133.686  0.00  0.00    +0.292 HD
ENDBRANCH   6  28
TORSDOF 7
ENDMDL
MODEL 9
REMARK VINA RESULT:      -6.7      3.570      8.445
REMARK  Name = NuBBE_160
REMARK  7 active torsions:
REMARK  status: ('A' for Active; 'I' for Inactive)
REMARK    1  A    between atoms: O_1  and  C_2
REMARK    2  A    between atoms: C_4  and  O_5
REMARK    3  A    between atoms: C_8  and  O_9
REMARK    4  A    between atoms: C_10  and  C_11
REMARK    5  A    between atoms: C_13  and  O_14
REMARK    6  A    between atoms: C_15  and  O_16
REMARK    7  A    between atoms: C_17  and  O_18
REMARK                            x       y       z     vdW  Elec       q    Type
REMARK                         _______ _______ _______ _____ _____    ______ ____
ROOT
ATOM      1  C   LIG A   1      -8.608   2.512 124.185  0.00  0.00    +0.124 A 
ATOM      2  C   LIG A   1      -9.345   1.801 123.243  0.00  0.00    +0.091 A 
ATOM      3  C   LIG A   1      -9.493   0.418 123.393  0.00  0.00    +0.135 A 
ATOM      4  C   LIG A   1      -8.906  -0.247 124.479  0.00  0.00    +0.109 A 
ATOM      5  C   LIG A   1      -9.025  -1.704 124.695  0.00  0.00    +0.238 A 
ATOM      6  C   LIG A   1      -8.329  -2.266 125.881  0.00  0.00    +0.208 A 
ATOM      7  C   LIG A   1      -7.646  -1.441 126.692  0.00  0.00    +0.181 A 
ATOM      8  O   LIG A   1      -7.559  -0.071 126.504  0.00  0.00    -0.451 OA
ATOM      9  O   LIG A   1      -9.653  -2.479 123.982  0.00  0.00    -0.283 OA
ATOM     10  C   LIG A   1      -8.170   0.488 125.411  0.00  0.00    +0.146 A 
ATOM     11  C   LIG A   1      -8.021   1.868 125.266  0.00  0.00    +0.092 A 
ENDROOT
BRANCH   7  12
ATOM     12  C   LIG A   1      -6.928  -1.906 127.898  0.00  0.00    +0.028 A 
ATOM     13  C   LIG A   1      -5.523  -2.012 127.871  0.00  0.00    +0.061 A 
ATOM     14  C   LIG A   1      -4.840  -2.476 128.992  0.00  0.00    +0.163 A 
ATOM     15  C   LIG A   1      -5.539  -2.842 130.136  0.00  0.00    +0.201 A 
ATOM     16  C   LIG A   1      -6.922  -2.747 130.167  0.00  0.00    +0.163 A 
ATOM     17  C   LIG A   1      -7.623  -2.284 129.060  0.00  0.00    +0.061 A 
BRANCH  14  18
ATOM     18  O   LIG A   1      -3.478  -2.592 129.016  0.00  0.00    -0.503 OA
ATOM     19  H   LIG A   1      -3.159  -2.622 128.096  0.00  0.00    +0.292 HD
ENDBRANCH  14  18
BRANCH  15  20
ATOM     20  O   LIG A   1      -4.875  -3.301 131.241  0.00  0.00    -0.501 OA
ATOM     21  H   LIG A   1      -4.560  -2.487 131.685  0.00  0.00    +0.292 HD
ENDBRANCH  15  20
BRANCH  16  22
ATOM     22  O   LIG A   1      -7.606  -3.116 131.290  0.00  0.00    -0.503 OA
ATOM     23  H   LIG A   1      -6.920  -3.186 131.983  0.00  0.00    +0.292 HD
ENDBRANCH  16  22
ENDBRANCH   7  12
BRANCH   1  24
ATOM     24  O   LIG A   1      -8.437   3.861 124.086  0.00  0.00    -0.506 OA
ATOM     25  H   LIG A   1      -9.265   4.312 124.317  0.00  0.00    +0.292 HD
ENDBRANCH   1  24
BRANCH   3  26
ATOM     26  O   LIG A   1     -10.217  -0.271 122.463  0.00  0.00    -0.506 OA
ATOM     27  H   LIG A   1      -9.720  -1.036 122.133  0.00  0.00    +0.292 HD
ENDBRANCH   3  26
BRANCH   6  28
ATOM     28  O   LIG A   1      -8.451  -3.628 126.084  0.00  0.00    -0.501 OA
ATOM     29  H   LIG A   1      -8.763  -3.980 125.222  0.00  0.00    +0.292 HD
ENDBRANCH   6  28
TORSDOF 7
ENDMDL
