MODEL 1
REMARK VINA RESULT:      -7.6      0.000      0.000
REMARK  Name = NuBBE_567
REMARK  4 active torsions:
REMARK  status: ('A' for Active; 'I' for Inactive)
REMARK    1  A    between atoms: O_1  and  C_2
REMARK    2  A    between atoms: C_5  and  O_6
REMARK    3  A    between atoms: C_8  and  C_9
REMARK    4  A    between atoms: C_15  and  O_16
REMARK                            x       y       z     vdW  Elec       q    Type
REMARK                         _______ _______ _______ _____ _____    ______ ____
ROOT
ATOM      1  C   LIG A   1      -8.362   2.284 122.983  0.00  0.00    +0.058 C 
ATOM      2  C   LIG A   1      -8.122   1.017 123.345  0.00  0.00    +0.176 C 
ATOM      3  C   LIG A   1      -9.027   0.247 124.241  0.00  0.00    +0.232 C 
ATOM      4  C   LIG A   1      -8.356  -1.041 124.357  0.00  0.00    +0.068 A 
ATOM      5  C   LIG A   1      -8.718  -2.174 125.058  0.00  0.00    +0.019 A 
ATOM      6  C   LIG A   1      -7.860  -3.275 124.974  0.00  0.00    +0.046 A 
ATOM      7  C   LIG A   1      -6.687  -3.200 124.202  0.00  0.00    +0.120 A 
ATOM      8  C   LIG A   1      -6.337  -2.045 123.500  0.00  0.00    +0.092 A 
ATOM      9  C   LIG A   1      -7.194  -0.970 123.594  0.00  0.00    +0.143 A 
ATOM     10  O   LIG A   1      -7.024   0.248 122.976  0.00  0.00    -0.451 OA
ATOM     11  O   LIG A   1     -10.071   0.587 124.754  0.00  0.00    -0.283 OA
ENDROOT
BRANCH   1  17
ATOM     12  C   LIG A   1      -5.907   4.606 120.378  0.00  0.00    +0.158 A 
ATOM     13  C   LIG A   1      -5.399   4.228 121.612  0.00  0.00    +0.050 A 
ATOM     14  C   LIG A   1      -6.200   3.472 122.477  0.00  0.00    +0.012 A 
ATOM     15  C   LIG A   1      -7.194   4.232 120.006  0.00  0.00    +0.159 A 
ATOM     16  C   LIG A   1      -7.995   3.484 120.858  0.00  0.00    +0.057 A 
ATOM     17  C   LIG A   1      -7.508   3.106 122.116  0.00  0.00    -0.018 A 
BRANCH  12  18
ATOM     18  O   LIG A   1      -5.174   5.342 119.488  0.00  0.00    -0.503 OA
ATOM     19  H   LIG A   1      -4.348   5.609 119.926  0.00  0.00    +0.292 HD
ENDBRANCH  12  18
BRANCH  15  20
ATOM     20  O   LIG A   1      -7.684   4.602 118.785  0.00  0.00    -0.503 OA
ATOM     21  H   LIG A   1      -8.199   3.826 118.483  0.00  0.00    +0.292 HD
ENDBRANCH  15  20
ENDBRANCH   1  17
BRANCH   7  22
ATOM     22  O   LIG A   1      -5.839  -4.267 124.110  0.00  0.00    -0.507 OA
ATOM     23  H   LIG A   1      -5.851  -4.603 123.198  0.00  0.00    +0.292 HD
ENDBRANCH   7  22
TORSDOF 4
ENDMDL
MODEL 2
REMARK VINA RESULT:      -7.6      1.734      2.378
REMARK  Name = NuBBE_567
REMARK  4 active torsions:
REMARK  status: ('A' for Active; 'I' for Inactive)
REMARK    1  A    between atoms: O_1  and  C_2
REMARK    2  A    between atoms: C_5  and  O_6
REMARK    3  A    between atoms: C_8  and  C_9
REMARK    4  A    between atoms: C_15  and  O_16
REMARK                            x       y       z     vdW  Elec       q    Type
REMARK                         _______ _______ _______ _____ _____    ______ ____
ROOT
ATOM      1  C   LIG A   1      -6.412   2.984 123.827  0.00  0.00    +0.058 C 
ATOM      2  C   LIG A   1      -7.005   1.799 124.025  0.00  0.00    +0.176 C 
ATOM      3  C   LIG A   1      -7.229   1.224 125.378  0.00  0.00    +0.232 C 
ATOM      4  C   LIG A   1      -7.872  -0.052 125.089  0.00  0.00    +0.068 A 
ATOM      5  C   LIG A   1      -8.324  -1.036 125.946  0.00  0.00    +0.019 A 
ATOM      6  C   LIG A   1      -8.910  -2.165 125.366  0.00  0.00    +0.046 A 
ATOM      7  C   LIG A   1      -9.019  -2.264 123.967  0.00  0.00    +0.120 A 
ATOM      8  C   LIG A   1      -8.556  -1.259 123.117  0.00  0.00    +0.092 A 
ATOM      9  C   LIG A   1      -7.982  -0.154 123.705  0.00  0.00    +0.143 A 
ATOM     10  O   LIG A   1      -7.471   0.936 123.039  0.00  0.00    -0.451 OA
ATOM     11  O   LIG A   1      -6.957   1.686 126.465  0.00  0.00    -0.283 OA
ENDROOT
BRANCH   1  17
ATOM     12  C   LIG A   1      -5.633   4.888 120.089  0.00  0.00    +0.158 A 
ATOM     13  C   LIG A   1      -6.674   3.974 120.169  0.00  0.00    +0.050 A 
ATOM     14  C   LIG A   1      -6.932   3.339 121.390  0.00  0.00    +0.012 A 
ATOM     15  C   LIG A   1      -4.862   5.170 121.212  0.00  0.00    +0.159 A 
ATOM     16  C   LIG A   1      -5.110   4.544 122.426  0.00  0.00    +0.057 A 
ATOM     17  C   LIG A   1      -6.146   3.605 122.524  0.00  0.00    -0.018 A 
BRANCH  12  18
ATOM     18  O   LIG A   1      -5.332   5.543 118.927  0.00  0.00    -0.503 OA
ATOM     19  H   LIG A   1      -6.147   5.616 118.402  0.00  0.00    +0.292 HD
ENDBRANCH  12  18
BRANCH  15  20
ATOM     20  O   LIG A   1      -3.844   6.078 121.127  0.00  0.00    -0.503 OA
ATOM     21  H   LIG A   1      -3.194   5.661 120.526  0.00  0.00    +0.292 HD
ENDBRANCH  15  20
ENDBRANCH   1  17
BRANCH   7  22
ATOM     22  O   LIG A   1      -9.590  -3.360 123.385  0.00  0.00    -0.507 OA
ATOM     23  H   LIG A   1      -8.991  -4.120 123.486  0.00  0.00    +0.292 HD
ENDBRANCH   7  22
TORSDOF 4
ENDMDL
MODEL 3
REMARK VINA RESULT:      -7.5      9.097     10.822
REMARK  Name = NuBBE_567
REMARK  4 active torsions:
REMARK  status: ('A' for Active; 'I' for Inactive)
REMARK    1  A    between atoms: O_1  and  C_2
REMARK    2  A    between atoms: C_5  and  O_6
REMARK    3  A    between atoms: C_8  and  C_9
REMARK    4  A    between atoms: C_15  and  O_16
REMARK                            x       y       z     vdW  Elec       q    Type
REMARK                         _______ _______ _______ _____ _____    ______ ____
ROOT
ATOM      1  C   LIG A   1      -9.090   6.377 131.821  0.00  0.00    +0.058 C 
ATOM      2  C   LIG A   1      -9.884   6.553 130.757  0.00  0.00    +0.176 C 
ATOM      3  C   LIG A   1     -11.369   6.504 130.840  0.00  0.00    +0.232 C 
ATOM      4  C   LIG A   1     -11.782   6.728 129.461  0.00  0.00    +0.068 A 
ATOM      5  C   LIG A   1     -13.046   6.796 128.909  0.00  0.00    +0.019 A 
ATOM      6  C   LIG A   1     -13.128   7.030 127.533  0.00  0.00    +0.046 A 
ATOM      7  C   LIG A   1     -11.955   7.185 126.771  0.00  0.00    +0.120 A 
ATOM      8  C   LIG A   1     -10.686   7.114 127.347  0.00  0.00    +0.092 A 
ATOM      9  C   LIG A   1     -10.624   6.883 128.704  0.00  0.00    +0.143 A 
ATOM     10  O   LIG A   1      -9.472   6.782 129.449  0.00  0.00    -0.451 OA
ATOM     11  O   LIG A   1     -12.079   6.327 131.806  0.00  0.00    -0.283 OA
ENDROOT
BRANCH   1  17
ATOM     12  C   LIG A   1      -4.826   6.429 131.679  0.00  0.00    +0.158 A 
ATOM     13  C   LIG A   1      -5.453   5.623 132.618  0.00  0.00    +0.050 A 
ATOM     14  C   LIG A   1      -6.851   5.605 132.677  0.00  0.00    +0.012 A 
ATOM     15  C   LIG A   1      -5.582   7.205 130.806  0.00  0.00    +0.159 A 
ATOM     16  C   LIG A   1      -6.969   7.193 130.858  0.00  0.00    +0.057 A 
ATOM     17  C   LIG A   1      -7.622   6.399 131.810  0.00  0.00    -0.018 A 
BRANCH  12  18
ATOM     18  O   LIG A   1      -3.465   6.489 131.569  0.00  0.00    -0.503 OA
ATOM     19  H   LIG A   1      -3.084   5.810 132.151  0.00  0.00    +0.292 HD
ENDBRANCH  12  18
BRANCH  15  20
ATOM     20  O   LIG A   1      -4.958   7.990 129.877  0.00  0.00    -0.503 OA
ATOM     21  H   LIG A   1      -5.372   8.870 129.984  0.00  0.00    +0.292 HD
ENDBRANCH  15  20
ENDBRANCH   1  17
BRANCH   7  22
ATOM     22  O   LIG A   1     -12.019   7.414 125.427  0.00  0.00    -0.507 OA
ATOM     23  H   LIG A   1     -11.746   6.610 124.955  0.00  0.00    +0.292 HD
ENDBRANCH   7  22
TORSDOF 4
ENDMDL
MODEL 4
REMARK VINA RESULT:      -7.4      3.309      4.135
REMARK  Name = NuBBE_567
REMARK  4 active torsions:
REMARK  status: ('A' for Active; 'I' for Inactive)
REMARK    1  A    between atoms: O_1  and  C_2
REMARK    2  A    between atoms: C_5  and  O_6
REMARK    3  A    between atoms: C_8  and  C_9
REMARK    4  A    between atoms: C_15  and  O_16
REMARK                            x       y       z     vdW  Elec       q    Type
REMARK                         _______ _______ _______ _____ _____    ______ ____
ROOT
ATOM      1  C   LIG A   1      -8.290   0.639 124.488  0.00  0.00    +0.058 C 
ATOM      2  C   LIG A   1      -8.302  -0.307 125.436  0.00  0.00    +0.176 C 
ATOM      3  C   LIG A   1      -8.899  -1.654 125.225  0.00  0.00    +0.232 C 
ATOM      4  C   LIG A   1      -8.694  -2.308 126.511  0.00  0.00    +0.068 A 
ATOM      5  C   LIG A   1      -9.034  -3.580 126.928  0.00  0.00    +0.019 A 
ATOM      6  C   LIG A   1      -8.700  -3.930 128.239  0.00  0.00    +0.046 A 
ATOM      7  C   LIG A   1      -8.046  -3.005 129.073  0.00  0.00    +0.120 A 
ATOM      8  C   LIG A   1      -7.711  -1.723 128.634  0.00  0.00    +0.092 A 
ATOM      9  C   LIG A   1      -8.047  -1.395 127.339  0.00  0.00    +0.143 A 
ATOM     10  O   LIG A   1      -7.800  -0.188 126.726  0.00  0.00    -0.451 OA
ATOM     11  O   LIG A   1      -9.426  -2.115 124.235  0.00  0.00    -0.283 OA
ENDROOT
BRANCH   1  17
ATOM     12  C   LIG A   1      -6.760   4.605 124.849  0.00  0.00    +0.158 A 
ATOM     13  C   LIG A   1      -5.912   3.601 124.405  0.00  0.00    +0.050 A 
ATOM     14  C   LIG A   1      -6.404   2.295 124.291  0.00  0.00    +0.012 A 
ATOM     15  C   LIG A   1      -8.082   4.315 125.170  0.00  0.00    +0.159 A 
ATOM     16  C   LIG A   1      -8.576   3.023 125.060  0.00  0.00    +0.057 A 
ATOM     17  C   LIG A   1      -7.733   1.990 124.630  0.00  0.00    -0.018 A 
BRANCH  12  18
ATOM     18  O   LIG A   1      -6.341   5.900 124.980  0.00  0.00    -0.503 OA
ATOM     19  H   LIG A   1      -5.622   5.921 125.634  0.00  0.00    +0.292 HD
ENDBRANCH  12  18
BRANCH  15  20
ATOM     20  O   LIG A   1      -8.913   5.312 125.598  0.00  0.00    -0.503 OA
ATOM     21  H   LIG A   1      -9.725   5.199 125.064  0.00  0.00    +0.292 HD
ENDBRANCH  15  20
ENDBRANCH   1  17
BRANCH   7  22
ATOM     22  O   LIG A   1      -7.713  -3.332 130.356  0.00  0.00    -0.507 OA
ATOM     23  H   LIG A   1      -8.154  -4.164 130.596  0.00  0.00    +0.292 HD
ENDBRANCH   7  22
TORSDOF 4
ENDMDL
MODEL 5
REMARK VINA RESULT:      -7.3      4.389      7.205
REMARK  Name = NuBBE_567
REMARK  4 active torsions:
REMARK  status: ('A' for Active; 'I' for Inactive)
REMARK    1  A    between atoms: O_1  and  C_2
REMARK    2  A    between atoms: C_5  and  O_6
REMARK    3  A    between atoms: C_8  and  C_9
REMARK    4  A    between atoms: C_15  and  O_16
REMARK                            x       y       z     vdW  Elec       q    Type
REMARK                         _______ _______ _______ _____ _____    ______ ____
ROOT
ATOM      1  C   LIG A   1      -5.622   3.323 125.278  0.00  0.00    +0.058 C 
ATOM      2  C   LIG A   1      -5.767   3.620 123.980  0.00  0.00    +0.176 C 
ATOM      3  C   LIG A   1      -6.810   2.997 123.121  0.00  0.00    +0.232 C 
ATOM      4  C   LIG A   1      -6.568   3.606 121.819  0.00  0.00    +0.068 A 
ATOM      5  C   LIG A   1      -7.223   3.425 120.616  0.00  0.00    +0.019 A 
ATOM      6  C   LIG A   1      -6.758   4.162 119.522  0.00  0.00    +0.046 A 
ATOM      7  C   LIG A   1      -5.670   5.041 119.673  0.00  0.00    +0.120 A 
ATOM      8  C   LIG A   1      -5.021   5.210 120.898  0.00  0.00    +0.092 A 
ATOM      9  C   LIG A   1      -5.492   4.476 121.964  0.00  0.00    +0.143 A 
ATOM     10  O   LIG A   1      -4.989   4.507 123.244  0.00  0.00    -0.451 OA
ATOM     11  O   LIG A   1      -7.662   2.186 123.412  0.00  0.00    -0.283 OA
ENDROOT
BRANCH   1  17
ATOM     12  C   LIG A   1      -2.695   5.061 127.850  0.00  0.00    +0.158 A 
ATOM     13  C   LIG A   1      -2.403   3.858 127.224  0.00  0.00    +0.050 A 
ATOM     14  C   LIG A   1      -3.360   3.277 126.384  0.00  0.00    +0.012 A 
ATOM     15  C   LIG A   1      -3.922   5.681 127.639  0.00  0.00    +0.159 A 
ATOM     16  C   LIG A   1      -4.877   5.110 126.809  0.00  0.00    +0.057 A 
ATOM     17  C   LIG A   1      -4.610   3.887 126.179  0.00  0.00    -0.018 A 
BRANCH  12  18
ATOM     18  O   LIG A   1      -1.802   5.681 128.680  0.00  0.00    -0.503 OA
ATOM     19  H   LIG A   1      -1.238   4.998 129.081  0.00  0.00    +0.292 HD
ENDBRANCH  12  18
BRANCH  15  20
ATOM     20  O   LIG A   1      -4.199   6.870 128.253  0.00  0.00    -0.503 OA
ATOM     21  H   LIG A   1      -3.772   6.797 129.131  0.00  0.00    +0.292 HD
ENDBRANCH  15  20
ENDBRANCH   1  17
BRANCH   7  22
ATOM     22  O   LIG A   1      -5.205   5.768 118.615  0.00  0.00    -0.507 OA
ATOM     23  H   LIG A   1      -4.838   5.161 117.950  0.00  0.00    +0.292 HD
ENDBRANCH   7  22
TORSDOF 4
ENDMDL
MODEL 6
REMARK VINA RESULT:      -7.3      9.431     11.778
REMARK  Name = NuBBE_567
REMARK  4 active torsions:
REMARK  status: ('A' for Active; 'I' for Inactive)
REMARK    1  A    between atoms: O_1  and  C_2
REMARK    2  A    between atoms: C_5  and  O_6
REMARK    3  A    between atoms: C_8  and  C_9
REMARK    4  A    between atoms: C_15  and  O_16
REMARK                            x       y       z     vdW  Elec       q    Type
REMARK                         _______ _______ _______ _____ _____    ______ ____
ROOT
ATOM      1  C   LIG A   1     -10.580   5.972 132.512  0.00  0.00    +0.058 C 
ATOM      2  C   LIG A   1     -10.892   6.434 131.294  0.00  0.00    +0.176 C 
ATOM      3  C   LIG A   1     -12.219   7.024 130.969  0.00  0.00    +0.232 C 
ATOM      4  C   LIG A   1     -12.093   7.356 129.556  0.00  0.00    +0.068 A 
ATOM      5  C   LIG A   1     -13.001   7.936 128.692  0.00  0.00    +0.019 A 
ATOM      6  C   LIG A   1     -12.586   8.136 127.373  0.00  0.00    +0.046 A 
ATOM      7  C   LIG A   1     -11.293   7.752 126.973  0.00  0.00    +0.120 A 
ATOM      8  C   LIG A   1     -10.388   7.167 127.860  0.00  0.00    +0.092 A 
ATOM      9  C   LIG A   1     -10.814   6.977 129.157  0.00  0.00    +0.143 A 
ATOM     10  O   LIG A   1     -10.071   6.421 130.172  0.00  0.00    -0.451 OA
ATOM     11  O   LIG A   1     -13.179   7.198 131.688  0.00  0.00    -0.283 OA
ENDROOT
BRANCH   1  17
ATOM     12  C   LIG A   1      -6.818   4.240 133.537  0.00  0.00    +0.158 A 
ATOM     13  C   LIG A   1      -7.978   3.532 133.819  0.00  0.00    +0.050 A 
ATOM     14  C   LIG A   1      -9.217   4.096 133.493  0.00  0.00    +0.012 A 
ATOM     15  C   LIG A   1      -6.891   5.491 132.933  0.00  0.00    +0.159 A 
ATOM     16  C   LIG A   1      -8.115   6.058 132.608  0.00  0.00    +0.057 A 
ATOM     17  C   LIG A   1      -9.300   5.367 132.899  0.00  0.00    -0.018 A 
BRANCH  12  18
ATOM     18  O   LIG A   1      -5.578   3.744 133.828  0.00  0.00    -0.503 OA
ATOM     19  H   LIG A   1      -5.643   3.233 134.653  0.00  0.00    +0.292 HD
ENDBRANCH  12  18
BRANCH  15  20
ATOM     20  O   LIG A   1      -5.743   6.178 132.650  0.00  0.00    -0.503 OA
ATOM     21  H   LIG A   1      -5.764   6.300 131.680  0.00  0.00    +0.292 HD
ENDBRANCH  15  20
ENDBRANCH   1  17
BRANCH   7  22
ATOM     22  O   LIG A   1     -10.872   7.942 125.688  0.00  0.00    -0.507 OA
ATOM     23  H   LIG A   1     -11.557   7.617 125.079  0.00  0.00    +0.292 HD
ENDBRANCH   7  22
TORSDOF 4
ENDMDL
MODEL 7
REMARK VINA RESULT:      -7.2      9.008     10.696
REMARK  Name = NuBBE_567
REMARK  4 active torsions:
REMARK  status: ('A' for Active; 'I' for Inactive)
REMARK    1  A    between atoms: O_1  and  C_2
REMARK    2  A    between atoms: C_5  and  O_6
REMARK    3  A    between atoms: C_8  and  C_9
REMARK    4  A    between atoms: C_15  and  O_16
REMARK                            x       y       z     vdW  Elec       q    Type
REMARK                         _______ _______ _______ _____ _____    ______ ____
ROOT
ATOM      1  C   LIG A   1      -6.989   6.074 131.407  0.00  0.00    +0.058 C 
ATOM      2  C   LIG A   1      -8.249   6.435 131.131  0.00  0.00    +0.176 C 
ATOM      3  C   LIG A   1      -9.399   6.087 132.008  0.00  0.00    +0.232 C 
ATOM      4  C   LIG A   1     -10.536   6.665 131.302  0.00  0.00    +0.068 A 
ATOM      5  C   LIG A   1     -11.878   6.671 131.628  0.00  0.00    +0.019 A 
ATOM      6  C   LIG A   1     -12.745   7.319 130.743  0.00  0.00    +0.046 A 
ATOM      7  C   LIG A   1     -12.241   7.928 129.579  0.00  0.00    +0.120 A 
ATOM      8  C   LIG A   1     -10.881   7.911 129.266  0.00  0.00    +0.092 A 
ATOM      9  C   LIG A   1     -10.041   7.269 130.149  0.00  0.00    +0.143 A 
ATOM     10  O   LIG A   1      -8.677   7.148 130.016  0.00  0.00    -0.451 OA
ATOM     11  O   LIG A   1      -9.411   5.478 133.055  0.00  0.00    -0.283 OA
ENDROOT
BRANCH   1  17
ATOM     12  C   LIG A   1      -3.517   6.841 129.048  0.00  0.00    +0.158 A 
ATOM     13  C   LIG A   1      -4.034   7.866 129.827  0.00  0.00    +0.050 A 
ATOM     14  C   LIG A   1      -5.178   7.625 130.599  0.00  0.00    +0.012 A 
ATOM     15  C   LIG A   1      -4.127   5.591 129.041  0.00  0.00    +0.159 A 
ATOM     16  C   LIG A   1      -5.261   5.345 129.802  0.00  0.00    +0.057 A 
ATOM     17  C   LIG A   1      -5.810   6.371 130.583  0.00  0.00    -0.018 A 
BRANCH  12  18
ATOM     18  O   LIG A   1      -2.403   7.012 128.275  0.00  0.00    -0.503 OA
ATOM     19  H   LIG A   1      -1.628   6.750 128.800  0.00  0.00    +0.292 HD
ENDBRANCH  12  18
BRANCH  15  20
ATOM     20  O   LIG A   1      -3.606   4.584 128.277  0.00  0.00    -0.503 OA
ATOM     21  H   LIG A   1      -3.334   5.023 127.446  0.00  0.00    +0.292 HD
ENDBRANCH  15  20
ENDBRANCH   1  17
BRANCH   7  22
ATOM     22  O   LIG A   1     -13.074   8.565 128.705  0.00  0.00    -0.507 OA
ATOM     23  H   LIG A   1     -13.799   8.979 129.203  0.00  0.00    +0.292 HD
ENDBRANCH   7  22
TORSDOF 4
ENDMDL
MODEL 8
REMARK VINA RESULT:      -7.0      8.675      9.807
REMARK  Name = NuBBE_567
REMARK  4 active torsions:
REMARK  status: ('A' for Active; 'I' for Inactive)
REMARK    1  A    between atoms: O_1  and  C_2
REMARK    2  A    between atoms: C_5  and  O_6
REMARK    3  A    between atoms: C_8  and  C_9
REMARK    4  A    between atoms: C_15  and  O_16
REMARK                            x       y       z     vdW  Elec       q    Type
REMARK                         _______ _______ _______ _____ _____    ______ ____
ROOT
ATOM      1  C   LIG A   1     -10.242   5.789 132.286  0.00  0.00    +0.058 C 
ATOM      2  C   LIG A   1      -9.712   4.582 132.046  0.00  0.00    +0.176 C 
ATOM      3  C   LIG A   1      -9.049   3.768 133.100  0.00  0.00    +0.232 C 
ATOM      4  C   LIG A   1      -8.627   2.576 132.375  0.00  0.00    +0.068 A 
ATOM      5  C   LIG A   1      -7.960   1.452 132.821  0.00  0.00    +0.019 A 
ATOM      6  C   LIG A   1      -7.692   0.455 131.878  0.00  0.00    +0.046 A 
ATOM      7  C   LIG A   1      -8.097   0.620 130.541  0.00  0.00    +0.120 A 
ATOM      8  C   LIG A   1      -8.771   1.763 130.109  0.00  0.00    +0.092 A 
ATOM      9  C   LIG A   1      -9.026   2.735 131.051  0.00  0.00    +0.143 A 
ATOM     10  O   LIG A   1      -9.677   3.925 130.821  0.00  0.00    -0.451 OA
ATOM     11  O   LIG A   1      -8.891   4.014 134.276  0.00  0.00    -0.283 OA
ENDROOT
BRANCH   1  17
ATOM     12  C   LIG A   1     -12.061   8.364 129.411  0.00  0.00    +0.158 A 
ATOM     13  C   LIG A   1     -12.832   7.887 130.462  0.00  0.00    +0.050 A 
ATOM     14  C   LIG A   1     -12.245   7.035 131.405  0.00  0.00    +0.012 A 
ATOM     15  C   LIG A   1     -10.722   8.004 129.304  0.00  0.00    +0.159 A 
ATOM     16  C   LIG A   1     -10.133   7.159 130.235  0.00  0.00    +0.057 A 
ATOM     17  C   LIG A   1     -10.898   6.651 131.295  0.00  0.00    -0.018 A 
BRANCH  12  18
ATOM     18  O   LIG A   1     -12.574   9.201 128.459  0.00  0.00    -0.503 OA
ATOM     19  H   LIG A   1     -12.263  10.102 128.650  0.00  0.00    +0.292 HD
ENDBRANCH  12  18
BRANCH  15  20
ATOM     20  O   LIG A   1      -9.967   8.485 128.272  0.00  0.00    -0.503 OA
ATOM     21  H   LIG A   1      -9.627   9.343 128.597  0.00  0.00    +0.292 HD
ENDBRANCH  15  20
ENDBRANCH   1  17
BRANCH   7  22
ATOM     22  O   LIG A   1      -7.844  -0.345 129.608  0.00  0.00    -0.507 OA
ATOM     23  H   LIG A   1      -8.687  -0.660 129.241  0.00  0.00    +0.292 HD
ENDBRANCH   7  22
TORSDOF 4
ENDMDL
MODEL 9
REMARK VINA RESULT:      -6.9     10.436     11.197
REMARK  Name = NuBBE_567
REMARK  4 active torsions:
REMARK  status: ('A' for Active; 'I' for Inactive)
REMARK    1  A    between atoms: O_1  and  C_2
REMARK    2  A    between atoms: C_5  and  O_6
REMARK    3  A    between atoms: C_8  and  C_9
REMARK    4  A    between atoms: C_15  and  O_16
REMARK                            x       y       z     vdW  Elec       q    Type
REMARK                         _______ _______ _______ _____ _____    ______ ____
ROOT
ATOM      1  C   LIG A   1      -9.943   6.234 131.762  0.00  0.00    +0.058 C 
ATOM      2  C   LIG A   1      -8.608   6.344 131.740  0.00  0.00    +0.176 C 
ATOM      3  C   LIG A   1      -7.726   5.684 132.740  0.00  0.00    +0.232 C 
ATOM      4  C   LIG A   1      -6.392   6.100 132.326  0.00  0.00    +0.068 A 
ATOM      5  C   LIG A   1      -5.158   5.802 132.868  0.00  0.00    +0.019 A 
ATOM      6  C   LIG A   1      -4.037   6.353 132.240  0.00  0.00    +0.046 A 
ATOM      7  C   LIG A   1      -4.194   7.173 131.107  0.00  0.00    +0.120 A 
ATOM      8  C   LIG A   1      -5.450   7.463 130.574  0.00  0.00    +0.092 A 
ATOM      9  C   LIG A   1      -6.543   6.911 131.205  0.00  0.00    +0.143 A 
ATOM     10  O   LIG A   1      -7.856   7.078 130.829  0.00  0.00    -0.451 OA
ATOM     11  O   LIG A   1      -8.023   4.970 133.674  0.00  0.00    -0.283 OA
ENDROOT
BRANCH   1  17
ATOM     12  C   LIG A   1     -12.581   8.162 129.018  0.00  0.00    +0.158 A 
ATOM     13  C   LIG A   1     -13.121   7.514 130.120  0.00  0.00    +0.050 A 
ATOM     14  C   LIG A   1     -12.263   6.872 131.021  0.00  0.00    +0.012 A 
ATOM     15  C   LIG A   1     -11.204   8.177 128.820  0.00  0.00    +0.159 A 
ATOM     16  C   LIG A   1     -10.347   7.542 129.708  0.00  0.00    +0.057 A 
ATOM     17  C   LIG A   1     -10.872   6.866 130.818  0.00  0.00    -0.018 A 
BRANCH  12  18
ATOM     18  O   LIG A   1     -13.364   8.809 128.103  0.00  0.00    -0.503 OA
ATOM     19  H   LIG A   1     -13.061   8.557 127.214  0.00  0.00    +0.292 HD
ENDBRANCH  12  18
BRANCH  15  20
ATOM     20  O   LIG A   1     -10.679   8.826 127.737  0.00  0.00    -0.503 OA
ATOM     21  H   LIG A   1     -11.127   9.696 127.733  0.00  0.00    +0.292 HD
ENDBRANCH  15  20
ENDBRANCH   1  17
BRANCH   7  22
ATOM     22  O   LIG A   1      -3.109   7.718 130.482  0.00  0.00    -0.507 OA
ATOM     23  H   LIG A   1      -2.657   8.320 131.099  0.00  0.00    +0.292 HD
ENDBRANCH   7  22
TORSDOF 4
ENDMDL
