MODEL 1
REMARK VINA RESULT:      -7.5      0.000      0.000
REMARK  Name = NuBBE_2314
REMARK  10 active torsions:
REMARK  status: ('A' for Active; 'I' for Inactive)
REMARK    1  A    between atoms: C_1  and  O_29
REMARK    2  A    between atoms: C_5  and  C_6
REMARK    3  A    between atoms: C_8  and  C_24
REMARK    4  A    between atoms: C_10  and  C_21
REMARK    5  A    between atoms: C_14  and  O_20
REMARK    6  A    between atoms: C_15  and  O_18
REMARK    7  A    between atoms: C_16  and  O_17
REMARK    8  A    between atoms: O_18  and  C_19
REMARK    9  A    between atoms: C_21  and  C_22
REMARK   10  A    between atoms: O_29  and  C_30
REMARK                            x       y       z     vdW  Elec       q    Type
REMARK                         _______ _______ _______ _____ _____    ______ ____
ROOT
ATOM      1  C   LIG A   1      -7.121  -0.932 126.525  0.00  0.00    +0.060 C 
ATOM      2  C   LIG A   1      -5.848  -1.112 125.618  0.00  0.00    +0.006 C 
ATOM      3  C   LIG A   1      -6.364  -1.647 124.243  0.00  0.00    +0.013 C 
ATOM      4  C   LIG A   1      -6.865  -0.534 123.294  0.00  0.00    +0.087 C 
ATOM      5  C   LIG A   1      -8.002   0.279 123.881  0.00  0.00    +0.165 C 
ATOM      6  O   LIG A   1      -8.174   1.451 123.565  0.00  0.00    -0.294 OA
ATOM      7  C   LIG A   1      -8.993  -0.436 124.806  0.00  0.00    +0.215 C 
ATOM      8  C   LIG A   1      -8.300  -1.530 125.668  0.00  0.00    +0.135 C 
ATOM      9  C   LIG A   1      -7.566  -2.487 124.702  0.00  0.00    +0.157 C 
ATOM     10  C   LIG A   1      -4.982   0.143 125.586  0.00  0.00    +0.009 C 
ENDROOT
BRANCH   1  15
ATOM     11  C   LIG A   1      -5.583  -2.965 129.436  0.00  0.00    +0.166 A 
ATOM     12  C   LIG A   1      -6.383  -2.525 130.474  0.00  0.00    +0.207 A 
ATOM     13  C   LIG A   1      -7.383  -1.604 130.262  0.00  0.00    +0.170 A 
ATOM     14  C   LIG A   1      -7.650  -1.081 129.010  0.00  0.00    +0.053 A 
ATOM     15  C   LIG A   1      -6.875  -1.512 127.919  0.00  0.00    -0.034 A 
ATOM     16  C   LIG A   1      -5.854  -2.461 128.156  0.00  0.00    +0.053 A 
ATOM     17  O   LIG A   1      -8.043  -1.275 131.407  0.00  0.00    -0.453 OA
ATOM     18  C   LIG A   1      -7.316  -2.060 132.374  0.00  0.00    +0.467 C 
ATOM     19  O   LIG A   1      -6.295  -2.888 131.786  0.00  0.00    -0.449 OA
BRANCH  11  20
ATOM     20  O   LIG A   1      -4.609  -3.884 129.710  0.00  0.00    -0.491 OA
ATOM     21  C   LIG A   1      -3.302  -3.537 129.261  0.00  0.00    +0.277 C 
ENDBRANCH  11  20
ENDBRANCH   1  15
BRANCH   9  22
ATOM     22  O   LIG A   1      -8.369  -2.908 123.605  0.00  0.00    -0.388 OA
ATOM     23  H   LIG A   1      -8.884  -3.673 123.929  0.00  0.00    +0.210 HD
ENDBRANCH   9  22
BRANCH   8  24
ATOM     24  O   LIG A   1      -9.233  -2.349 126.393  0.00  0.00    -0.370 OA
ATOM     25  C   LIG A   1      -8.848  -3.703 126.590  0.00  0.00    +0.195 C 
ENDBRANCH   8  24
BRANCH   7  26
ATOM     26  O   LIG A   1      -9.605   0.578 125.614  0.00  0.00    -0.381 OA
ATOM     27  H   LIG A   1     -10.473   0.213 125.885  0.00  0.00    +0.210 HD
ENDBRANCH   7  26
BRANCH   3  28
ATOM     28  C   LIG A   1      -5.322  -2.505 123.474  0.00  0.00    +0.037 C 
BRANCH  28  29
ATOM     29  C   LIG A   1      -4.956  -3.824 124.112  0.00  0.00    -0.034 C 
ATOM     30  C   LIG A   1      -4.242  -4.780 123.501  0.00  0.00    +0.004 C 
ENDBRANCH  28  29
ENDBRANCH   3  28
TORSDOF 7
ENDMDL
MODEL 2
REMARK VINA RESULT:      -7.4      0.615      2.105
REMARK  Name = NuBBE_2314
REMARK  10 active torsions:
REMARK  status: ('A' for Active; 'I' for Inactive)
REMARK    1  A    between atoms: C_1  and  O_29
REMARK    2  A    between atoms: C_5  and  C_6
REMARK    3  A    between atoms: C_8  and  C_24
REMARK    4  A    between atoms: C_10  and  C_21
REMARK    5  A    between atoms: C_14  and  O_20
REMARK    6  A    between atoms: C_15  and  O_18
REMARK    7  A    between atoms: C_16  and  O_17
REMARK    8  A    between atoms: O_18  and  C_19
REMARK    9  A    between atoms: C_21  and  C_22
REMARK   10  A    between atoms: O_29  and  C_30
REMARK                            x       y       z     vdW  Elec       q    Type
REMARK                         _______ _______ _______ _____ _____    ______ ____
ROOT
ATOM      1  C   LIG A   1      -7.104  -0.908 126.582  0.00  0.00    +0.060 C 
ATOM      2  C   LIG A   1      -5.853  -1.075 125.644  0.00  0.00    +0.006 C 
ATOM      3  C   LIG A   1      -6.398  -1.603 124.278  0.00  0.00    +0.013 C 
ATOM      4  C   LIG A   1      -6.928  -0.485 123.349  0.00  0.00    +0.087 C 
ATOM      5  C   LIG A   1      -8.054   0.317 123.969  0.00  0.00    +0.165 C 
ATOM      6  O   LIG A   1      -8.240   1.490 123.666  0.00  0.00    -0.294 OA
ATOM      7  C   LIG A   1      -9.019  -0.410 124.912  0.00  0.00    +0.215 C 
ATOM      8  C   LIG A   1      -8.300  -1.506 125.749  0.00  0.00    +0.135 C 
ATOM      9  C   LIG A   1      -7.585  -2.452 124.759  0.00  0.00    +0.157 C 
ATOM     10  C   LIG A   1      -4.994   0.185 125.601  0.00  0.00    +0.009 C 
ENDROOT
BRANCH   1  15
ATOM     11  C   LIG A   1      -7.375  -1.692 130.362  0.00  0.00    +0.166 A 
ATOM     12  C   LIG A   1      -6.353  -2.615 130.481  0.00  0.00    +0.207 A 
ATOM     13  C   LIG A   1      -5.597  -2.986 129.393  0.00  0.00    +0.170 A 
ATOM     14  C   LIG A   1      -5.806  -2.453 128.134  0.00  0.00    +0.053 A 
ATOM     15  C   LIG A   1      -6.823  -1.496 127.966  0.00  0.00    -0.034 A 
ATOM     16  C   LIG A   1      -7.586  -1.126 129.097  0.00  0.00    +0.053 A 
ATOM     17  O   LIG A   1      -4.659  -3.923 129.702  0.00  0.00    -0.453 OA
ATOM     18  C   LIG A   1      -4.938  -4.135 131.101  0.00  0.00    +0.467 C 
ATOM     19  O   LIG A   1      -5.977  -3.278 131.612  0.00  0.00    -0.449 OA
BRANCH  11  20
ATOM     20  O   LIG A   1      -8.087  -1.361 131.480  0.00  0.00    -0.491 OA
ATOM     21  C   LIG A   1      -8.678  -0.064 131.464  0.00  0.00    +0.277 C 
ENDBRANCH  11  20
ENDBRANCH   1  15
BRANCH   9  22
ATOM     22  O   LIG A   1      -8.411  -2.870 123.678  0.00  0.00    -0.388 OA
ATOM     23  H   LIG A   1      -9.330  -2.682 123.956  0.00  0.00    +0.210 HD
ENDBRANCH   9  22
BRANCH   8  24
ATOM     24  O   LIG A   1      -9.211  -2.335 126.490  0.00  0.00    -0.370 OA
ATOM     25  C   LIG A   1      -8.829  -3.696 126.643  0.00  0.00    +0.195 C 
ENDBRANCH   8  24
BRANCH   7  26
ATOM     26  O   LIG A   1      -9.618   0.595 125.742  0.00  0.00    -0.381 OA
ATOM     27  H   LIG A   1      -9.253   0.449 126.639  0.00  0.00    +0.210 HD
ENDBRANCH   7  26
BRANCH   3  28
ATOM     28  C   LIG A   1      -5.371  -2.450 123.478  0.00  0.00    +0.037 C 
BRANCH  28  29
ATOM     29  C   LIG A   1      -5.061  -3.814 124.044  0.00  0.00    -0.034 C 
ATOM     30  C   LIG A   1      -4.112  -4.629 123.560  0.00  0.00    +0.004 C 
ENDBRANCH  28  29
ENDBRANCH   3  28
TORSDOF 7
ENDMDL
MODEL 3
REMARK VINA RESULT:      -7.1      2.964      5.193
REMARK  Name = NuBBE_2314
REMARK  10 active torsions:
REMARK  status: ('A' for Active; 'I' for Inactive)
REMARK    1  A    between atoms: C_1  and  O_29
REMARK    2  A    between atoms: C_5  and  C_6
REMARK    3  A    between atoms: C_8  and  C_24
REMARK    4  A    between atoms: C_10  and  C_21
REMARK    5  A    between atoms: C_14  and  O_20
REMARK    6  A    between atoms: C_15  and  O_18
REMARK    7  A    between atoms: C_16  and  O_17
REMARK    8  A    between atoms: O_18  and  C_19
REMARK    9  A    between atoms: C_21  and  C_22
REMARK   10  A    between atoms: O_29  and  C_30
REMARK                            x       y       z     vdW  Elec       q    Type
REMARK                         _______ _______ _______ _____ _____    ______ ____
ROOT
ATOM      1  C   LIG A   1      -7.098   0.045 125.839  0.00  0.00    +0.060 C 
ATOM      2  C   LIG A   1      -6.945  -1.147 126.853  0.00  0.00    +0.006 C 
ATOM      3  C   LIG A   1      -7.836  -2.306 126.301  0.00  0.00    +0.013 C 
ATOM      4  C   LIG A   1      -7.141  -3.159 125.215  0.00  0.00    +0.087 C 
ATOM      5  C   LIG A   1      -6.712  -2.349 124.008  0.00  0.00    +0.165 C 
ATOM      6  O   LIG A   1      -5.746  -2.680 123.331  0.00  0.00    -0.294 OA
ATOM      7  C   LIG A   1      -7.584  -1.157 123.598  0.00  0.00    +0.215 C 
ATOM      8  C   LIG A   1      -8.206  -0.438 124.829  0.00  0.00    +0.135 C 
ATOM      9  C   LIG A   1      -8.972  -1.501 125.649  0.00  0.00    +0.157 C 
ATOM     10  C   LIG A   1      -5.483  -1.479 127.136  0.00  0.00    +0.009 C 
ENDROOT
BRANCH   1  15
ATOM     11  C   LIG A   1      -6.961   3.791 126.801  0.00  0.00    +0.166 A 
ATOM     12  C   LIG A   1      -7.789   3.777 127.908  0.00  0.00    +0.207 A 
ATOM     13  C   LIG A   1      -8.381   2.613 128.339  0.00  0.00    +0.170 A 
ATOM     14  C   LIG A   1      -8.175   1.401 127.705  0.00  0.00    +0.053 A 
ATOM     15  C   LIG A   1      -7.325   1.361 126.586  0.00  0.00    -0.034 A 
ATOM     16  C   LIG A   1      -6.723   2.567 126.159  0.00  0.00    +0.053 A 
ATOM     17  O   LIG A   1      -9.181   2.803 129.425  0.00  0.00    -0.453 OA
ATOM     18  C   LIG A   1      -9.061   4.230 129.603  0.00  0.00    +0.467 C 
ATOM     19  O   LIG A   1      -8.146   4.845 128.676  0.00  0.00    -0.449 OA
BRANCH  11  20
ATOM     20  O   LIG A   1      -6.398   4.978 126.424  0.00  0.00    -0.491 OA
ATOM     21  C   LIG A   1      -6.126   5.107 125.031  0.00  0.00    +0.277 C 
ENDBRANCH  11  20
ENDBRANCH   1  15
BRANCH   9  22
ATOM     22  O   LIG A   1      -9.819  -2.325 124.856  0.00  0.00    -0.388 OA
ATOM     23  H   LIG A   1      -9.235  -2.996 124.450  0.00  0.00    +0.210 HD
ENDBRANCH   9  22
BRANCH   8  24
ATOM     24  O   LIG A   1      -9.183   0.552 124.468  0.00  0.00    -0.370 OA
ATOM     25  C   LIG A   1      -9.660   0.494 123.130  0.00  0.00    +0.195 C 
ENDBRANCH   8  24
BRANCH   7  26
ATOM     26  O   LIG A   1      -6.746  -0.281 122.830  0.00  0.00    -0.381 OA
ATOM     27  H   LIG A   1      -6.204  -0.864 122.262  0.00  0.00    +0.210 HD
ENDBRANCH   7  26
BRANCH   3  28
ATOM     28  C   LIG A   1      -8.369  -3.265 127.401  0.00  0.00    +0.037 C 
BRANCH  28  29
ATOM     29  C   LIG A   1      -8.266  -2.761 128.820  0.00  0.00    -0.034 C 
ATOM     30  C   LIG A   1      -7.554  -3.366 129.782  0.00  0.00    +0.004 C 
ENDBRANCH  28  29
ENDBRANCH   3  28
TORSDOF 7
ENDMDL
MODEL 4
REMARK VINA RESULT:      -7.0      2.832      4.520
REMARK  Name = NuBBE_2314
REMARK  10 active torsions:
REMARK  status: ('A' for Active; 'I' for Inactive)
REMARK    1  A    between atoms: C_1  and  O_29
REMARK    2  A    between atoms: C_5  and  C_6
REMARK    3  A    between atoms: C_8  and  C_24
REMARK    4  A    between atoms: C_10  and  C_21
REMARK    5  A    between atoms: C_14  and  O_20
REMARK    6  A    between atoms: C_15  and  O_18
REMARK    7  A    between atoms: C_16  and  O_17
REMARK    8  A    between atoms: O_18  and  C_19
REMARK    9  A    between atoms: C_21  and  C_22
REMARK   10  A    between atoms: O_29  and  C_30
REMARK                            x       y       z     vdW  Elec       q    Type
REMARK                         _______ _______ _______ _____ _____    ______ ____
ROOT
ATOM      1  C   LIG A   1      -6.252  -0.169 125.664  0.00  0.00    +0.060 C 
ATOM      2  C   LIG A   1      -6.460  -1.624 126.222  0.00  0.00    +0.006 C 
ATOM      3  C   LIG A   1      -7.947  -2.000 125.917  0.00  0.00    +0.013 C 
ATOM      4  C   LIG A   1      -8.169  -2.534 124.483  0.00  0.00    +0.087 C 
ATOM      5  C   LIG A   1      -7.759  -1.544 123.411  0.00  0.00    +0.165 C 
ATOM      6  O   LIG A   1      -7.368  -1.923 122.313  0.00  0.00    -0.294 OA
ATOM      7  C   LIG A   1      -7.942  -0.051 123.705  0.00  0.00    +0.215 C 
ATOM      8  C   LIG A   1      -7.690   0.284 125.203  0.00  0.00    +0.135 C 
ATOM      9  C   LIG A   1      -8.617  -0.623 126.044  0.00  0.00    +0.157 C 
ATOM     10  C   LIG A   1      -5.391  -2.591 125.724  0.00  0.00    +0.009 C 
ENDROOT
BRANCH   1  15
ATOM     11  C   LIG A   1      -3.979   2.559 127.201  0.00  0.00    +0.166 A 
ATOM     12  C   LIG A   1      -4.215   2.329 128.543  0.00  0.00    +0.207 A 
ATOM     13  C   LIG A   1      -5.075   1.337 128.955  0.00  0.00    +0.170 A 
ATOM     14  C   LIG A   1      -5.736   0.515 128.061  0.00  0.00    +0.053 A 
ATOM     15  C   LIG A   1      -5.515   0.700 126.684  0.00  0.00    -0.034 A 
ATOM     16  C   LIG A   1      -4.625   1.722 126.280  0.00  0.00    +0.053 A 
ATOM     17  O   LIG A   1      -5.197   1.280 130.310  0.00  0.00    -0.453 OA
ATOM     18  C   LIG A   1      -4.350   2.378 130.706  0.00  0.00    +0.467 C 
ATOM     19  O   LIG A   1      -3.690   3.017 129.596  0.00  0.00    -0.449 OA
BRANCH  11  20
ATOM     20  O   LIG A   1      -3.111   3.556 126.854  0.00  0.00    -0.491 OA
ATOM     21  C   LIG A   1      -1.774   3.136 126.597  0.00  0.00    +0.277 C 
ENDBRANCH  11  20
ENDBRANCH   1  15
BRANCH   9  22
ATOM     22  O   LIG A   1      -9.962  -0.642 125.580  0.00  0.00    -0.388 OA
ATOM     23  H   LIG A   1     -10.448  -0.007 126.143  0.00  0.00    +0.210 HD
ENDBRANCH   9  22
BRANCH   8  24
ATOM     24  O   LIG A   1      -8.049   1.632 125.546  0.00  0.00    -0.370 OA
ATOM     25  C   LIG A   1      -8.931   2.288 124.644  0.00  0.00    +0.195 C 
ENDBRANCH   8  24
BRANCH   7  26
ATOM     26  O   LIG A   1      -7.042   0.652 122.837  0.00  0.00    -0.381 OA
ATOM     27  H   LIG A   1      -7.290   0.388 121.928  0.00  0.00    +0.210 HD
ENDBRANCH   7  26
BRANCH   3  28
ATOM     28  C   LIG A   1      -8.551  -3.027 126.914  0.00  0.00    +0.037 C 
BRANCH  28  29
ATOM     29  C   LIG A   1      -8.303  -2.748 128.377  0.00  0.00    -0.034 C 
ATOM     30  C   LIG A   1      -7.618  -3.563 129.192  0.00  0.00    +0.004 C 
ENDBRANCH  28  29
ENDBRANCH   3  28
TORSDOF 7
ENDMDL
MODEL 5
REMARK VINA RESULT:      -6.8      7.680     10.457
REMARK  Name = NuBBE_2314
REMARK  10 active torsions:
REMARK  status: ('A' for Active; 'I' for Inactive)
REMARK    1  A    between atoms: C_1  and  O_29
REMARK    2  A    between atoms: C_5  and  C_6
REMARK    3  A    between atoms: C_8  and  C_24
REMARK    4  A    between atoms: C_10  and  C_21
REMARK    5  A    between atoms: C_14  and  O_20
REMARK    6  A    between atoms: C_15  and  O_18
REMARK    7  A    between atoms: C_16  and  O_17
REMARK    8  A    between atoms: O_18  and  C_19
REMARK    9  A    between atoms: C_21  and  C_22
REMARK   10  A    between atoms: O_29  and  C_30
REMARK                            x       y       z     vdW  Elec       q    Type
REMARK                         _______ _______ _______ _____ _____    ______ ____
ROOT
ATOM      1  C   LIG A   1      -7.055   4.689 131.329  0.00  0.00    +0.060 C 
ATOM      2  C   LIG A   1      -6.860   4.233 132.822  0.00  0.00    +0.006 C 
ATOM      3  C   LIG A   1      -8.177   4.619 133.571  0.00  0.00    +0.013 C 
ATOM      4  C   LIG A   1      -9.307   3.575 133.414  0.00  0.00    +0.087 C 
ATOM      5  C   LIG A   1      -9.700   3.339 131.970  0.00  0.00    +0.165 C 
ATOM      6  O   LIG A   1     -10.147   2.258 131.602  0.00  0.00    -0.294 OA
ATOM      7  C   LIG A   1      -9.618   4.523 131.000  0.00  0.00    +0.215 C 
ATOM      8  C   LIG A   1      -8.426   5.465 131.332  0.00  0.00    +0.135 C 
ATOM      9  C   LIG A   1      -8.570   5.895 132.809  0.00  0.00    +0.157 C 
ATOM     10  C   LIG A   1      -6.411   2.780 132.926  0.00  0.00    +0.009 C 
ENDROOT
BRANCH   1  15
ATOM     11  C   LIG A   1      -3.976   7.029 131.190  0.00  0.00    +0.166 A 
ATOM     12  C   LIG A   1      -3.503   6.716 129.929  0.00  0.00    +0.207 A 
ATOM     13  C   LIG A   1      -4.139   5.785 129.142  0.00  0.00    +0.170 A 
ATOM     14  C   LIG A   1      -5.282   5.124 129.556  0.00  0.00    +0.053 A 
ATOM     15  C   LIG A   1      -5.811   5.422 130.824  0.00  0.00    -0.034 A 
ATOM     16  C   LIG A   1      -5.145   6.384 131.618  0.00  0.00    +0.053 A 
ATOM     17  O   LIG A   1      -3.512   5.593 127.948  0.00  0.00    -0.453 OA
ATOM     18  C   LIG A   1      -2.382   6.478 128.090  0.00  0.00    +0.467 C 
ATOM     19  O   LIG A   1      -2.395   7.226 129.321  0.00  0.00    -0.449 OA
BRANCH  11  20
ATOM     20  O   LIG A   1      -3.303   7.966 131.923  0.00  0.00    -0.491 OA
ATOM     21  C   LIG A   1      -2.424   7.445 132.917  0.00  0.00    +0.277 C 
ENDBRANCH  11  20
ENDBRANCH   1  15
BRANCH   9  22
ATOM     22  O   LIG A   1      -9.882   6.331 133.146  0.00  0.00    -0.388 OA
ATOM     23  H   LIG A   1     -10.260   5.629 133.713  0.00  0.00    +0.210 HD
ENDBRANCH   9  22
BRANCH   8  24
ATOM     24  O   LIG A   1      -8.444   6.684 130.570  0.00  0.00    -0.370 OA
ATOM     25  C   LIG A   1      -9.722   7.122 130.128  0.00  0.00    +0.195 C 
ENDBRANCH   8  24
BRANCH   7  26
ATOM     26  O   LIG A   1      -9.514   3.968 129.682  0.00  0.00    -0.381 OA
ATOM     27  H   LIG A   1      -8.564   3.769 129.552  0.00  0.00    +0.210 HD
ENDBRANCH   7  26
BRANCH   3  28
ATOM     28  C   LIG A   1      -7.979   4.892 135.087  0.00  0.00    +0.037 C 
BRANCH  28  29
ATOM     29  C   LIG A   1      -6.720   5.637 135.462  0.00  0.00    -0.034 C 
ATOM     30  C   LIG A   1      -5.791   5.163 136.305  0.00  0.00    +0.004 C 
ENDBRANCH  28  29
ENDBRANCH   3  28
TORSDOF 7
ENDMDL
MODEL 6
REMARK VINA RESULT:      -6.8      2.861      4.736
REMARK  Name = NuBBE_2314
REMARK  10 active torsions:
REMARK  status: ('A' for Active; 'I' for Inactive)
REMARK    1  A    between atoms: C_1  and  O_29
REMARK    2  A    between atoms: C_5  and  C_6
REMARK    3  A    between atoms: C_8  and  C_24
REMARK    4  A    between atoms: C_10  and  C_21
REMARK    5  A    between atoms: C_14  and  O_20
REMARK    6  A    between atoms: C_15  and  O_18
REMARK    7  A    between atoms: C_16  and  O_17
REMARK    8  A    between atoms: O_18  and  C_19
REMARK    9  A    between atoms: C_21  and  C_22
REMARK   10  A    between atoms: O_29  and  C_30
REMARK                            x       y       z     vdW  Elec       q    Type
REMARK                         _______ _______ _______ _____ _____    ______ ____
ROOT
ATOM      1  C   LIG A   1      -6.243  -0.053 125.672  0.00  0.00    +0.060 C 
ATOM      2  C   LIG A   1      -6.438  -1.482 126.299  0.00  0.00    +0.006 C 
ATOM      3  C   LIG A   1      -7.923  -1.882 126.021  0.00  0.00    +0.013 C 
ATOM      4  C   LIG A   1      -8.149  -2.484 124.615  0.00  0.00    +0.087 C 
ATOM      5  C   LIG A   1      -7.752  -1.543 123.496  0.00  0.00    +0.165 C 
ATOM      6  O   LIG A   1      -7.364  -1.970 122.414  0.00  0.00    -0.294 OA
ATOM      7  C   LIG A   1      -7.945  -0.039 123.720  0.00  0.00    +0.215 C 
ATOM      8  C   LIG A   1      -7.686   0.367 125.199  0.00  0.00    +0.135 C 
ATOM      9  C   LIG A   1      -8.602  -0.505 126.087  0.00  0.00    +0.157 C 
ATOM     10  C   LIG A   1      -5.364  -2.463 125.840  0.00  0.00    +0.009 C 
ENDROOT
BRANCH   1  15
ATOM     11  C   LIG A   1      -4.880   1.483 128.951  0.00  0.00    +0.166 A 
ATOM     12  C   LIG A   1      -4.112   2.506 128.427  0.00  0.00    +0.207 A 
ATOM     13  C   LIG A   1      -4.023   2.705 127.069  0.00  0.00    +0.170 A 
ATOM     14  C   LIG A   1      -4.698   1.910 126.160  0.00  0.00    +0.053 A 
ATOM     15  C   LIG A   1      -5.507   0.867 126.647  0.00  0.00    -0.034 A 
ATOM     16  C   LIG A   1      -5.588   0.681 128.046  0.00  0.00    +0.053 A 
ATOM     17  O   LIG A   1      -3.202   3.742 126.744  0.00  0.00    -0.453 OA
ATOM     18  C   LIG A   1      -2.747   4.147 128.051  0.00  0.00    +0.467 C 
ATOM     19  O   LIG A   1      -3.354   3.400 129.123  0.00  0.00    -0.449 OA
BRANCH  11  20
ATOM     20  O   LIG A   1      -4.932   1.340 130.309  0.00  0.00    -0.491 OA
ATOM     21  C   LIG A   1      -4.265   0.190 130.825  0.00  0.00    +0.277 C 
ENDBRANCH  11  20
ENDBRANCH   1  15
BRANCH   9  22
ATOM     22  O   LIG A   1      -9.950  -0.556 125.632  0.00  0.00    -0.388 OA
ATOM     23  H   LIG A   1     -10.453   0.041 126.222  0.00  0.00    +0.210 HD
ENDBRANCH   9  22
BRANCH   8  24
ATOM     24  O   LIG A   1      -8.054   1.728 125.481  0.00  0.00    -0.370 OA
ATOM     25  C   LIG A   1      -8.961   2.329 124.565  0.00  0.00    +0.195 C 
ENDBRANCH   8  24
BRANCH   7  26
ATOM     26  O   LIG A   1      -7.054   0.629 122.815  0.00  0.00    -0.381 OA
ATOM     27  H   LIG A   1      -7.554   0.731 121.979  0.00  0.00    +0.210 HD
ENDBRANCH   7  26
BRANCH   3  28
ATOM     28  C   LIG A   1      -8.514  -2.866 127.068  0.00  0.00    +0.037 C 
BRANCH  28  29
ATOM     29  C   LIG A   1      -8.120  -2.613 128.504  0.00  0.00    -0.034 C 
ATOM     30  C   LIG A   1      -7.492  -3.509 129.279  0.00  0.00    +0.004 C 
ENDBRANCH  28  29
ENDBRANCH   3  28
TORSDOF 7
ENDMDL
MODEL 7
REMARK VINA RESULT:      -6.8      1.971      6.326
REMARK  Name = NuBBE_2314
REMARK  10 active torsions:
REMARK  status: ('A' for Active; 'I' for Inactive)
REMARK    1  A    between atoms: C_1  and  O_29
REMARK    2  A    between atoms: C_5  and  C_6
REMARK    3  A    between atoms: C_8  and  C_24
REMARK    4  A    between atoms: C_10  and  C_21
REMARK    5  A    between atoms: C_14  and  O_20
REMARK    6  A    between atoms: C_15  and  O_18
REMARK    7  A    between atoms: C_16  and  O_17
REMARK    8  A    between atoms: O_18  and  C_19
REMARK    9  A    between atoms: C_21  and  C_22
REMARK   10  A    between atoms: O_29  and  C_30
REMARK                            x       y       z     vdW  Elec       q    Type
REMARK                         _______ _______ _______ _____ _____    ______ ____
ROOT
ATOM      1  C   LIG A   1      -7.290  -1.308 128.210  0.00  0.00    +0.060 C 
ATOM      2  C   LIG A   1      -7.006  -2.700 128.885  0.00  0.00    +0.006 C 
ATOM      3  C   LIG A   1      -5.774  -2.487 129.823  0.00  0.00    +0.013 C 
ATOM      4  C   LIG A   1      -6.143  -1.906 131.208  0.00  0.00    +0.087 C 
ATOM      5  C   LIG A   1      -6.841  -0.564 131.122  0.00  0.00    +0.165 C 
ATOM      6  O   LIG A   1      -7.641  -0.207 131.980  0.00  0.00    -0.294 OA
ATOM      7  C   LIG A   1      -6.444   0.380 129.982  0.00  0.00    +0.215 C 
ATOM      8  C   LIG A   1      -6.095  -0.394 128.679  0.00  0.00    +0.135 C 
ATOM      9  C   LIG A   1      -4.997  -1.424 129.030  0.00  0.00    +0.157 C 
ATOM     10  C   LIG A   1      -8.258  -3.298 129.520  0.00  0.00    +0.009 C 
ENDROOT
BRANCH   1  15
ATOM     11  C   LIG A   1      -7.012  -2.602 124.574  0.00  0.00    +0.166 A 
ATOM     12  C   LIG A   1      -7.992  -1.831 123.978  0.00  0.00    +0.207 A 
ATOM     13  C   LIG A   1      -8.727  -0.925 124.706  0.00  0.00    +0.170 A 
ATOM     14  C   LIG A   1      -8.522  -0.727 126.060  0.00  0.00    +0.053 A 
ATOM     15  C   LIG A   1      -7.524  -1.476 126.708  0.00  0.00    -0.034 A 
ATOM     16  C   LIG A   1      -6.777  -2.400 125.941  0.00  0.00    +0.053 A 
ATOM     17  O   LIG A   1      -9.660  -0.280 123.953  0.00  0.00    -0.453 OA
ATOM     18  C   LIG A   1      -9.460  -0.915 122.673  0.00  0.00    +0.467 C 
ATOM     19  O   LIG A   1      -8.376  -1.863 122.670  0.00  0.00    -0.449 OA
BRANCH  11  20
ATOM     20  O   LIG A   1      -6.313  -3.481 123.796  0.00  0.00    -0.491 OA
ATOM     21  C   LIG A   1      -4.965  -3.109 123.518  0.00  0.00    +0.277 C 
ENDBRANCH  11  20
ENDBRANCH   1  15
BRANCH   9  22
ATOM     22  O   LIG A   1      -3.927  -0.873 129.789  0.00  0.00    -0.388 OA
ATOM     23  H   LIG A   1      -4.320  -0.587 130.637  0.00  0.00    +0.210 HD
ENDBRANCH   9  22
BRANCH   8  24
ATOM     24  O   LIG A   1      -5.528   0.446 127.660  0.00  0.00    -0.370 OA
ATOM     25  C   LIG A   1      -4.949   1.664 128.111  0.00  0.00    +0.195 C 
ENDBRANCH   8  24
BRANCH   7  26
ATOM     26  O   LIG A   1      -7.543   1.283 129.793  0.00  0.00    -0.381 OA
ATOM     27  H   LIG A   1      -8.337   0.800 130.101  0.00  0.00    +0.210 HD
ENDBRANCH   7  26
BRANCH   3  28
ATOM     28  C   LIG A   1      -4.927  -3.770 130.048  0.00  0.00    +0.037 C 
BRANCH  28  29
ATOM     29  C   LIG A   1      -5.588  -4.860 130.857  0.00  0.00    -0.034 C 
ATOM     30  C   LIG A   1      -5.196  -5.224 132.086  0.00  0.00    +0.004 C 
ENDBRANCH  28  29
ENDBRANCH   3  28
TORSDOF 7
ENDMDL
MODEL 8
REMARK VINA RESULT:      -6.7      2.139      6.673
REMARK  Name = NuBBE_2314
REMARK  10 active torsions:
REMARK  status: ('A' for Active; 'I' for Inactive)
REMARK    1  A    between atoms: C_1  and  O_29
REMARK    2  A    between atoms: C_5  and  C_6
REMARK    3  A    between atoms: C_8  and  C_24
REMARK    4  A    between atoms: C_10  and  C_21
REMARK    5  A    between atoms: C_14  and  O_20
REMARK    6  A    between atoms: C_15  and  O_18
REMARK    7  A    between atoms: C_16  and  O_17
REMARK    8  A    between atoms: O_18  and  C_19
REMARK    9  A    between atoms: C_21  and  C_22
REMARK   10  A    between atoms: O_29  and  C_30
REMARK                            x       y       z     vdW  Elec       q    Type
REMARK                         _______ _______ _______ _____ _____    ______ ____
ROOT
ATOM      1  C   LIG A   1      -6.176  -0.827 128.457  0.00  0.00    +0.060 C 
ATOM      2  C   LIG A   1      -7.312   0.056 129.093  0.00  0.00    +0.006 C 
ATOM      3  C   LIG A   1      -7.384  -0.346 130.601  0.00  0.00    +0.013 C 
ATOM      4  C   LIG A   1      -6.345   0.380 131.486  0.00  0.00    +0.087 C 
ATOM      5  C   LIG A   1      -4.915   0.126 131.053  0.00  0.00    +0.165 C 
ATOM      6  O   LIG A   1      -4.034   0.956 131.247  0.00  0.00    -0.294 OA
ATOM      7  C   LIG A   1      -4.579  -1.244 130.453  0.00  0.00    +0.215 C 
ATOM      8  C   LIG A   1      -5.756  -1.815 129.610  0.00  0.00    +0.135 C 
ATOM      9  C   LIG A   1      -7.009  -1.834 130.514  0.00  0.00    +0.157 C 
ATOM     10  C   LIG A   1      -7.130   1.538 128.784  0.00  0.00    +0.009 C 
ENDROOT
BRANCH   1  15
ATOM     11  C   LIG A   1      -6.127  -2.263 124.864  0.00  0.00    +0.166 A 
ATOM     12  C   LIG A   1      -7.467  -2.572 124.720  0.00  0.00    +0.207 A 
ATOM     13  C   LIG A   1      -8.366  -2.337 125.735  0.00  0.00    +0.170 A 
ATOM     14  C   LIG A   1      -7.987  -1.773 126.940  0.00  0.00    +0.053 A 
ATOM     15  C   LIG A   1      -6.638  -1.424 127.127  0.00  0.00    -0.034 A 
ATOM     16  C   LIG A   1      -5.730  -1.670 126.071  0.00  0.00    +0.053 A 
ATOM     17  O   LIG A   1      -9.630  -2.731 125.417  0.00  0.00    -0.453 OA
ATOM     18  C   LIG A   1      -9.419  -3.283 124.101  0.00  0.00    +0.467 C 
ATOM     19  O   LIG A   1      -8.063  -3.144 123.635  0.00  0.00    -0.449 OA
BRANCH  11  20
ATOM     20  O   LIG A   1      -5.285  -2.516 123.818  0.00  0.00    -0.491 OA
ATOM     21  C   LIG A   1      -4.754  -3.838 123.771  0.00  0.00    +0.277 C 
ENDBRANCH  11  20
ENDBRANCH   1  15
BRANCH   9  22
ATOM     22  O   LIG A   1      -6.771  -2.398 131.799  0.00  0.00    -0.388 OA
ATOM     23  H   LIG A   1      -5.826  -2.650 131.809  0.00  0.00    +0.210 HD
ENDBRANCH   9  22
BRANCH   8  24
ATOM     24  O   LIG A   1      -5.548  -3.178 129.205  0.00  0.00    -0.370 OA
ATOM     25  C   LIG A   1      -4.554  -3.896 129.926  0.00  0.00    +0.195 C 
ENDBRANCH   8  24
BRANCH   7  26
ATOM     26  O   LIG A   1      -3.391  -1.070 129.669  0.00  0.00    -0.381 OA
ATOM     27  H   LIG A   1      -3.269  -1.911 129.182  0.00  0.00    +0.210 HD
ENDBRANCH   7  26
BRANCH   3  28
ATOM     28  C   LIG A   1      -8.786  -0.143 131.238  0.00  0.00    +0.037 C 
BRANCH  28  29
ATOM     29  C   LIG A   1      -8.962   1.115 132.054  0.00  0.00    -0.034 C 
ATOM     30  C   LIG A   1      -9.989   1.965 131.911  0.00  0.00    +0.004 C 
ENDBRANCH  28  29
ENDBRANCH   3  28
TORSDOF 7
ENDMDL
MODEL 9
REMARK VINA RESULT:      -6.7      2.132      3.841
REMARK  Name = NuBBE_2314
REMARK  10 active torsions:
REMARK  status: ('A' for Active; 'I' for Inactive)
REMARK    1  A    between atoms: C_1  and  O_29
REMARK    2  A    between atoms: C_5  and  C_6
REMARK    3  A    between atoms: C_8  and  C_24
REMARK    4  A    between atoms: C_10  and  C_21
REMARK    5  A    between atoms: C_14  and  O_20
REMARK    6  A    between atoms: C_15  and  O_18
REMARK    7  A    between atoms: C_16  and  O_17
REMARK    8  A    between atoms: O_18  and  C_19
REMARK    9  A    between atoms: C_21  and  C_22
REMARK   10  A    between atoms: O_29  and  C_30
REMARK                            x       y       z     vdW  Elec       q    Type
REMARK                         _______ _______ _______ _____ _____    ______ ____
ROOT
ATOM      1  C   LIG A   1      -7.409  -1.645 125.961  0.00  0.00    +0.060 C 
ATOM      2  C   LIG A   1      -7.972  -0.294 125.384  0.00  0.00    +0.006 C 
ATOM      3  C   LIG A   1      -7.716  -0.337 123.843  0.00  0.00    +0.013 C 
ATOM      4  C   LIG A   1      -8.801  -1.108 123.056  0.00  0.00    +0.087 C 
ATOM      5  C   LIG A   1      -8.941  -2.551 123.498  0.00  0.00    +0.165 C 
ATOM      6  O   LIG A   1     -10.011  -3.143 123.404  0.00  0.00    -0.294 OA
ATOM      7  C   LIG A   1      -7.681  -3.282 123.973  0.00  0.00    +0.215 C 
ATOM      8  C   LIG A   1      -6.707  -2.334 124.730  0.00  0.00    +0.135 C 
ATOM      9  C   LIG A   1      -6.406  -1.138 123.798  0.00  0.00    +0.157 C 
ATOM     10  C   LIG A   1      -9.404  -0.027 125.836  0.00  0.00    +0.009 C 
ENDROOT
BRANCH   1  15
ATOM     11  C   LIG A   1      -5.207   0.122 128.607  0.00  0.00    +0.166 A 
ATOM     12  C   LIG A   1      -5.103  -0.895 129.539  0.00  0.00    +0.207 A 
ATOM     13  C   LIG A   1      -5.718  -2.109 129.339  0.00  0.00    +0.170 A 
ATOM     14  C   LIG A   1      -6.456  -2.385 128.202  0.00  0.00    +0.053 A 
ATOM     15  C   LIG A   1      -6.575  -1.388 127.217  0.00  0.00    -0.034 A 
ATOM     16  C   LIG A   1      -5.934  -0.148 127.439  0.00  0.00    +0.053 A 
ATOM     17  O   LIG A   1      -5.524  -2.971 130.375  0.00  0.00    -0.453 OA
ATOM     18  C   LIG A   1      -4.754  -2.146 131.273  0.00  0.00    +0.467 C 
ATOM     19  O   LIG A   1      -4.445  -0.848 130.731  0.00  0.00    -0.449 OA
BRANCH  11  20
ATOM     20  O   LIG A   1      -4.570   1.304 128.861  0.00  0.00    -0.491 OA
ATOM     21  C   LIG A   1      -5.409   2.360 129.322  0.00  0.00    +0.277 C 
ENDBRANCH  11  20
ENDBRANCH   1  15
BRANCH   9  22
ATOM     22  O   LIG A   1      -6.066  -1.527 122.472  0.00  0.00    -0.388 OA
ATOM     23  H   LIG A   1      -5.597  -2.380 122.555  0.00  0.00    +0.210 HD
ENDBRANCH   9  22
BRANCH   8  24
ATOM     24  O   LIG A   1      -5.435  -2.941 125.008  0.00  0.00    -0.370 OA
ATOM     25  C   LIG A   1      -4.946  -3.839 124.020  0.00  0.00    +0.195 C 
ENDBRANCH   8  24
BRANCH   7  26
ATOM     26  O   LIG A   1      -8.123  -4.369 124.798  0.00  0.00    -0.381 OA
ATOM     27  H   LIG A   1      -7.667  -5.164 124.455  0.00  0.00    +0.210 HD
ENDBRANCH   7  26
BRANCH   3  28
ATOM     28  C   LIG A   1      -7.555   1.066 123.195  0.00  0.00    +0.037 C 
BRANCH  28  29
ATOM     29  C   LIG A   1      -6.819   2.092 124.023  0.00  0.00    -0.034 C 
ATOM     30  C   LIG A   1      -6.781   3.401 123.735  0.00  0.00    +0.004 C 
ENDBRANCH  28  29
ENDBRANCH   3  28
TORSDOF 7
ENDMDL
