MODEL 1
REMARK VINA RESULT:      -6.7      0.000      0.000
REMARK  Name = NuBBE_2058
REMARK  10 active torsions:
REMARK  status: ('A' for Active; 'I' for Inactive)
REMARK    1  A    between atoms: C_6  and  O_7
REMARK    2  A    between atoms: O_7  and  C_8
REMARK    3  A    between atoms: C_8  and  C_9
REMARK    4  A    between atoms: C_9  and  O_10
REMARK    5  A    between atoms: C_9  and  C_11
REMARK    6  A    between atoms: C_11  and  C_12
REMARK    7  A    between atoms: C_11  and  O_13
REMARK    8  A    between atoms: C_11  and  C_14
REMARK    9  A    between atoms: C_15  and  O_20
REMARK   10  A    between atoms: O_20  and  C_21
REMARK                            x       y       z     vdW  Elec       q    Type
REMARK                         _______ _______ _______ _____ _____    ______ ____
ROOT
ATOM      1  O   LIG A   1      -7.389   4.569 118.538  0.00  0.00    -0.245 OA
ATOM      2  C   LIG A   1      -7.082   4.242 119.684  0.00  0.00    +0.337 A 
ATOM      3  O   LIG A   1      -8.000   3.704 120.578  0.00  0.00    -0.422 OA
ATOM      4  C   LIG A   1      -7.640   3.431 121.913  0.00  0.00    +0.143 A 
ATOM      5  C   LIG A   1      -8.626   2.964 122.781  0.00  0.00    +0.096 A 
ATOM      6  C   LIG A   1      -8.321   2.739 124.132  0.00  0.00    +0.166 A 
ATOM      7  C   LIG A   1      -7.002   2.945 124.586  0.00  0.00    +0.162 A 
ATOM      8  C   LIG A   1      -6.020   3.385 123.682  0.00  0.00    +0.061 A 
ATOM      9  C   LIG A   1      -6.338   3.640 122.348  0.00  0.00    +0.021 A 
ATOM     10  C   LIG A   1      -5.335   4.111 121.408  0.00  0.00    +0.019 A 
ATOM     11  C   LIG A   1      -5.697   4.399 120.157  0.00  0.00    +0.092 A 
ENDROOT
BRANCH   7  12
ATOM     12  O   LIG A   1      -6.685   2.627 125.881  0.00  0.00    -0.491 OA
ATOM     13  C   LIG A   1      -5.901   1.449 126.060  0.00  0.00    +0.277 C 
ENDBRANCH   7  12
BRANCH   6  14
ATOM     14  O   LIG A   1      -9.397   2.310 124.875  0.00  0.00    -0.485 OA
BRANCH  14  15
ATOM     15  C   LIG A   1     -10.052   1.108 124.427  0.00  0.00    +0.263 C 
BRANCH  15  16
ATOM     16  C   LIG A   1      -9.165  -0.103 124.786  0.00  0.00    +0.183 C 
BRANCH  16  17
ATOM     17  C   LIG A   1      -8.870  -1.023 123.567  0.00  0.00    +0.089 C 
ATOM     18  C   LIG A   1      -9.021  -2.514 123.895  0.00  0.00    +0.044 C 
ATOM     19  C   LIG A   1      -7.450  -0.772 123.037  0.00  0.00    +0.044 C 
BRANCH  17  20
ATOM     20  O   LIG A   1      -9.794  -0.708 122.516  0.00  0.00    -0.387 OA
ATOM     21  H   LIG A   1     -10.148   0.183 122.690  0.00  0.00    +0.210 HD
ENDBRANCH  17  20
ENDBRANCH  16  17
BRANCH  16  22
ATOM     22  O   LIG A   1      -9.779  -0.861 125.839  0.00  0.00    -0.386 OA
ATOM     23  H   LIG A   1     -10.649  -1.140 125.497  0.00  0.00    +0.210 HD
ENDBRANCH  16  22
ENDBRANCH  15  16
ENDBRANCH  14  15
ENDBRANCH   6  14
TORSDOF 7
ENDMDL
MODEL 2
REMARK VINA RESULT:      -6.4      8.956     10.329
REMARK  Name = NuBBE_2058
REMARK  10 active torsions:
REMARK  status: ('A' for Active; 'I' for Inactive)
REMARK    1  A    between atoms: C_6  and  O_7
REMARK    2  A    between atoms: O_7  and  C_8
REMARK    3  A    between atoms: C_8  and  C_9
REMARK    4  A    between atoms: C_9  and  O_10
REMARK    5  A    between atoms: C_9  and  C_11
REMARK    6  A    between atoms: C_11  and  C_12
REMARK    7  A    between atoms: C_11  and  O_13
REMARK    8  A    between atoms: C_11  and  C_14
REMARK    9  A    between atoms: C_15  and  O_20
REMARK   10  A    between atoms: O_20  and  C_21
REMARK                            x       y       z     vdW  Elec       q    Type
REMARK                         _______ _______ _______ _____ _____    ______ ____
ROOT
ATOM      1  O   LIG A   1     -11.891   8.600 127.846  0.00  0.00    -0.245 OA
ATOM      2  C   LIG A   1     -11.544   8.069 128.900  0.00  0.00    +0.337 A 
ATOM      3  O   LIG A   1     -10.209   7.869 129.230  0.00  0.00    -0.422 OA
ATOM      4  C   LIG A   1      -9.847   7.171 130.401  0.00  0.00    +0.143 A 
ATOM      5  C   LIG A   1      -8.493   6.935 130.636  0.00  0.00    +0.096 A 
ATOM      6  C   LIG A   1      -8.097   6.191 131.758  0.00  0.00    +0.166 A 
ATOM      7  C   LIG A   1      -9.076   5.729 132.661  0.00  0.00    +0.162 A 
ATOM      8  C   LIG A   1     -10.432   6.009 132.416  0.00  0.00    +0.061 A 
ATOM      9  C   LIG A   1     -10.821   6.719 131.280  0.00  0.00    +0.021 A 
ATOM     10  C   LIG A   1     -12.220   7.000 131.008  0.00  0.00    +0.019 A 
ATOM     11  C   LIG A   1     -12.552   7.630 129.879  0.00  0.00    +0.092 A 
ENDROOT
BRANCH   7  12
ATOM     12  O   LIG A   1      -8.678   5.091 133.808  0.00  0.00    -0.491 OA
ATOM     13  C   LIG A   1      -8.994   3.702 133.889  0.00  0.00    +0.277 C 
ENDBRANCH   7  12
BRANCH   6  14
ATOM     14  O   LIG A   1      -6.736   6.012 131.847  0.00  0.00    -0.485 OA
BRANCH  14  15
ATOM     15  C   LIG A   1      -5.912   6.982 131.171  0.00  0.00    +0.263 C 
BRANCH  15  16
ATOM     16  C   LIG A   1      -4.851   6.235 130.336  0.00  0.00    +0.183 C 
BRANCH  16  17
ATOM     17  C   LIG A   1      -3.653   7.138 129.927  0.00  0.00    +0.089 C 
ATOM     18  C   LIG A   1      -2.474   6.341 129.352  0.00  0.00    +0.044 C 
ATOM     19  C   LIG A   1      -3.160   7.954 131.131  0.00  0.00    +0.044 C 
BRANCH  17  20
ATOM     20  O   LIG A   1      -4.093   8.061 128.921  0.00  0.00    -0.387 OA
ATOM     21  H   LIG A   1      -4.494   8.823 129.373  0.00  0.00    +0.210 HD
ENDBRANCH  17  20
ENDBRANCH  16  17
BRANCH  16  22
ATOM     22  O   LIG A   1      -5.462   5.667 129.167  0.00  0.00    -0.386 OA
ATOM     23  H   LIG A   1      -5.490   4.704 129.320  0.00  0.00    +0.210 HD
ENDBRANCH  16  22
ENDBRANCH  15  16
ENDBRANCH  14  15
ENDBRANCH   6  14
TORSDOF 7
ENDMDL
MODEL 3
REMARK VINA RESULT:      -6.0      8.738      9.445
REMARK  Name = NuBBE_2058
REMARK  10 active torsions:
REMARK  status: ('A' for Active; 'I' for Inactive)
REMARK    1  A    between atoms: C_6  and  O_7
REMARK    2  A    between atoms: O_7  and  C_8
REMARK    3  A    between atoms: C_8  and  C_9
REMARK    4  A    between atoms: C_9  and  O_10
REMARK    5  A    between atoms: C_9  and  C_11
REMARK    6  A    between atoms: C_11  and  C_12
REMARK    7  A    between atoms: C_11  and  O_13
REMARK    8  A    between atoms: C_11  and  C_14
REMARK    9  A    between atoms: C_15  and  O_20
REMARK   10  A    between atoms: O_20  and  C_21
REMARK                            x       y       z     vdW  Elec       q    Type
REMARK                         _______ _______ _______ _____ _____    ______ ____
ROOT
ATOM      1  O   LIG A   1     -13.884   7.053 127.546  0.00  0.00    -0.245 OA
ATOM      2  C   LIG A   1     -12.792   7.071 128.111  0.00  0.00    +0.337 A 
ATOM      3  O   LIG A   1     -12.417   6.107 129.040  0.00  0.00    -0.422 OA
ATOM      4  C   LIG A   1     -11.198   6.209 129.742  0.00  0.00    +0.143 A 
ATOM      5  C   LIG A   1     -10.915   5.251 130.715  0.00  0.00    +0.096 A 
ATOM      6  C   LIG A   1      -9.742   5.354 131.478  0.00  0.00    +0.166 A 
ATOM      7  C   LIG A   1      -8.838   6.404 131.216  0.00  0.00    +0.162 A 
ATOM      8  C   LIG A   1      -9.133   7.336 130.206  0.00  0.00    +0.061 A 
ATOM      9  C   LIG A   1     -10.318   7.249 129.476  0.00  0.00    +0.021 A 
ATOM     10  C   LIG A   1     -10.642   8.216 128.442  0.00  0.00    +0.019 A 
ATOM     11  C   LIG A   1     -11.814   8.129 127.809  0.00  0.00    +0.092 A 
ENDROOT
BRANCH   7  12
ATOM     12  O   LIG A   1      -7.646   6.442 131.893  0.00  0.00    -0.491 OA
ATOM     13  C   LIG A   1      -6.519   6.893 131.144  0.00  0.00    +0.277 C 
ENDBRANCH   7  12
BRANCH   6  14
ATOM     14  O   LIG A   1      -9.609   4.360 132.420  0.00  0.00    -0.485 OA
BRANCH  14  15
ATOM     15  C   LIG A   1      -8.961   3.147 131.989  0.00  0.00    +0.263 C 
BRANCH  15  16
ATOM     16  C   LIG A   1      -8.185   2.550 133.182  0.00  0.00    +0.183 C 
BRANCH  16  17
ATOM     17  C   LIG A   1      -6.802   3.224 133.406  0.00  0.00    +0.089 C 
ATOM     18  C   LIG A   1      -5.969   3.318 132.121  0.00  0.00    +0.044 C 
ATOM     19  C   LIG A   1      -5.996   2.456 134.465  0.00  0.00    +0.044 C 
BRANCH  17  20
ATOM     20  O   LIG A   1      -7.011   4.556 133.894  0.00  0.00    -0.387 OA
ATOM     21  H   LIG A   1      -6.649   5.174 133.234  0.00  0.00    +0.210 HD
ENDBRANCH  17  20
ENDBRANCH  16  17
BRANCH  16  22
ATOM     22  O   LIG A   1      -8.020   1.136 132.997  0.00  0.00    -0.386 OA
ATOM     23  H   LIG A   1      -7.066   0.961 133.097  0.00  0.00    +0.210 HD
ENDBRANCH  16  22
ENDBRANCH  15  16
ENDBRANCH  14  15
ENDBRANCH   6  14
TORSDOF 7
ENDMDL
MODEL 4
REMARK VINA RESULT:      -6.0      3.571      7.637
REMARK  Name = NuBBE_2058
REMARK  10 active torsions:
REMARK  status: ('A' for Active; 'I' for Inactive)
REMARK    1  A    between atoms: C_6  and  O_7
REMARK    2  A    between atoms: O_7  and  C_8
REMARK    3  A    between atoms: C_8  and  C_9
REMARK    4  A    between atoms: C_9  and  O_10
REMARK    5  A    between atoms: C_9  and  C_11
REMARK    6  A    between atoms: C_11  and  C_12
REMARK    7  A    between atoms: C_11  and  O_13
REMARK    8  A    between atoms: C_11  and  C_14
REMARK    9  A    between atoms: C_15  and  O_20
REMARK   10  A    between atoms: O_20  and  C_21
REMARK                            x       y       z     vdW  Elec       q    Type
REMARK                         _______ _______ _______ _____ _____    ______ ____
ROOT
ATOM      1  O   LIG A   1      -5.739  -1.251 131.422  0.00  0.00    -0.245 OA
ATOM      2  C   LIG A   1      -6.354  -1.723 130.467  0.00  0.00    +0.337 A 
ATOM      3  O   LIG A   1      -6.683  -0.971 129.345  0.00  0.00    -0.422 OA
ATOM      4  C   LIG A   1      -7.472  -1.515 128.311  0.00  0.00    +0.143 A 
ATOM      5  C   LIG A   1      -7.832  -0.685 127.249  0.00  0.00    +0.096 A 
ATOM      6  C   LIG A   1      -8.668  -1.173 126.233  0.00  0.00    +0.166 A 
ATOM      7  C   LIG A   1      -9.096  -2.515 126.274  0.00  0.00    +0.162 A 
ATOM      8  C   LIG A   1      -8.691  -3.338 127.340  0.00  0.00    +0.061 A 
ATOM      9  C   LIG A   1      -7.890  -2.838 128.366  0.00  0.00    +0.021 A 
ATOM     10  C   LIG A   1      -7.478  -3.674 129.480  0.00  0.00    +0.019 A 
ATOM     11  C   LIG A   1      -6.761  -3.138 130.469  0.00  0.00    +0.092 A 
ENDROOT
BRANCH   7  12
ATOM     12  O   LIG A   1      -9.827  -3.015 125.228  0.00  0.00    -0.491 OA
ATOM     13  C   LIG A   1      -9.081  -3.406 124.076  0.00  0.00    +0.277 C 
ENDBRANCH   7  12
BRANCH   6  14
ATOM     14  O   LIG A   1      -8.964  -0.236 125.268  0.00  0.00    -0.485 OA
BRANCH  14  15
ATOM     15  C   LIG A   1      -8.712   1.141 125.608  0.00  0.00    +0.263 C 
BRANCH  15  16
ATOM     16  C   LIG A   1      -9.396   2.043 124.559  0.00  0.00    +0.183 C 
BRANCH  16  17
ATOM     17  C   LIG A   1      -8.953   1.725 123.102  0.00  0.00    +0.089 C 
ATOM     18  C   LIG A   1      -8.645   2.985 122.284  0.00  0.00    +0.044 C 
ATOM     19  C   LIG A   1     -10.037   0.913 122.377  0.00  0.00    +0.044 C 
BRANCH  17  20
ATOM     20  O   LIG A   1      -7.761   0.927 123.146  0.00  0.00    -0.387 OA
ATOM     21  H   LIG A   1      -7.048   1.437 122.722  0.00  0.00    +0.210 HD
ENDBRANCH  17  20
ENDBRANCH  16  17
BRANCH  16  22
ATOM     22  O   LIG A   1      -9.140   3.423 124.862  0.00  0.00    -0.386 OA
ATOM     23  H   LIG A   1      -9.542   3.585 125.736  0.00  0.00    +0.210 HD
ENDBRANCH  16  22
ENDBRANCH  15  16
ENDBRANCH  14  15
ENDBRANCH   6  14
TORSDOF 7
ENDMDL
MODEL 5
REMARK VINA RESULT:      -6.0      2.877      7.468
REMARK  Name = NuBBE_2058
REMARK  10 active torsions:
REMARK  status: ('A' for Active; 'I' for Inactive)
REMARK    1  A    between atoms: C_6  and  O_7
REMARK    2  A    between atoms: O_7  and  C_8
REMARK    3  A    between atoms: C_8  and  C_9
REMARK    4  A    between atoms: C_9  and  O_10
REMARK    5  A    between atoms: C_9  and  C_11
REMARK    6  A    between atoms: C_11  and  C_12
REMARK    7  A    between atoms: C_11  and  O_13
REMARK    8  A    between atoms: C_11  and  C_14
REMARK    9  A    between atoms: C_15  and  O_20
REMARK   10  A    between atoms: O_20  and  C_21
REMARK                            x       y       z     vdW  Elec       q    Type
REMARK                         _______ _______ _______ _____ _____    ______ ____
ROOT
ATOM      1  O   LIG A   1      -7.521  -2.105 130.904  0.00  0.00    -0.245 OA
ATOM      2  C   LIG A   1      -7.795  -2.209 129.710  0.00  0.00    +0.337 A 
ATOM      3  O   LIG A   1      -7.683  -1.145 128.822  0.00  0.00    -0.422 OA
ATOM      4  C   LIG A   1      -8.097  -1.271 127.480  0.00  0.00    +0.143 A 
ATOM      5  C   LIG A   1      -8.031  -0.145 126.661  0.00  0.00    +0.096 A 
ATOM      6  C   LIG A   1      -8.491  -0.215 125.337  0.00  0.00    +0.166 A 
ATOM      7  C   LIG A   1      -8.974  -1.441 124.837  0.00  0.00    +0.162 A 
ATOM      8  C   LIG A   1      -8.999  -2.569 125.677  0.00  0.00    +0.061 A 
ATOM      9  C   LIG A   1      -8.573  -2.484 127.002  0.00  0.00    +0.021 A 
ATOM     10  C   LIG A   1      -8.609  -3.638 127.883  0.00  0.00    +0.019 A 
ATOM     11  C   LIG A   1      -8.248  -3.497 129.160  0.00  0.00    +0.092 A 
ENDROOT
BRANCH   7  12
ATOM     12  O   LIG A   1      -9.328  -1.530 123.516  0.00  0.00    -0.491 OA
ATOM     13  C   LIG A   1      -8.313  -2.002 122.630  0.00  0.00    +0.277 C 
ENDBRANCH   7  12
BRANCH   6  14
ATOM     14  O   LIG A   1      -8.393   0.978 124.657  0.00  0.00    -0.485 OA
BRANCH  14  15
ATOM     15  C   LIG A   1      -8.457   2.179 125.450  0.00  0.00    +0.263 C 
BRANCH  15  16
ATOM     16  C   LIG A   1      -8.139   3.387 124.544  0.00  0.00    +0.183 C 
BRANCH  16  17
ATOM     17  C   LIG A   1      -6.619   3.549 124.256  0.00  0.00    +0.089 C 
ATOM     18  C   LIG A   1      -6.062   4.897 124.731  0.00  0.00    +0.044 C 
ATOM     19  C   LIG A   1      -6.338   3.396 122.754  0.00  0.00    +0.044 C 
BRANCH  17  20
ATOM     20  O   LIG A   1      -5.906   2.512 124.945  0.00  0.00    -0.387 OA
ATOM     21  H   LIG A   1      -5.320   2.937 125.596  0.00  0.00    +0.210 HD
ENDBRANCH  17  20
ENDBRANCH  16  17
BRANCH  16  22
ATOM     22  O   LIG A   1      -8.659   4.588 125.134  0.00  0.00    -0.386 OA
ATOM     23  H   LIG A   1      -9.507   4.764 124.683  0.00  0.00    +0.210 HD
ENDBRANCH  16  22
ENDBRANCH  15  16
ENDBRANCH  14  15
ENDBRANCH   6  14
TORSDOF 7
ENDMDL
MODEL 6
REMARK VINA RESULT:      -6.0      3.529      7.641
REMARK  Name = NuBBE_2058
REMARK  10 active torsions:
REMARK  status: ('A' for Active; 'I' for Inactive)
REMARK    1  A    between atoms: C_6  and  O_7
REMARK    2  A    between atoms: O_7  and  C_8
REMARK    3  A    between atoms: C_8  and  C_9
REMARK    4  A    between atoms: C_9  and  O_10
REMARK    5  A    between atoms: C_9  and  C_11
REMARK    6  A    between atoms: C_11  and  C_12
REMARK    7  A    between atoms: C_11  and  O_13
REMARK    8  A    between atoms: C_11  and  C_14
REMARK    9  A    between atoms: C_15  and  O_20
REMARK   10  A    between atoms: O_20  and  C_21
REMARK                            x       y       z     vdW  Elec       q    Type
REMARK                         _______ _______ _______ _____ _____    ______ ____
ROOT
ATOM      1  O   LIG A   1      -5.076  -3.222 130.568  0.00  0.00    -0.245 OA
ATOM      2  C   LIG A   1      -5.860  -3.085 129.630  0.00  0.00    +0.337 A 
ATOM      3  O   LIG A   1      -5.523  -2.396 128.470  0.00  0.00    -0.422 OA
ATOM      4  C   LIG A   1      -6.475  -2.173 127.455  0.00  0.00    +0.143 A 
ATOM      5  C   LIG A   1      -6.097  -1.409 126.352  0.00  0.00    +0.096 A 
ATOM      6  C   LIG A   1      -7.035  -1.114 125.350  0.00  0.00    +0.166 A 
ATOM      7  C   LIG A   1      -8.340  -1.636 125.450  0.00  0.00    +0.162 A 
ATOM      8  C   LIG A   1      -8.684  -2.431 126.557  0.00  0.00    +0.061 A 
ATOM      9  C   LIG A   1      -7.759  -2.691 127.567  0.00  0.00    +0.021 A 
ATOM     10  C   LIG A   1      -8.108  -3.498 128.724  0.00  0.00    +0.019 A 
ATOM     11  C   LIG A   1      -7.209  -3.671 129.695  0.00  0.00    +0.092 A 
ENDROOT
BRANCH   7  12
ATOM     12  O   LIG A   1      -9.222  -1.430 124.420  0.00  0.00    -0.491 OA
ATOM     13  C   LIG A   1      -9.143  -2.357 123.338  0.00  0.00    +0.277 C 
ENDBRANCH   7  12
BRANCH   6  14
ATOM     14  O   LIG A   1      -6.531  -0.326 124.340  0.00  0.00    -0.485 OA
BRANCH  14  15
ATOM     15  C   LIG A   1      -6.807   1.085 124.424  0.00  0.00    +0.263 C 
BRANCH  15  16
ATOM     16  C   LIG A   1      -7.400   1.555 123.079  0.00  0.00    +0.183 C 
BRANCH  16  17
ATOM     17  C   LIG A   1      -7.140   3.061 122.793  0.00  0.00    +0.089 C 
ATOM     18  C   LIG A   1      -6.281   3.292 121.543  0.00  0.00    +0.044 C 
ATOM     19  C   LIG A   1      -6.455   3.726 123.996  0.00  0.00    +0.044 C 
BRANCH  17  20
ATOM     20  O   LIG A   1      -8.400   3.716 122.588  0.00  0.00    -0.387 OA
ATOM     21  H   LIG A   1      -8.651   4.145 123.425  0.00  0.00    +0.210 HD
ENDBRANCH  17  20
ENDBRANCH  16  17
BRANCH  16  22
ATOM     22  O   LIG A   1      -8.809   1.283 123.046  0.00  0.00    -0.386 OA
ATOM     23  H   LIG A   1      -9.148   1.512 123.932  0.00  0.00    +0.210 HD
ENDBRANCH  16  22
ENDBRANCH  15  16
ENDBRANCH  14  15
ENDBRANCH   6  14
TORSDOF 7
ENDMDL
MODEL 7
REMARK VINA RESULT:      -5.8      8.368     10.550
REMARK  Name = NuBBE_2058
REMARK  10 active torsions:
REMARK  status: ('A' for Active; 'I' for Inactive)
REMARK    1  A    between atoms: C_6  and  O_7
REMARK    2  A    between atoms: O_7  and  C_8
REMARK    3  A    between atoms: C_8  and  C_9
REMARK    4  A    between atoms: C_9  and  O_10
REMARK    5  A    between atoms: C_9  and  C_11
REMARK    6  A    between atoms: C_11  and  C_12
REMARK    7  A    between atoms: C_11  and  O_13
REMARK    8  A    between atoms: C_11  and  C_14
REMARK    9  A    between atoms: C_15  and  O_20
REMARK   10  A    between atoms: O_20  and  C_21
REMARK                            x       y       z     vdW  Elec       q    Type
REMARK                         _______ _______ _______ _____ _____    ______ ____
ROOT
ATOM      1  O   LIG A   1     -10.554   7.700 129.054  0.00  0.00    -0.245 OA
ATOM      2  C   LIG A   1      -9.967   7.259 130.041  0.00  0.00    +0.337 A 
ATOM      3  O   LIG A   1      -8.585   7.326 130.180  0.00  0.00    -0.422 OA
ATOM      4  C   LIG A   1      -7.935   6.725 131.277  0.00  0.00    +0.143 A 
ATOM      5  C   LIG A   1      -6.541   6.760 131.318  0.00  0.00    +0.096 A 
ATOM      6  C   LIG A   1      -5.856   6.120 132.362  0.00  0.00    +0.166 A 
ATOM      7  C   LIG A   1      -6.590   5.487 133.385  0.00  0.00    +0.162 A 
ATOM      8  C   LIG A   1      -7.995   5.495 133.335  0.00  0.00    +0.061 A 
ATOM      9  C   LIG A   1      -8.670   6.102 132.276  0.00  0.00    +0.021 A 
ATOM     10  C   LIG A   1     -10.121   6.103 132.205  0.00  0.00    +0.019 A 
ATOM     11  C   LIG A   1     -10.723   6.643 131.144  0.00  0.00    +0.092 A 
ENDROOT
BRANCH   7  12
ATOM     12  O   LIG A   1      -5.920   4.951 134.454  0.00  0.00    -0.491 OA
ATOM     13  C   LIG A   1      -6.315   3.636 134.842  0.00  0.00    +0.277 C 
ENDBRANCH   7  12
BRANCH   6  14
ATOM     14  O   LIG A   1      -4.486   6.210 132.258  0.00  0.00    -0.485 OA
BRANCH  14  15
ATOM     15  C   LIG A   1      -3.969   7.326 131.508  0.00  0.00    +0.263 C 
BRANCH  15  16
ATOM     16  C   LIG A   1      -2.899   6.808 130.524  0.00  0.00    +0.183 C 
BRANCH  16  17
ATOM     17  C   LIG A   1      -3.385   6.799 129.046  0.00  0.00    +0.089 C 
ATOM     18  C   LIG A   1      -4.213   5.556 128.698  0.00  0.00    +0.044 C 
ATOM     19  C   LIG A   1      -2.188   6.884 128.088  0.00  0.00    +0.044 C 
BRANCH  17  20
ATOM     20  O   LIG A   1      -4.208   7.953 128.824  0.00  0.00    -0.387 OA
ATOM     21  H   LIG A   1      -4.593   8.212 129.680  0.00  0.00    +0.210 HD
ENDBRANCH  17  20
ENDBRANCH  16  17
BRANCH  16  22
ATOM     22  O   LIG A   1      -2.477   5.492 130.912  0.00  0.00    -0.386 OA
ATOM     23  H   LIG A   1      -2.215   5.560 131.849  0.00  0.00    +0.210 HD
ENDBRANCH  16  22
ENDBRANCH  15  16
ENDBRANCH  14  15
ENDBRANCH   6  14
TORSDOF 7
ENDMDL
MODEL 8
REMARK VINA RESULT:      -5.6      8.917     10.034
REMARK  Name = NuBBE_2058
REMARK  10 active torsions:
REMARK  status: ('A' for Active; 'I' for Inactive)
REMARK    1  A    between atoms: C_6  and  O_7
REMARK    2  A    between atoms: O_7  and  C_8
REMARK    3  A    between atoms: C_8  and  C_9
REMARK    4  A    between atoms: C_9  and  O_10
REMARK    5  A    between atoms: C_9  and  C_11
REMARK    6  A    between atoms: C_11  and  C_12
REMARK    7  A    between atoms: C_11  and  O_13
REMARK    8  A    between atoms: C_11  and  C_14
REMARK    9  A    between atoms: C_15  and  O_20
REMARK   10  A    between atoms: O_20  and  C_21
REMARK                            x       y       z     vdW  Elec       q    Type
REMARK                         _______ _______ _______ _____ _____    ______ ____
ROOT
ATOM      1  O   LIG A   1      -2.683   7.238 128.146  0.00  0.00    -0.245 OA
ATOM      2  C   LIG A   1      -3.181   6.839 129.198  0.00  0.00    +0.337 A 
ATOM      3  O   LIG A   1      -4.549   6.882 129.440  0.00  0.00    -0.422 OA
ATOM      4  C   LIG A   1      -5.077   6.508 130.692  0.00  0.00    +0.143 A 
ATOM      5  C   LIG A   1      -6.450   6.646 130.898  0.00  0.00    +0.096 A 
ATOM      6  C   LIG A   1      -7.004   6.343 132.150  0.00  0.00    +0.166 A 
ATOM      7  C   LIG A   1      -6.169   5.856 133.176  0.00  0.00    +0.162 A 
ATOM      8  C   LIG A   1      -4.794   5.696 132.931  0.00  0.00    +0.061 A 
ATOM      9  C   LIG A   1      -4.243   6.033 131.695  0.00  0.00    +0.021 A 
ATOM     10  C   LIG A   1      -2.821   5.887 131.436  0.00  0.00    +0.019 A 
ATOM     11  C   LIG A   1      -2.328   6.277 130.259  0.00  0.00    +0.092 A 
ENDROOT
BRANCH   7  12
ATOM     12  O   LIG A   1      -6.730   5.466 134.365  0.00  0.00    -0.491 OA
ATOM     13  C   LIG A   1      -6.056   5.902 135.544  0.00  0.00    +0.277 C 
ENDBRANCH   7  12
BRANCH   6  14
ATOM     14  O   LIG A   1      -8.363   6.555 132.217  0.00  0.00    -0.485 OA
BRANCH  14  15
ATOM     15  C   LIG A   1      -9.090   6.466 130.976  0.00  0.00    +0.263 C 
BRANCH  15  16
ATOM     16  C   LIG A   1     -10.537   6.026 131.282  0.00  0.00    +0.183 C 
BRANCH  16  17
ATOM     17  C   LIG A   1     -11.586   6.690 130.345  0.00  0.00    +0.089 C 
ATOM     18  C   LIG A   1     -10.999   7.836 129.510  0.00  0.00    +0.044 C 
ATOM     19  C   LIG A   1     -12.772   7.226 131.160  0.00  0.00    +0.044 C 
BRANCH  17  20
ATOM     20  O   LIG A   1     -12.088   5.698 129.438  0.00  0.00    -0.387 OA
ATOM     21  H   LIG A   1     -11.902   4.823 129.824  0.00  0.00    +0.210 HD
ENDBRANCH  17  20
ENDBRANCH  16  17
BRANCH  16  22
ATOM     22  O   LIG A   1     -10.853   6.309 132.654  0.00  0.00    -0.386 OA
ATOM     23  H   LIG A   1     -11.786   6.050 132.773  0.00  0.00    +0.210 HD
ENDBRANCH  16  22
ENDBRANCH  15  16
ENDBRANCH  14  15
ENDBRANCH   6  14
TORSDOF 7
ENDMDL
MODEL 9
REMARK VINA RESULT:      -5.4      9.302     10.404
REMARK  Name = NuBBE_2058
REMARK  10 active torsions:
REMARK  status: ('A' for Active; 'I' for Inactive)
REMARK    1  A    between atoms: C_6  and  O_7
REMARK    2  A    between atoms: O_7  and  C_8
REMARK    3  A    between atoms: C_8  and  C_9
REMARK    4  A    between atoms: C_9  and  O_10
REMARK    5  A    between atoms: C_9  and  C_11
REMARK    6  A    between atoms: C_11  and  C_12
REMARK    7  A    between atoms: C_11  and  O_13
REMARK    8  A    between atoms: C_11  and  C_14
REMARK    9  A    between atoms: C_15  and  O_20
REMARK   10  A    between atoms: O_20  and  C_21
REMARK                            x       y       z     vdW  Elec       q    Type
REMARK                         _______ _______ _______ _____ _____    ______ ____
ROOT
ATOM      1  O   LIG A   1     -11.445   8.715 128.231  0.00  0.00    -0.245 OA
ATOM      2  C   LIG A   1     -11.080   8.074 129.216  0.00  0.00    +0.337 A 
ATOM      3  O   LIG A   1      -9.748   7.753 129.446  0.00  0.00    -0.422 OA
ATOM      4  C   LIG A   1      -9.374   6.935 130.532  0.00  0.00    +0.143 A 
ATOM      5  C   LIG A   1      -8.031   6.586 130.664  0.00  0.00    +0.096 A 
ATOM      6  C   LIG A   1      -7.630   5.724 131.696  0.00  0.00    +0.166 A 
ATOM      7  C   LIG A   1      -8.589   5.257 132.618  0.00  0.00    +0.162 A 
ATOM      8  C   LIG A   1      -9.931   5.651 132.480  0.00  0.00    +0.061 A 
ATOM      9  C   LIG A   1     -10.329   6.480 131.431  0.00  0.00    +0.021 A 
ATOM     10  C   LIG A   1     -11.716   6.881 131.269  0.00  0.00    +0.019 A 
ATOM     11  C   LIG A   1     -12.062   7.626 130.217  0.00  0.00    +0.092 A 
ENDROOT
BRANCH   7  12
ATOM     12  O   LIG A   1      -8.177   4.498 133.683  0.00  0.00    -0.491 OA
ATOM     13  C   LIG A   1      -8.570   3.127 133.659  0.00  0.00    +0.277 C 
ENDBRANCH   7  12
BRANCH   6  14
ATOM     14  O   LIG A   1      -6.283   5.443 131.686  0.00  0.00    -0.485 OA
BRANCH  14  15
ATOM     15  C   LIG A   1      -5.462   6.189 132.605  0.00  0.00    +0.263 C 
BRANCH  15  16
ATOM     16  C   LIG A   1      -4.477   5.218 133.290  0.00  0.00    +0.183 C 
BRANCH  16  17
ATOM     17  C   LIG A   1      -3.425   4.626 132.310  0.00  0.00    +0.089 C 
ATOM     18  C   LIG A   1      -3.654   3.137 132.018  0.00  0.00    +0.044 C 
ATOM     19  C   LIG A   1      -2.007   4.810 132.870  0.00  0.00    +0.044 C 
BRANCH  17  20
ATOM     20  O   LIG A   1      -3.502   5.336 131.066  0.00  0.00    -0.387 OA
ATOM     21  H   LIG A   1      -4.266   4.986 130.573  0.00  0.00    +0.210 HD
ENDBRANCH  17  20
ENDBRANCH  16  17
BRANCH  16  22
ATOM     22  O   LIG A   1      -5.205   4.160 133.932  0.00  0.00    -0.386 OA
ATOM     23  H   LIG A   1      -4.565   3.434 134.061  0.00  0.00    +0.210 HD
ENDBRANCH  16  22
ENDBRANCH  15  16
ENDBRANCH  14  15
ENDBRANCH   6  14
TORSDOF 7
ENDMDL
