MODEL 1
REMARK VINA RESULT:      -4.8      0.000      0.000
REMARK  Name = NuBBE_1811
REMARK  15 active torsions:
REMARK  status: ('A' for Active; 'I' for Inactive)
REMARK    1  A    between atoms: C_1  and  O_2
REMARK    2  A    between atoms: O_2  and  O_3
REMARK    3  A    between atoms: O_3  and  C_4
REMARK    4  A    between atoms: C_4  and  C_5
REMARK    5  A    between atoms: C_5  and  C_6
REMARK    6  A    between atoms: C_6  and  C_7
REMARK    7  A    between atoms: C_7  and  C_8
REMARK    8  A    between atoms: C_8  and  C_9
REMARK    9  A    between atoms: C_9  and  C_10
REMARK   10  A    between atoms: C_10  and  C_11
REMARK   11  A    between atoms: C_11  and  C_12
REMARK   12  A    between atoms: C_12  and  C_13
REMARK   13  A    between atoms: C_13  and  O_14
REMARK   14  A    between atoms: O_14  and  O_15
REMARK   15  A    between atoms: O_15  and  C_16
REMARK                            x       y       z     vdW  Elec       q    Type
REMARK                         _______ _______ _______ _____ _____    ______ ____
ROOT
ATOM      1  C   LIG A   1      -8.362  -3.547 126.471  0.00  0.00    -0.000 C 
ENDROOT
BRANCH   1   2
ATOM      2  C   LIG A   1      -9.365  -2.827 125.537  0.00  0.00    +0.000 C 
BRANCH   2   3
ATOM      3  C   LIG A   1      -9.389  -3.289 124.064  0.00  0.00    +0.002 C 
BRANCH   3   4
ATOM      4  C   LIG A   1      -8.493  -2.493 123.117  0.00  0.00    +0.031 C 
BRANCH   4   5
ATOM      5  C   LIG A   1      -8.901  -1.020 123.003  0.00  0.00    +0.201 C 
BRANCH   5   6
ATOM      6  O   LIG A   1     -10.293  -0.960 122.688  0.00  0.00    -0.235 OA
BRANCH   6   8
ATOM      7  C   LIG A   1     -10.098   1.180 123.501  0.00  0.00    +0.238 C 
ATOM      8  O   LIG A   1     -10.574   0.438 122.382  0.00  0.00    -0.238 OA
ENDBRANCH   6   8
ENDBRANCH   5   6
ENDBRANCH   4   5
ENDBRANCH   3   4
ENDBRANCH   2   3
ENDBRANCH   1   2
BRANCH   1   9
ATOM      9  C   LIG A   1      -9.025  -3.948 127.817  0.00  0.00    -0.000 C 
BRANCH   9  10
ATOM     10  C   LIG A   1      -8.460  -3.249 129.073  0.00  0.00    +0.000 C 
BRANCH  10  11
ATOM     11  C   LIG A   1      -6.920  -3.359 129.253  0.00  0.00    +0.002 C 
BRANCH  11  12
ATOM     12  C   LIG A   1      -6.437  -3.441 130.709  0.00  0.00    +0.031 C 
BRANCH  12  13
ATOM     13  C   LIG A   1      -7.418  -2.864 131.745  0.00  0.00    +0.201 C 
BRANCH  13  14
ATOM     14  O   LIG A   1      -6.771  -1.953 132.639  0.00  0.00    -0.235 OA
BRANCH  14  15
ATOM     15  O   LIG A   1      -7.714  -1.753 133.732  0.00  0.00    -0.238 OA
ATOM     16  C   LIG A   1      -8.251  -3.042 134.024  0.00  0.00    +0.238 C 
ENDBRANCH  14  15
ENDBRANCH  13  14
ENDBRANCH  12  13
ENDBRANCH  11  12
ENDBRANCH  10  11
ENDBRANCH   9  10
ENDBRANCH   1   9
TORSDOF 13
ENDMDL
MODEL 2
REMARK VINA RESULT:      -4.8      2.325      2.693
REMARK  Name = NuBBE_1811
REMARK  15 active torsions:
REMARK  status: ('A' for Active; 'I' for Inactive)
REMARK    1  A    between atoms: C_1  and  O_2
REMARK    2  A    between atoms: O_2  and  O_3
REMARK    3  A    between atoms: O_3  and  C_4
REMARK    4  A    between atoms: C_4  and  C_5
REMARK    5  A    between atoms: C_5  and  C_6
REMARK    6  A    between atoms: C_6  and  C_7
REMARK    7  A    between atoms: C_7  and  C_8
REMARK    8  A    between atoms: C_8  and  C_9
REMARK    9  A    between atoms: C_9  and  C_10
REMARK   10  A    between atoms: C_10  and  C_11
REMARK   11  A    between atoms: C_11  and  C_12
REMARK   12  A    between atoms: C_12  and  C_13
REMARK   13  A    between atoms: C_13  and  O_14
REMARK   14  A    between atoms: O_14  and  O_15
REMARK   15  A    between atoms: O_15  and  C_16
REMARK                            x       y       z     vdW  Elec       q    Type
REMARK                         _______ _______ _______ _____ _____    ______ ____
ROOT
ATOM      1  C   LIG A   1      -8.135  -2.299 126.514  0.00  0.00    -0.000 C 
ENDROOT
BRANCH   1   2
ATOM      2  C   LIG A   1      -7.483  -2.633 125.149  0.00  0.00    +0.000 C 
BRANCH   2   3
ATOM      3  C   LIG A   1      -8.224  -3.657 124.264  0.00  0.00    +0.002 C 
BRANCH   3   4
ATOM      4  C   LIG A   1      -9.259  -3.066 123.308  0.00  0.00    +0.031 C 
BRANCH   4   5
ATOM      5  C   LIG A   1      -9.026  -1.579 123.020  0.00  0.00    +0.201 C 
BRANCH   5   6
ATOM      6  O   LIG A   1     -10.272  -0.992 122.642  0.00  0.00    -0.235 OA
BRANCH   6   8
ATOM      7  C   LIG A   1      -8.917   0.567 123.646  0.00  0.00    +0.238 C 
ATOM      8  O   LIG A   1     -10.228   0.384 123.124  0.00  0.00    -0.238 OA
ENDBRANCH   6   8
ENDBRANCH   5   6
ENDBRANCH   4   5
ENDBRANCH   3   4
ENDBRANCH   2   3
ENDBRANCH   1   2
BRANCH   1   9
ATOM      9  C   LIG A   1      -9.080  -3.438 126.986  0.00  0.00    -0.000 C 
BRANCH   9  10
ATOM     10  C   LIG A   1      -8.712  -4.095 128.334  0.00  0.00    +0.000 C 
BRANCH  10  11
ATOM     11  C   LIG A   1      -7.946  -3.177 129.327  0.00  0.00    +0.002 C 
BRANCH  11  12
ATOM     12  C   LIG A   1      -6.689  -3.798 129.953  0.00  0.00    +0.031 C 
BRANCH  12  13
ATOM     13  C   LIG A   1      -5.382  -3.040 129.659  0.00  0.00    +0.201 C 
BRANCH  13  14
ATOM     14  O   LIG A   1      -4.271  -3.929 129.521  0.00  0.00    -0.235 OA
BRANCH  14  15
ATOM     15  O   LIG A   1      -3.276  -3.453 130.474  0.00  0.00    -0.238 OA
ATOM     16  C   LIG A   1      -3.248  -2.034 130.330  0.00  0.00    +0.238 C 
ENDBRANCH  14  15
ENDBRANCH  13  14
ENDBRANCH  12  13
ENDBRANCH  11  12
ENDBRANCH  10  11
ENDBRANCH   9  10
ENDBRANCH   1   9
TORSDOF 13
ENDMDL
MODEL 3
REMARK VINA RESULT:      -4.7      1.779      8.154
REMARK  Name = NuBBE_1811
REMARK  15 active torsions:
REMARK  status: ('A' for Active; 'I' for Inactive)
REMARK    1  A    between atoms: C_1  and  O_2
REMARK    2  A    between atoms: O_2  and  O_3
REMARK    3  A    between atoms: O_3  and  C_4
REMARK    4  A    between atoms: C_4  and  C_5
REMARK    5  A    between atoms: C_5  and  C_6
REMARK    6  A    between atoms: C_6  and  C_7
REMARK    7  A    between atoms: C_7  and  C_8
REMARK    8  A    between atoms: C_8  and  C_9
REMARK    9  A    between atoms: C_9  and  C_10
REMARK   10  A    between atoms: C_10  and  C_11
REMARK   11  A    between atoms: C_11  and  C_12
REMARK   12  A    between atoms: C_12  and  C_13
REMARK   13  A    between atoms: C_13  and  O_14
REMARK   14  A    between atoms: O_14  and  O_15
REMARK   15  A    between atoms: O_15  and  C_16
REMARK                            x       y       z     vdW  Elec       q    Type
REMARK                         _______ _______ _______ _____ _____    ______ ____
ROOT
ATOM      1  C   LIG A   1      -8.932  -4.007 127.766  0.00  0.00    -0.000 C 
ENDROOT
BRANCH   1   2
ATOM      2  C   LIG A   1      -8.514  -3.374 129.116  0.00  0.00    +0.000 C 
BRANCH   2   3
ATOM      3  C   LIG A   1      -7.004  -3.130 129.324  0.00  0.00    +0.002 C 
BRANCH   3   4
ATOM      4  C   LIG A   1      -6.272  -4.212 130.116  0.00  0.00    +0.031 C 
BRANCH   4   5
ATOM      5  C   LIG A   1      -4.860  -3.794 130.538  0.00  0.00    +0.201 C 
BRANCH   5   6
ATOM      6  O   LIG A   1      -4.903  -2.434 130.972  0.00  0.00    -0.235 OA
BRANCH   6   8
ATOM      7  C   LIG A   1      -4.250  -0.347 130.270  0.00  0.00    +0.238 C 
ATOM      8  O   LIG A   1      -3.912  -1.727 130.169  0.00  0.00    -0.238 OA
ENDBRANCH   6   8
ENDBRANCH   5   6
ENDBRANCH   4   5
ENDBRANCH   3   4
ENDBRANCH   2   3
ENDBRANCH   1   2
BRANCH   1   9
ATOM      9  C   LIG A   1      -8.368  -3.204 126.562  0.00  0.00    -0.000 C 
BRANCH   9  10
ATOM     10  C   LIG A   1      -9.387  -2.859 125.454  0.00  0.00    +0.000 C 
BRANCH  10  11
ATOM     11  C   LIG A   1      -9.037  -3.405 124.042  0.00  0.00    +0.002 C 
BRANCH  11  12
ATOM     12  C   LIG A   1      -8.440  -2.374 123.072  0.00  0.00    +0.031 C 
BRANCH  12  13
ATOM     13  C   LIG A   1      -9.082  -0.977 123.144  0.00  0.00    +0.201 C 
BRANCH  13  14
ATOM     14  O   LIG A   1     -10.386  -0.960 122.555  0.00  0.00    -0.235 OA
BRANCH  14  15
ATOM     15  O   LIG A   1     -10.790   0.440 122.556  0.00  0.00    -0.238 OA
ATOM     16  C   LIG A   1      -9.710   1.156 123.154  0.00  0.00    +0.238 C 
ENDBRANCH  14  15
ENDBRANCH  13  14
ENDBRANCH  12  13
ENDBRANCH  11  12
ENDBRANCH  10  11
ENDBRANCH   9  10
ENDBRANCH   1   9
TORSDOF 13
ENDMDL
MODEL 4
REMARK VINA RESULT:      -4.6      1.010      8.343
REMARK  Name = NuBBE_1811
REMARK  15 active torsions:
REMARK  status: ('A' for Active; 'I' for Inactive)
REMARK    1  A    between atoms: C_1  and  O_2
REMARK    2  A    between atoms: O_2  and  O_3
REMARK    3  A    between atoms: O_3  and  C_4
REMARK    4  A    between atoms: C_4  and  C_5
REMARK    5  A    between atoms: C_5  and  C_6
REMARK    6  A    between atoms: C_6  and  C_7
REMARK    7  A    between atoms: C_7  and  C_8
REMARK    8  A    between atoms: C_8  and  C_9
REMARK    9  A    between atoms: C_9  and  C_10
REMARK   10  A    between atoms: C_10  and  C_11
REMARK   11  A    between atoms: C_11  and  C_12
REMARK   12  A    between atoms: C_12  and  C_13
REMARK   13  A    between atoms: C_13  and  O_14
REMARK   14  A    between atoms: O_14  and  O_15
REMARK   15  A    between atoms: O_15  and  C_16
REMARK                            x       y       z     vdW  Elec       q    Type
REMARK                         _______ _______ _______ _____ _____    ______ ____
ROOT
ATOM      1  C   LIG A   1      -9.126  -3.922 127.821  0.00  0.00    -0.000 C 
ENDROOT
BRANCH   1   2
ATOM      2  C   LIG A   1      -8.378  -3.319 129.036  0.00  0.00    +0.000 C 
BRANCH   2   3
ATOM      3  C   LIG A   1      -7.137  -2.456 128.723  0.00  0.00    +0.002 C 
BRANCH   3   4
ATOM      4  C   LIG A   1      -5.823  -2.966 129.311  0.00  0.00    +0.031 C 
BRANCH   4   5
ATOM      5  C   LIG A   1      -6.027  -3.947 130.470  0.00  0.00    +0.201 C 
BRANCH   5   6
ATOM      6  O   LIG A   1      -5.796  -3.251 131.696  0.00  0.00    -0.235 OA
BRANCH   6   8
ATOM      7  C   LIG A   1      -6.840  -3.769 133.676  0.00  0.00    +0.238 C 
ATOM      8  O   LIG A   1      -7.081  -3.219 132.385  0.00  0.00    -0.238 OA
ENDBRANCH   6   8
ENDBRANCH   5   6
ENDBRANCH   4   5
ENDBRANCH   3   4
ENDBRANCH   2   3
ENDBRANCH   1   2
BRANCH   1   9
ATOM      9  C   LIG A   1      -8.522  -3.425 126.478  0.00  0.00    -0.000 C 
BRANCH   9  10
ATOM     10  C   LIG A   1      -9.535  -2.848 125.465  0.00  0.00    +0.000 C 
BRANCH  10  11
ATOM     11  C   LIG A   1      -9.337  -3.315 123.996  0.00  0.00    +0.002 C 
BRANCH  11  12
ATOM     12  C   LIG A   1      -8.506  -2.369 123.116  0.00  0.00    +0.031 C 
BRANCH  12  13
ATOM     13  C   LIG A   1      -8.958  -0.898 123.149  0.00  0.00    +0.201 C 
BRANCH  13  14
ATOM     14  O   LIG A   1     -10.218  -0.714 122.497  0.00  0.00    -0.235 OA
BRANCH  14  15
ATOM     15  O   LIG A   1     -10.736   0.548 123.012  0.00  0.00    -0.238 OA
ATOM     16  C   LIG A   1      -9.620   1.435 123.063  0.00  0.00    +0.238 C 
ENDBRANCH  14  15
ENDBRANCH  13  14
ENDBRANCH  12  13
ENDBRANCH  11  12
ENDBRANCH  10  11
ENDBRANCH   9  10
ENDBRANCH   1   9
TORSDOF 13
ENDMDL
MODEL 5
REMARK VINA RESULT:      -4.6      4.964      6.582
REMARK  Name = NuBBE_1811
REMARK  15 active torsions:
REMARK  status: ('A' for Active; 'I' for Inactive)
REMARK    1  A    between atoms: C_1  and  O_2
REMARK    2  A    between atoms: O_2  and  O_3
REMARK    3  A    between atoms: O_3  and  C_4
REMARK    4  A    between atoms: C_4  and  C_5
REMARK    5  A    between atoms: C_5  and  C_6
REMARK    6  A    between atoms: C_6  and  C_7
REMARK    7  A    between atoms: C_7  and  C_8
REMARK    8  A    between atoms: C_8  and  C_9
REMARK    9  A    between atoms: C_9  and  C_10
REMARK   10  A    between atoms: C_10  and  C_11
REMARK   11  A    between atoms: C_11  and  C_12
REMARK   12  A    between atoms: C_12  and  C_13
REMARK   13  A    between atoms: C_13  and  O_14
REMARK   14  A    between atoms: O_14  and  O_15
REMARK   15  A    between atoms: O_15  and  C_16
REMARK                            x       y       z     vdW  Elec       q    Type
REMARK                         _______ _______ _______ _____ _____    ______ ____
ROOT
ATOM      1  C   LIG A   1      -9.396  -2.245 125.872  0.00  0.00    -0.000 C 
ENDROOT
BRANCH   1   2
ATOM      2  C   LIG A   1      -8.603  -1.007 126.359  0.00  0.00    +0.000 C 
BRANCH   2   3
ATOM      3  C   LIG A   1      -9.207   0.373 126.024  0.00  0.00    +0.002 C 
BRANCH   3   4
ATOM      4  C   LIG A   1      -8.296   1.309 125.232  0.00  0.00    +0.031 C 
BRANCH   4   5
ATOM      5  C   LIG A   1      -9.038   2.084 124.139  0.00  0.00    +0.201 C 
BRANCH   5   6
ATOM      6  O   LIG A   1      -8.539   3.422 124.117  0.00  0.00    -0.235 OA
BRANCH   6   8
ATOM      7  C   LIG A   1      -7.871   4.908 125.737  0.00  0.00    +0.238 C 
ATOM      8  O   LIG A   1      -8.926   4.015 125.392  0.00  0.00    -0.238 OA
ENDBRANCH   6   8
ENDBRANCH   5   6
ENDBRANCH   4   5
ENDBRANCH   3   4
ENDBRANCH   2   3
ENDBRANCH   1   2
BRANCH   1   9
ATOM      9  C   LIG A   1      -8.525  -3.158 124.965  0.00  0.00    -0.000 C 
BRANCH   9  10
ATOM     10  C   LIG A   1      -8.871  -3.128 123.461  0.00  0.00    +0.000 C 
BRANCH  10  11
ATOM     11  C   LIG A   1      -8.312  -1.907 122.678  0.00  0.00    +0.002 C 
BRANCH  11  12
ATOM     12  C   LIG A   1      -6.930  -1.417 123.133  0.00  0.00    +0.031 C 
BRANCH  12  13
ATOM     13  C   LIG A   1      -5.761  -2.344 122.754  0.00  0.00    +0.201 C 
BRANCH  13  14
ATOM     14  O   LIG A   1      -5.103  -2.869 123.911  0.00  0.00    -0.235 OA
BRANCH  14  15
ATOM     15  O   LIG A   1      -3.980  -3.642 123.395  0.00  0.00    -0.238 OA
ATOM     16  C   LIG A   1      -4.322  -5.011 123.604  0.00  0.00    +0.238 C 
ENDBRANCH  14  15
ENDBRANCH  13  14
ENDBRANCH  12  13
ENDBRANCH  11  12
ENDBRANCH  10  11
ENDBRANCH   9  10
ENDBRANCH   1   9
TORSDOF 13
ENDMDL
MODEL 6
REMARK VINA RESULT:      -4.6      2.285      2.942
REMARK  Name = NuBBE_1811
REMARK  15 active torsions:
REMARK  status: ('A' for Active; 'I' for Inactive)
REMARK    1  A    between atoms: C_1  and  O_2
REMARK    2  A    between atoms: O_2  and  O_3
REMARK    3  A    between atoms: O_3  and  C_4
REMARK    4  A    between atoms: C_4  and  C_5
REMARK    5  A    between atoms: C_5  and  C_6
REMARK    6  A    between atoms: C_6  and  C_7
REMARK    7  A    between atoms: C_7  and  C_8
REMARK    8  A    between atoms: C_8  and  C_9
REMARK    9  A    between atoms: C_9  and  C_10
REMARK   10  A    between atoms: C_10  and  C_11
REMARK   11  A    between atoms: C_11  and  C_12
REMARK   12  A    between atoms: C_12  and  C_13
REMARK   13  A    between atoms: C_13  and  O_14
REMARK   14  A    between atoms: O_14  and  O_15
REMARK   15  A    between atoms: O_15  and  C_16
REMARK                            x       y       z     vdW  Elec       q    Type
REMARK                         _______ _______ _______ _____ _____    ______ ____
ROOT
ATOM      1  C   LIG A   1      -8.530  -3.702 128.118  0.00  0.00    -0.000 C 
ENDROOT
BRANCH   1   2
ATOM      2  C   LIG A   1      -8.390  -3.075 126.709  0.00  0.00    +0.000 C 
BRANCH   2   3
ATOM      3  C   LIG A   1      -9.596  -3.238 125.759  0.00  0.00    +0.002 C 
BRANCH   3   4
ATOM      4  C   LIG A   1      -9.272  -3.126 124.270  0.00  0.00    +0.031 C 
BRANCH   4   5
ATOM      5  C   LIG A   1      -8.390  -1.918 123.939  0.00  0.00    +0.201 C 
BRANCH   5   6
ATOM      6  O   LIG A   1      -9.190  -0.738 124.018  0.00  0.00    -0.235 OA
BRANCH   6   8
ATOM      7  C   LIG A   1     -10.191   0.647 122.483  0.00  0.00    +0.238 C 
ATOM      8  O   LIG A   1     -10.006  -0.726 122.809  0.00  0.00    -0.238 OA
ENDBRANCH   6   8
ENDBRANCH   5   6
ENDBRANCH   4   5
ENDBRANCH   3   4
ENDBRANCH   2   3
ENDBRANCH   1   2
BRANCH   1   9
ATOM      9  C   LIG A   1      -8.063  -2.720 129.227  0.00  0.00    -0.000 C 
BRANCH   9  10
ATOM     10  C   LIG A   1      -7.326  -3.364 130.420  0.00  0.00    +0.000 C 
BRANCH  10  11
ATOM     11  C   LIG A   1      -6.039  -4.154 130.053  0.00  0.00    +0.002 C 
BRANCH  11  12
ATOM     12  C   LIG A   1      -5.161  -4.564 131.244  0.00  0.00    +0.031 C 
BRANCH  12  13
ATOM     13  C   LIG A   1      -3.936  -3.662 131.480  0.00  0.00    +0.201 C 
BRANCH  13  14
ATOM     14  O   LIG A   1      -3.121  -3.555 130.309  0.00  0.00    -0.235 OA
BRANCH  14  15
ATOM     15  O   LIG A   1      -2.577  -2.203 130.341  0.00  0.00    -0.238 OA
ATOM     16  C   LIG A   1      -3.663  -1.356 130.710  0.00  0.00    +0.238 C 
ENDBRANCH  14  15
ENDBRANCH  13  14
ENDBRANCH  12  13
ENDBRANCH  11  12
ENDBRANCH  10  11
ENDBRANCH   9  10
ENDBRANCH   1   9
TORSDOF 13
ENDMDL
MODEL 7
REMARK VINA RESULT:      -4.6      2.057      7.335
REMARK  Name = NuBBE_1811
REMARK  15 active torsions:
REMARK  status: ('A' for Active; 'I' for Inactive)
REMARK    1  A    between atoms: C_1  and  O_2
REMARK    2  A    between atoms: O_2  and  O_3
REMARK    3  A    between atoms: O_3  and  C_4
REMARK    4  A    between atoms: C_4  and  C_5
REMARK    5  A    between atoms: C_5  and  C_6
REMARK    6  A    between atoms: C_6  and  C_7
REMARK    7  A    between atoms: C_7  and  C_8
REMARK    8  A    between atoms: C_8  and  C_9
REMARK    9  A    between atoms: C_9  and  C_10
REMARK   10  A    between atoms: C_10  and  C_11
REMARK   11  A    between atoms: C_11  and  C_12
REMARK   12  A    between atoms: C_12  and  C_13
REMARK   13  A    between atoms: C_13  and  O_14
REMARK   14  A    between atoms: O_14  and  O_15
REMARK   15  A    between atoms: O_15  and  C_16
REMARK                            x       y       z     vdW  Elec       q    Type
REMARK                         _______ _______ _______ _____ _____    ______ ____
ROOT
ATOM      1  C   LIG A   1      -9.293  -3.108 125.993  0.00  0.00    -0.000 C 
ENDROOT
BRANCH   1   2
ATOM      2  C   LIG A   1      -8.280  -3.016 127.160  0.00  0.00    +0.000 C 
BRANCH   2   3
ATOM      3  C   LIG A   1      -8.723  -3.627 128.507  0.00  0.00    +0.002 C 
BRANCH   3   4
ATOM      4  C   LIG A   1      -7.841  -3.276 129.704  0.00  0.00    +0.031 C 
BRANCH   4   5
ATOM      5  C   LIG A   1      -7.274  -1.854 129.633  0.00  0.00    +0.201 C 
BRANCH   5   6
ATOM      6  O   LIG A   1      -5.869  -1.916 129.879  0.00  0.00    -0.235 OA
BRANCH   6   8
ATOM      7  C   LIG A   1      -4.154  -3.155 128.984  0.00  0.00    +0.238 C 
ATOM      8  O   LIG A   1      -5.461  -3.274 129.536  0.00  0.00    -0.238 OA
ENDBRANCH   6   8
ENDBRANCH   5   6
ENDBRANCH   4   5
ENDBRANCH   3   4
ENDBRANCH   2   3
ENDBRANCH   1   2
BRANCH   1   9
ATOM      9  C   LIG A   1      -8.612  -3.605 124.688  0.00  0.00    -0.000 C 
BRANCH   9  10
ATOM     10  C   LIG A   1      -9.319  -3.206 123.374  0.00  0.00    +0.000 C 
BRANCH  10  11
ATOM     11  C   LIG A   1      -8.602  -2.103 122.547  0.00  0.00    +0.002 C 
BRANCH  11  12
ATOM     12  C   LIG A   1      -7.690  -1.169 123.355  0.00  0.00    +0.031 C 
BRANCH  12  13
ATOM     13  C   LIG A   1      -8.388   0.082 123.919  0.00  0.00    +0.201 C 
BRANCH  13  14
ATOM     14  O   LIG A   1      -9.789   0.085 123.628  0.00  0.00    -0.235 OA
BRANCH  14  15
ATOM     15  O   LIG A   1     -10.407   0.822 124.723  0.00  0.00    -0.238 OA
ATOM     16  C   LIG A   1      -9.532   0.667 125.839  0.00  0.00    +0.238 C 
ENDBRANCH  14  15
ENDBRANCH  13  14
ENDBRANCH  12  13
ENDBRANCH  11  12
ENDBRANCH  10  11
ENDBRANCH   9  10
ENDBRANCH   1   9
TORSDOF 13
ENDMDL
MODEL 8
REMARK VINA RESULT:      -4.5      2.046      7.698
REMARK  Name = NuBBE_1811
REMARK  15 active torsions:
REMARK  status: ('A' for Active; 'I' for Inactive)
REMARK    1  A    between atoms: C_1  and  O_2
REMARK    2  A    between atoms: O_2  and  O_3
REMARK    3  A    between atoms: O_3  and  C_4
REMARK    4  A    between atoms: C_4  and  C_5
REMARK    5  A    between atoms: C_5  and  C_6
REMARK    6  A    between atoms: C_6  and  C_7
REMARK    7  A    between atoms: C_7  and  C_8
REMARK    8  A    between atoms: C_8  and  C_9
REMARK    9  A    between atoms: C_9  and  C_10
REMARK   10  A    between atoms: C_10  and  C_11
REMARK   11  A    between atoms: C_11  and  C_12
REMARK   12  A    between atoms: C_12  and  C_13
REMARK   13  A    between atoms: C_13  and  O_14
REMARK   14  A    between atoms: O_14  and  O_15
REMARK   15  A    between atoms: O_15  and  C_16
REMARK                            x       y       z     vdW  Elec       q    Type
REMARK                         _______ _______ _______ _____ _____    ______ ____
ROOT
ATOM      1  C   LIG A   1      -9.126  -3.315 125.159  0.00  0.00    -0.000 C 
ENDROOT
BRANCH   1   2
ATOM      2  C   LIG A   1      -8.808  -2.807 126.586  0.00  0.00    +0.000 C 
BRANCH   2   3
ATOM      3  C   LIG A   1      -8.903  -3.845 127.724  0.00  0.00    +0.002 C 
BRANCH   3   4
ATOM      4  C   LIG A   1      -8.410  -3.364 129.088  0.00  0.00    +0.031 C 
BRANCH   4   5
ATOM      5  C   LIG A   1      -7.340  -2.272 128.987  0.00  0.00    +0.201 C 
BRANCH   5   6
ATOM      6  O   LIG A   1      -6.366  -2.499 130.007  0.00  0.00    -0.235 OA
BRANCH   6   8
ATOM      7  C   LIG A   1      -5.213  -4.376 130.657  0.00  0.00    +0.238 C 
ATOM      8  O   LIG A   1      -5.518  -3.579 129.517  0.00  0.00    -0.238 OA
ENDBRANCH   6   8
ENDBRANCH   5   6
ENDBRANCH   4   5
ENDBRANCH   3   4
ENDBRANCH   2   3
ENDBRANCH   1   2
BRANCH   1   9
ATOM      9  C   LIG A   1      -7.833  -3.716 124.397  0.00  0.00    -0.000 C 
BRANCH   9  10
ATOM     10  C   LIG A   1      -6.689  -2.679 124.433  0.00  0.00    +0.000 C 
BRANCH  10  11
ATOM     11  C   LIG A   1      -6.535  -1.822 123.146  0.00  0.00    +0.002 C 
BRANCH  11  12
ATOM     12  C   LIG A   1      -6.912  -0.341 123.298  0.00  0.00    +0.031 C 
BRANCH  12  13
ATOM     13  C   LIG A   1      -8.379  -0.087 123.689  0.00  0.00    +0.201 C 
BRANCH  13  14
ATOM     14  O   LIG A   1      -9.285  -0.575 122.696  0.00  0.00    -0.235 OA
BRANCH  14  15
ATOM     15  O   LIG A   1     -10.514   0.183 122.891  0.00  0.00    -0.238 OA
ATOM     16  C   LIG A   1     -10.133   1.367 123.590  0.00  0.00    +0.238 C 
ENDBRANCH  14  15
ENDBRANCH  13  14
ENDBRANCH  12  13
ENDBRANCH  11  12
ENDBRANCH  10  11
ENDBRANCH   9  10
ENDBRANCH   1   9
TORSDOF 13
ENDMDL
MODEL 9
REMARK VINA RESULT:      -4.5      3.049      8.024
REMARK  Name = NuBBE_1811
REMARK  15 active torsions:
REMARK  status: ('A' for Active; 'I' for Inactive)
REMARK    1  A    between atoms: C_1  and  O_2
REMARK    2  A    between atoms: O_2  and  O_3
REMARK    3  A    between atoms: O_3  and  C_4
REMARK    4  A    between atoms: C_4  and  C_5
REMARK    5  A    between atoms: C_5  and  C_6
REMARK    6  A    between atoms: C_6  and  C_7
REMARK    7  A    between atoms: C_7  and  C_8
REMARK    8  A    between atoms: C_8  and  C_9
REMARK    9  A    between atoms: C_9  and  C_10
REMARK   10  A    between atoms: C_10  and  C_11
REMARK   11  A    between atoms: C_11  and  C_12
REMARK   12  A    between atoms: C_12  and  C_13
REMARK   13  A    between atoms: C_13  and  O_14
REMARK   14  A    between atoms: O_14  and  O_15
REMARK   15  A    between atoms: O_15  and  C_16
REMARK                            x       y       z     vdW  Elec       q    Type
REMARK                         _______ _______ _______ _____ _____    ______ ____
ROOT
ATOM      1  C   LIG A   1      -7.751  -2.868 127.208  0.00  0.00    -0.000 C 
ENDROOT
BRANCH   1   2
ATOM      2  C   LIG A   1      -8.310  -3.441 128.533  0.00  0.00    +0.000 C 
BRANCH   2   3
ATOM      3  C   LIG A   1      -7.510  -3.120 129.814  0.00  0.00    +0.002 C 
BRANCH   3   4
ATOM      4  C   LIG A   1      -6.403  -4.114 130.158  0.00  0.00    +0.031 C 
BRANCH   4   5
ATOM      5  C   LIG A   1      -5.004  -3.596 129.807  0.00  0.00    +0.201 C 
BRANCH   5   6
ATOM      6  O   LIG A   1      -4.164  -3.755 130.950  0.00  0.00    -0.235 OA
BRANCH   6   8
ATOM      7  C   LIG A   1      -3.669  -1.540 130.593  0.00  0.00    +0.238 C 
ATOM      8  O   LIG A   1      -3.062  -2.816 130.771  0.00  0.00    -0.238 OA
ENDBRANCH   6   8
ENDBRANCH   5   6
ENDBRANCH   4   5
ENDBRANCH   3   4
ENDBRANCH   2   3
ENDBRANCH   1   2
BRANCH   1   9
ATOM      9  C   LIG A   1      -8.879  -2.257 126.332  0.00  0.00    -0.000 C 
BRANCH   9  10
ATOM     10  C   LIG A   1      -9.407  -3.161 125.198  0.00  0.00    +0.000 C 
BRANCH  10  11
ATOM     11  C   LIG A   1      -8.375  -3.492 124.083  0.00  0.00    +0.002 C 
BRANCH  11  12
ATOM     12  C   LIG A   1      -7.951  -2.301 123.211  0.00  0.00    +0.031 C 
BRANCH  12  13
ATOM     13  C   LIG A   1      -6.433  -2.057 123.149  0.00  0.00    +0.201 C 
BRANCH  13  14
ATOM     14  O   LIG A   1      -5.724  -2.885 124.076  0.00  0.00    -0.235 OA
BRANCH  14  15
ATOM     15  O   LIG A   1      -4.482  -3.240 123.401  0.00  0.00    -0.238 OA
ATOM     16  C   LIG A   1      -4.330  -4.647 123.582  0.00  0.00    +0.238 C 
ENDBRANCH  14  15
ENDBRANCH  13  14
ENDBRANCH  12  13
ENDBRANCH  11  12
ENDBRANCH  10  11
ENDBRANCH   9  10
ENDBRANCH   1   9
TORSDOF 13
ENDMDL
