MODEL 1
REMARK VINA RESULT:      -8.0      0.000      0.000
REMARK  Name = NuBBE_99
REMARK  13 active torsions:
REMARK  status: ('A' for Active; 'I' for Inactive)
REMARK    1  A    between atoms: C_8  and  O_24
REMARK    2  A    between atoms: C_10  and  C_22
REMARK    3  A    between atoms: C_12  and  C_15
REMARK    4  A    between atoms: C_15  and  C_16
REMARK    5  A    between atoms: C_16  and  O_17
REMARK    6  A    between atoms: O_17  and  C_18
REMARK    7  A    between atoms: C_20  and  O_21
REMARK    8  A    between atoms: O_24  and  C_25
REMARK    9  A    between atoms: C_28  and  C_36
REMARK   10  A    between atoms: C_30  and  O_35
REMARK   11  A    between atoms: C_32  and  O_34
REMARK   12  A    between atoms: C_36  and  O_37
REMARK   13  A    between atoms: C_38  and  O_40
REMARK                            x       y       z     vdW  Elec       q    Type
REMARK                         _______ _______ _______ _____ _____    ______ ____
ROOT
ATOM      1  C   LIG A   1      -8.217   4.930 130.714  0.00  0.00    +0.107 C 
ATOM      2  C   LIG A   1      -9.364   5.902 130.446  0.00  0.00    +0.038 A 
ATOM      3  C   LIG A   1     -10.670   5.436 130.334  0.00  0.00    -0.016 A 
ATOM      4  C   LIG A   1     -10.946   3.996 130.584  0.00  0.00    +0.053 C 
ATOM      5  C   LIG A   1      -9.746   3.149 130.034  0.00  0.00    +0.092 C 
ATOM      6  N   LIG A   1      -8.486   3.889 129.707  0.00  0.00    -0.268 NA
ATOM      7  C   LIG A   1      -7.402   3.017 129.269  0.00  0.00    +0.200 C 
ATOM      8  C   LIG A   1      -6.248   2.957 130.338  0.00  0.00    +0.063 C 
ATOM      9  C   LIG A   1      -5.663   4.371 130.776  0.00  0.00    +0.041 C 
ATOM     10  C   LIG A   1      -6.783   5.485 130.709  0.00  0.00    +0.034 C 
ATOM     11  C   LIG A   1     -11.438   6.374 129.601  0.00  0.00    +0.003 A 
ATOM     12  C   LIG A   1     -12.731   6.348 129.030  0.00  0.00    +0.010 A 
ATOM     13  C   LIG A   1     -13.099   7.338 128.115  0.00  0.00    +0.001 A 
ATOM     14  C   LIG A   1     -12.213   8.362 127.795  0.00  0.00    +0.002 A 
ATOM     15  C   LIG A   1     -10.943   8.435 128.388  0.00  0.00    +0.026 A 
ATOM     16  C   LIG A   1     -10.569   7.417 129.279  0.00  0.00    +0.047 A 
ATOM     17  N   LIG A   1      -9.346   7.158 129.892  0.00  0.00    -0.356 N 
ATOM     18  H   LIG A   1      -8.521   7.715 129.729  0.00  0.00    +0.166 HD
ENDROOT
BRANCH   9  19
ATOM     19  C   LIG A   1      -4.283   4.860 130.260  0.00  0.00    +0.074 C 
ATOM     20  C   LIG A   1      -3.226   5.065 131.071  0.00  0.00    +0.194 C 
BRANCH  19  21
ATOM     21  C   LIG A   1      -4.115   4.948 128.753  0.00  0.00    +0.338 C 
ATOM     22  O   LIG A   1      -4.609   5.799 128.071  0.00  0.00    -0.245 OA
BRANCH  21  23
ATOM     23  O   LIG A   1      -3.385   3.880 128.258  0.00  0.00    -0.465 OA
ATOM     24  C   LIG A   1      -2.320   4.237 127.368  0.00  0.00    +0.280 C 
ENDBRANCH  21  23
ENDBRANCH  19  21
BRANCH  20  25
ATOM     25  O   LIG A   1      -1.969   5.511 130.738  0.00  0.00    -0.514 OA
ATOM     26  H   LIG A   1      -1.391   5.468 131.526  0.00  0.00    +0.291 HD
ENDBRANCH  20  25
ENDBRANCH   9  19
BRANCH   8  27
ATOM     27  C   LIG A   1      -5.295   1.799 130.053  0.00  0.00    -0.027 C 
ATOM     28  C   LIG A   1      -4.422   1.295 130.946  0.00  0.00    +0.004 C 
ENDBRANCH   8  27
BRANCH   7  29
ATOM     29  O   LIG A   1      -6.914   3.355 127.938  0.00  0.00    -0.330 OA
BRANCH  29  30
ATOM     30  C   LIG A   1      -7.929   3.963 127.080  0.00  0.00    +0.284 C 
ATOM     31  O   LIG A   1      -8.709   2.957 126.396  0.00  0.00    -0.341 OA
ATOM     32  C   LIG A   1      -8.491   2.842 124.975  0.00  0.00    +0.178 C 
ATOM     33  C   LIG A   1      -6.981   2.856 124.710  0.00  0.00    +0.177 C 
ATOM     34  C   LIG A   1      -6.424   4.258 125.014  0.00  0.00    +0.179 C 
ATOM     35  C   LIG A   1      -7.284   4.986 126.074  0.00  0.00    +0.201 C 
BRANCH  34  36
ATOM     36  O   LIG A   1      -5.049   4.156 125.409  0.00  0.00    -0.386 OA
ATOM     37  H   LIG A   1      -4.513   4.726 124.829  0.00  0.00    +0.210 HD
ENDBRANCH  34  36
BRANCH  33  38
ATOM     38  O   LIG A   1      -6.668   2.482 123.370  0.00  0.00    -0.387 OA
ATOM     39  H   LIG A   1      -6.140   3.214 122.999  0.00  0.00    +0.210 HD
ENDBRANCH  33  38
BRANCH  35  40
ATOM     40  O   LIG A   1      -8.327   5.734 125.408  0.00  0.00    -0.384 OA
ATOM     41  H   LIG A   1      -7.930   6.285 124.707  0.00  0.00    +0.210 HD
ENDBRANCH  35  40
BRANCH  32  42
ATOM     42  C   LIG A   1      -9.189   1.555 124.509  0.00  0.00    +0.190 C 
BRANCH  42  43
ATOM     43  O   LIG A   1     -10.576   1.776 124.256  0.00  0.00    -0.392 OA
ATOM     44  H   LIG A   1     -11.063   1.346 124.981  0.00  0.00    +0.209 HD
ENDBRANCH  42  43
ENDBRANCH  32  42
ENDBRANCH  29  30
ENDBRANCH   7  29
TORSDOF 12
ENDMDL
MODEL 2
REMARK VINA RESULT:      -7.9      1.624      2.378
REMARK  Name = NuBBE_99
REMARK  13 active torsions:
REMARK  status: ('A' for Active; 'I' for Inactive)
REMARK    1  A    between atoms: C_8  and  O_24
REMARK    2  A    between atoms: C_10  and  C_22
REMARK    3  A    between atoms: C_12  and  C_15
REMARK    4  A    between atoms: C_15  and  C_16
REMARK    5  A    between atoms: C_16  and  O_17
REMARK    6  A    between atoms: O_17  and  C_18
REMARK    7  A    between atoms: C_20  and  O_21
REMARK    8  A    between atoms: O_24  and  C_25
REMARK    9  A    between atoms: C_28  and  C_36
REMARK   10  A    between atoms: C_30  and  O_35
REMARK   11  A    between atoms: C_32  and  O_34
REMARK   12  A    between atoms: C_36  and  O_37
REMARK   13  A    between atoms: C_38  and  O_40
REMARK                            x       y       z     vdW  Elec       q    Type
REMARK                         _______ _______ _______ _____ _____    ______ ____
ROOT
ATOM      1  C   LIG A   1      -7.588   5.853 131.418  0.00  0.00    +0.107 C 
ATOM      2  C   LIG A   1      -8.866   6.542 130.943  0.00  0.00    +0.038 A 
ATOM      3  C   LIG A   1     -10.050   5.822 130.819  0.00  0.00    -0.016 A 
ATOM      4  C   LIG A   1     -10.077   4.400 131.255  0.00  0.00    +0.053 C 
ATOM      5  C   LIG A   1      -8.700   3.738 130.909  0.00  0.00    +0.092 C 
ATOM      6  N   LIG A   1      -7.572   4.659 130.556  0.00  0.00    -0.268 NA
ATOM      7  C   LIG A   1      -6.312   3.964 130.316  0.00  0.00    +0.200 C 
ATOM      8  C   LIG A   1      -5.266   4.268 131.453  0.00  0.00    +0.063 C 
ATOM      9  C   LIG A   1      -4.990   5.812 131.718  0.00  0.00    +0.041 C 
ATOM     10  C   LIG A   1      -6.285   6.670 131.422  0.00  0.00    +0.034 C 
ATOM     11  C   LIG A   1     -10.909   6.490 129.912  0.00  0.00    +0.003 A 
ATOM     12  C   LIG A   1     -12.120   6.141 129.272  0.00  0.00    +0.010 A 
ATOM     13  C   LIG A   1     -12.581   6.913 128.203  0.00  0.00    +0.001 A 
ATOM     14  C   LIG A   1     -11.873   8.040 127.795  0.00  0.00    +0.002 A 
ATOM     15  C   LIG A   1     -10.695   8.432 128.448  0.00  0.00    +0.026 A 
ATOM     16  C   LIG A   1     -10.220   7.630 129.498  0.00  0.00    +0.047 A 
ATOM     17  N   LIG A   1      -9.029   7.695 130.216  0.00  0.00    -0.356 N 
ATOM     18  H   LIG A   1      -8.309   8.375 130.026  0.00  0.00    +0.166 HD
ENDROOT
BRANCH   9  19
ATOM     19  C   LIG A   1      -3.684   6.488 131.222  0.00  0.00    +0.074 C 
ATOM     20  C   LIG A   1      -2.649   6.773 132.038  0.00  0.00    +0.194 C 
BRANCH  19  21
ATOM     21  C   LIG A   1      -3.544   6.676 129.722  0.00  0.00    +0.338 C 
ATOM     22  O   LIG A   1      -4.361   7.217 129.034  0.00  0.00    -0.245 OA
BRANCH  21  23
ATOM     23  O   LIG A   1      -2.392   6.078 129.238  0.00  0.00    -0.465 OA
ATOM     24  C   LIG A   1      -2.575   5.268 128.070  0.00  0.00    +0.280 C 
ENDBRANCH  21  23
ENDBRANCH  19  21
BRANCH  20  25
ATOM     25  O   LIG A   1      -1.457   7.382 131.724  0.00  0.00    -0.514 OA
ATOM     26  H   LIG A   1      -1.636   8.263 131.337  0.00  0.00    +0.291 HD
ENDBRANCH  20  25
ENDBRANCH   9  19
BRANCH   8  27
ATOM     27  C   LIG A   1      -4.096   3.288 131.396  0.00  0.00    -0.027 C 
ATOM     28  C   LIG A   1      -3.697   2.520 132.428  0.00  0.00    +0.004 C 
ENDBRANCH   8  27
BRANCH   7  29
ATOM     29  O   LIG A   1      -5.780   4.215 128.984  0.00  0.00    -0.330 OA
BRANCH  29  30
ATOM     30  C   LIG A   1      -5.928   3.083 128.072  0.00  0.00    +0.284 C 
ATOM     31  O   LIG A   1      -5.170   3.284 126.858  0.00  0.00    -0.341 OA
ATOM     32  C   LIG A   1      -5.938   3.527 125.662  0.00  0.00    +0.178 C 
ATOM     33  C   LIG A   1      -7.029   4.554 125.983  0.00  0.00    +0.177 C 
ATOM     34  C   LIG A   1      -8.072   3.915 126.918  0.00  0.00    +0.179 C 
ATOM     35  C   LIG A   1      -7.444   2.788 127.772  0.00  0.00    +0.201 C 
BRANCH  34  36
ATOM     36  O   LIG A   1      -8.682   4.931 127.726  0.00  0.00    -0.386 OA
ATOM     37  H   LIG A   1      -9.582   4.643 127.964  0.00  0.00    +0.210 HD
ENDBRANCH  34  36
BRANCH  33  38
ATOM     38  O   LIG A   1      -7.662   5.051 124.805  0.00  0.00    -0.387 OA
ATOM     39  H   LIG A   1      -8.349   4.399 124.571  0.00  0.00    +0.210 HD
ENDBRANCH  33  38
BRANCH  35  40
ATOM     40  O   LIG A   1      -7.563   1.533 127.063  0.00  0.00    -0.384 OA
ATOM     41  H   LIG A   1      -7.708   1.712 126.115  0.00  0.00    +0.210 HD
ENDBRANCH  35  40
BRANCH  32  42
ATOM     42  C   LIG A   1      -4.956   3.986 124.575  0.00  0.00    +0.190 C 
BRANCH  42  43
ATOM     43  O   LIG A   1      -5.587   4.055 123.296  0.00  0.00    -0.392 OA
ATOM     44  H   LIG A   1      -5.721   3.136 123.002  0.00  0.00    +0.209 HD
ENDBRANCH  42  43
ENDBRANCH  32  42
ENDBRANCH  29  30
ENDBRANCH   7  29
TORSDOF 12
ENDMDL
MODEL 3
REMARK VINA RESULT:      -7.9      3.279      7.585
REMARK  Name = NuBBE_99
REMARK  13 active torsions:
REMARK  status: ('A' for Active; 'I' for Inactive)
REMARK    1  A    between atoms: C_8  and  O_24
REMARK    2  A    between atoms: C_10  and  C_22
REMARK    3  A    between atoms: C_12  and  C_15
REMARK    4  A    between atoms: C_15  and  C_16
REMARK    5  A    between atoms: C_16  and  O_17
REMARK    6  A    between atoms: O_17  and  C_18
REMARK    7  A    between atoms: C_20  and  O_21
REMARK    8  A    between atoms: O_24  and  C_25
REMARK    9  A    between atoms: C_28  and  C_36
REMARK   10  A    between atoms: C_30  and  O_35
REMARK   11  A    between atoms: C_32  and  O_34
REMARK   12  A    between atoms: C_36  and  O_37
REMARK   13  A    between atoms: C_38  and  O_40
REMARK                            x       y       z     vdW  Elec       q    Type
REMARK                         _______ _______ _______ _____ _____    ______ ____
ROOT
ATOM      1  C   LIG A   1      -7.284  -0.201 128.286  0.00  0.00    +0.107 C 
ATOM      2  C   LIG A   1      -7.291  -1.029 127.003  0.00  0.00    +0.038 A 
ATOM      3  C   LIG A   1      -6.322  -2.004 126.789  0.00  0.00    -0.016 A 
ATOM      4  C   LIG A   1      -5.345  -2.299 127.871  0.00  0.00    +0.053 C 
ATOM      5  C   LIG A   1      -4.984  -0.961 128.605  0.00  0.00    +0.092 C 
ATOM      6  N   LIG A   1      -5.874   0.217 128.347  0.00  0.00    -0.268 NA
ATOM      7  C   LIG A   1      -5.507   1.397 129.121  0.00  0.00    +0.200 C 
ATOM      8  C   LIG A   1      -6.589   1.720 130.218  0.00  0.00    +0.063 C 
ATOM      9  C   LIG A   1      -8.076   1.870 129.673  0.00  0.00    +0.041 C 
ATOM     10  C   LIG A   1      -8.307   0.941 128.415  0.00  0.00    +0.034 C 
ATOM     11  C   LIG A   1      -6.210  -2.252 125.399  0.00  0.00    +0.003 A 
ATOM     12  C   LIG A   1      -5.290  -2.973 124.603  0.00  0.00    +0.010 A 
ATOM     13  C   LIG A   1      -5.290  -2.794 123.218  0.00  0.00    +0.001 A 
ATOM     14  C   LIG A   1      -6.213  -1.940 122.621  0.00  0.00    +0.002 A 
ATOM     15  C   LIG A   1      -7.167  -1.253 123.387  0.00  0.00    +0.026 A 
ATOM     16  C   LIG A   1      -7.137  -1.412 124.781  0.00  0.00    +0.047 A 
ATOM     17  N   LIG A   1      -7.853  -0.758 125.780  0.00  0.00    -0.356 N 
ATOM     18  H   LIG A   1      -8.514  -0.021 125.589  0.00  0.00    +0.166 HD
ENDROOT
BRANCH   9  19
ATOM     19  C   LIG A   1      -8.738   3.267 129.529  0.00  0.00    +0.074 C 
ATOM     20  C   LIG A   1      -8.376   4.159 128.585  0.00  0.00    +0.194 C 
BRANCH  19  21
ATOM     21  C   LIG A   1      -9.946   3.538 130.409  0.00  0.00    +0.338 C 
ATOM     22  O   LIG A   1     -11.013   3.890 129.995  0.00  0.00    -0.245 OA
BRANCH  21  23
ATOM     23  O   LIG A   1      -9.640   3.400 131.753  0.00  0.00    -0.465 OA
ATOM     24  C   LIG A   1      -9.378   4.628 132.443  0.00  0.00    +0.280 C 
ENDBRANCH  21  23
ENDBRANCH  19  21
BRANCH  20  25
ATOM     25  O   LIG A   1      -8.872   5.423 128.370  0.00  0.00    -0.514 OA
ATOM     26  H   LIG A   1      -9.767   5.358 127.980  0.00  0.00    +0.291 HD
ENDBRANCH  20  25
ENDBRANCH   9  19
BRANCH   8  27
ATOM     27  C   LIG A   1      -6.052   2.720 131.240  0.00  0.00    -0.027 C 
ATOM     28  C   LIG A   1      -6.217   2.609 132.572  0.00  0.00    +0.004 C 
ENDBRANCH   8  27
BRANCH   7  29
ATOM     29  O   LIG A   1      -5.203   2.547 128.279  0.00  0.00    -0.330 OA
BRANCH  29  30
ATOM     30  C   LIG A   1      -3.786   2.901 128.262  0.00  0.00    +0.284 C 
ATOM     31  O   LIG A   1      -3.381   3.508 129.509  0.00  0.00    -0.341 OA
ATOM     32  C   LIG A   1      -3.079   4.918 129.461  0.00  0.00    +0.178 C 
ATOM     33  C   LIG A   1      -4.180   5.626 128.663  0.00  0.00    +0.177 C 
ATOM     34  C   LIG A   1      -4.079   5.219 127.183  0.00  0.00    +0.179 C 
ATOM     35  C   LIG A   1      -3.444   3.816 127.029  0.00  0.00    +0.201 C 
BRANCH  34  36
ATOM     36  O   LIG A   1      -5.373   5.298 126.571  0.00  0.00    -0.386 OA
ATOM     37  H   LIG A   1      -6.053   5.260 127.269  0.00  0.00    +0.210 HD
ENDBRANCH  34  36
BRANCH  33  38
ATOM     38  O   LIG A   1      -4.107   7.045 128.791  0.00  0.00    -0.387 OA
ATOM     39  H   LIG A   1      -3.190   7.246 129.061  0.00  0.00    +0.210 HD
ENDBRANCH  33  38
BRANCH  35  40
ATOM     40  O   LIG A   1      -2.009   3.955 126.910  0.00  0.00    -0.384 OA
ATOM     41  H   LIG A   1      -1.739   3.729 126.000  0.00  0.00    +0.210 HD
ENDBRANCH  35  40
BRANCH  32  42
ATOM     42  C   LIG A   1      -2.953   5.407 130.911  0.00  0.00    +0.190 C 
BRANCH  42  43
ATOM     43  O   LIG A   1      -2.181   6.605 130.994  0.00  0.00    -0.392 OA
ATOM     44  H   LIG A   1      -1.502   6.452 131.674  0.00  0.00    +0.209 HD
ENDBRANCH  42  43
ENDBRANCH  32  42
ENDBRANCH  29  30
ENDBRANCH   7  29
TORSDOF 12
ENDMDL
MODEL 4
REMARK VINA RESULT:      -7.8      1.859      2.726
REMARK  Name = NuBBE_99
REMARK  13 active torsions:
REMARK  status: ('A' for Active; 'I' for Inactive)
REMARK    1  A    between atoms: C_8  and  O_24
REMARK    2  A    between atoms: C_10  and  C_22
REMARK    3  A    between atoms: C_12  and  C_15
REMARK    4  A    between atoms: C_15  and  C_16
REMARK    5  A    between atoms: C_16  and  O_17
REMARK    6  A    between atoms: O_17  and  C_18
REMARK    7  A    between atoms: C_20  and  O_21
REMARK    8  A    between atoms: O_24  and  C_25
REMARK    9  A    between atoms: C_28  and  C_36
REMARK   10  A    between atoms: C_30  and  O_35
REMARK   11  A    between atoms: C_32  and  O_34
REMARK   12  A    between atoms: C_36  and  O_37
REMARK   13  A    between atoms: C_38  and  O_40
REMARK                            x       y       z     vdW  Elec       q    Type
REMARK                         _______ _______ _______ _____ _____    ______ ____
ROOT
ATOM      1  C   LIG A   1      -7.917   6.374 131.372  0.00  0.00    +0.107 C 
ATOM      2  C   LIG A   1      -9.126   7.084 130.768  0.00  0.00    +0.038 A 
ATOM      3  C   LIG A   1     -10.416   6.650 131.059  0.00  0.00    -0.016 A 
ATOM      4  C   LIG A   1     -10.601   5.554 132.047  0.00  0.00    +0.053 C 
ATOM      5  C   LIG A   1      -9.429   4.525 131.888  0.00  0.00    +0.092 C 
ATOM      6  N   LIG A   1      -8.242   4.967 131.087  0.00  0.00    -0.268 NA
ATOM      7  C   LIG A   1      -7.172   3.976 131.047  0.00  0.00    +0.200 C 
ATOM      8  C   LIG A   1      -5.912   4.463 131.858  0.00  0.00    +0.063 C 
ATOM      9  C   LIG A   1      -5.348   5.888 131.432  0.00  0.00    +0.041 C 
ATOM     10  C   LIG A   1      -6.517   6.823 130.921  0.00  0.00    +0.034 C 
ATOM     11  C   LIG A   1     -11.295   7.082 130.036  0.00  0.00    +0.003 A 
ATOM     12  C   LIG A   1     -12.638   6.784 129.708  0.00  0.00    +0.010 A 
ATOM     13  C   LIG A   1     -13.141   7.160 128.460  0.00  0.00    +0.001 A 
ATOM     14  C   LIG A   1     -12.338   7.854 127.560  0.00  0.00    +0.002 A 
ATOM     15  C   LIG A   1     -11.018   8.203 127.884  0.00  0.00    +0.026 A 
ATOM     16  C   LIG A   1     -10.510   7.791 129.126  0.00  0.00    +0.047 A 
ATOM     17  N   LIG A   1      -9.220   7.868 129.645  0.00  0.00    -0.356 N 
ATOM     18  H   LIG A   1      -8.441   8.246 129.127  0.00  0.00    +0.166 HD
ENDROOT
BRANCH   9  19
ATOM     19  C   LIG A   1      -4.051   6.015 130.587  0.00  0.00    +0.074 C 
ATOM     20  C   LIG A   1      -2.890   6.481 131.089  0.00  0.00    +0.194 C 
BRANCH  19  21
ATOM     21  C   LIG A   1      -4.095   5.431 129.186  0.00  0.00    +0.338 C 
ATOM     22  O   LIG A   1      -4.846   5.798 128.329  0.00  0.00    -0.245 OA
BRANCH  21  23
ATOM     23  O   LIG A   1      -3.211   4.374 129.045  0.00  0.00    -0.465 OA
ATOM     24  C   LIG A   1      -2.643   4.229 127.738  0.00  0.00    +0.280 C 
ENDBRANCH  21  23
ENDBRANCH  19  21
BRANCH  20  25
ATOM     25  O   LIG A   1      -1.690   6.656 130.443  0.00  0.00    -0.514 OA
ATOM     26  H   LIG A   1      -1.434   7.599 130.484  0.00  0.00    +0.291 HD
ENDBRANCH  20  25
ENDBRANCH   9  19
BRANCH   8  27
ATOM     27  C   LIG A   1      -4.944   3.309 132.111  0.00  0.00    -0.027 C 
ATOM     28  C   LIG A   1      -4.026   3.289 133.096  0.00  0.00    +0.004 C 
ENDBRANCH   8  27
BRANCH   7  29
ATOM     29  O   LIG A   1      -6.839   3.565 129.690  0.00  0.00    -0.330 OA
BRANCH  29  30
ATOM     30  C   LIG A   1      -7.637   2.441 129.207  0.00  0.00    +0.284 C 
ATOM     31  O   LIG A   1      -7.023   1.178 129.547  0.00  0.00    -0.341 OA
ATOM     32  C   LIG A   1      -6.465   0.427 128.449  0.00  0.00    +0.178 C 
ATOM     33  C   LIG A   1      -5.654   1.383 127.566  0.00  0.00    +0.177 C 
ATOM     34  C   LIG A   1      -6.613   2.349 126.848  0.00  0.00    +0.179 C 
ATOM     35  C   LIG A   1      -7.911   2.560 127.662  0.00  0.00    +0.201 C 
BRANCH  34  36
ATOM     36  O   LIG A   1      -5.938   3.584 126.575  0.00  0.00    -0.386 OA
ATOM     37  H   LIG A   1      -5.852   4.085 127.407  0.00  0.00    +0.210 HD
ENDBRANCH  34  36
BRANCH  33  38
ATOM     38  O   LIG A   1      -4.853   0.685 126.615  0.00  0.00    -0.387 OA
ATOM     39  H   LIG A   1      -5.457   0.415 125.897  0.00  0.00    +0.210 HD
ENDBRANCH  33  38
BRANCH  35  40
ATOM     40  O   LIG A   1      -8.887   1.570 127.265  0.00  0.00    -0.384 OA
ATOM     41  H   LIG A   1      -8.716   0.738 127.745  0.00  0.00    +0.210 HD
ENDBRANCH  35  40
BRANCH  32  42
ATOM     42  C   LIG A   1      -5.632  -0.714 129.053  0.00  0.00    +0.190 C 
BRANCH  42  43
ATOM     43  O   LIG A   1      -4.281  -0.311 129.278  0.00  0.00    -0.392 OA
ATOM     44  H   LIG A   1      -4.200  -0.128 130.231  0.00  0.00    +0.209 HD
ENDBRANCH  42  43
ENDBRANCH  32  42
ENDBRANCH  29  30
ENDBRANCH   7  29
TORSDOF 12
ENDMDL
MODEL 5
REMARK VINA RESULT:      -7.8      3.115      6.509
REMARK  Name = NuBBE_99
REMARK  13 active torsions:
REMARK  status: ('A' for Active; 'I' for Inactive)
REMARK    1  A    between atoms: C_8  and  O_24
REMARK    2  A    between atoms: C_10  and  C_22
REMARK    3  A    between atoms: C_12  and  C_15
REMARK    4  A    between atoms: C_15  and  C_16
REMARK    5  A    between atoms: C_16  and  O_17
REMARK    6  A    between atoms: O_17  and  C_18
REMARK    7  A    between atoms: C_20  and  O_21
REMARK    8  A    between atoms: O_24  and  C_25
REMARK    9  A    between atoms: C_28  and  C_36
REMARK   10  A    between atoms: C_30  and  O_35
REMARK   11  A    between atoms: C_32  and  O_34
REMARK   12  A    between atoms: C_36  and  O_37
REMARK   13  A    between atoms: C_38  and  O_40
REMARK                            x       y       z     vdW  Elec       q    Type
REMARK                         _______ _______ _______ _____ _____    ______ ____
ROOT
ATOM      1  C   LIG A   1      -5.378   3.072 130.631  0.00  0.00    +0.107 C 
ATOM      2  C   LIG A   1      -4.484   4.288 130.401  0.00  0.00    +0.038 A 
ATOM      3  C   LIG A   1      -4.114   5.102 131.467  0.00  0.00    -0.016 A 
ATOM      4  C   LIG A   1      -4.515   4.711 132.845  0.00  0.00    +0.053 C 
ATOM      5  C   LIG A   1      -5.941   4.063 132.792  0.00  0.00    +0.092 C 
ATOM      6  N   LIG A   1      -6.455   3.661 131.444  0.00  0.00    -0.268 NA
ATOM      7  C   LIG A   1      -7.757   3.005 131.495  0.00  0.00    +0.200 C 
ATOM      8  C   LIG A   1      -7.644   1.480 131.119  0.00  0.00    +0.063 C 
ATOM      9  C   LIG A   1      -6.940   1.181 129.724  0.00  0.00    +0.041 C 
ATOM     10  C   LIG A   1      -5.850   2.279 129.401  0.00  0.00    +0.034 C 
ATOM     11  C   LIG A   1      -3.757   6.382 130.975  0.00  0.00    +0.003 A 
ATOM     12  C   LIG A   1      -3.495   7.628 131.587  0.00  0.00    +0.010 A 
ATOM     13  C   LIG A   1      -3.446   8.784 130.803  0.00  0.00    +0.001 A 
ATOM     14  C   LIG A   1      -3.619   8.703 129.424  0.00  0.00    +0.002 A 
ATOM     15  C   LIG A   1      -3.832   7.470 128.790  0.00  0.00    +0.026 A 
ATOM     16  C   LIG A   1      -3.914   6.319 129.590  0.00  0.00    +0.047 A 
ATOM     17  N   LIG A   1      -4.253   5.010 129.257  0.00  0.00    -0.356 N 
ATOM     18  H   LIG A   1      -4.518   4.732 128.324  0.00  0.00    +0.166 HD
ENDROOT
BRANCH   9  19
ATOM     19  C   LIG A   1      -7.773   0.762 128.482  0.00  0.00    +0.074 C 
ATOM     20  C   LIG A   1      -8.480   1.638 127.741  0.00  0.00    +0.194 C 
BRANCH  19  21
ATOM     21  C   LIG A   1      -7.629  -0.680 128.026  0.00  0.00    +0.338 C 
ATOM     22  O   LIG A   1      -7.976  -1.082 126.953  0.00  0.00    -0.245 OA
BRANCH  21  23
ATOM     23  O   LIG A   1      -7.119  -1.485 129.031  0.00  0.00    -0.465 OA
ATOM     24  C   LIG A   1      -7.740  -2.771 129.150  0.00  0.00    +0.280 C 
ENDBRANCH  21  23
ENDBRANCH  19  21
BRANCH  20  25
ATOM     25  O   LIG A   1      -9.262   1.388 126.640  0.00  0.00    -0.514 OA
ATOM     26  H   LIG A   1      -9.418   2.224 126.156  0.00  0.00    +0.291 HD
ENDBRANCH  20  25
ENDBRANCH   9  19
BRANCH   8  27
ATOM     27  C   LIG A   1      -8.914   0.725 131.505  0.00  0.00    -0.027 C 
ATOM     28  C   LIG A   1      -8.941  -0.557 131.918  0.00  0.00    +0.004 C 
ENDBRANCH   8  27
BRANCH   7  29
ATOM     29  O   LIG A   1      -8.766   3.701 130.707  0.00  0.00    -0.330 OA
BRANCH  29  30
ATOM     30  C   LIG A   1      -9.704   4.478 131.514  0.00  0.00    +0.284 C 
ATOM     31  O   LIG A   1     -10.880   4.834 130.754  0.00  0.00    -0.341 OA
ATOM     32  C   LIG A   1     -11.015   6.228 130.406  0.00  0.00    +0.178 C 
ATOM     33  C   LIG A   1      -9.665   6.733 129.884  0.00  0.00    +0.177 C 
ATOM     34  C   LIG A   1      -8.655   6.781 131.044  0.00  0.00    +0.179 C 
ATOM     35  C   LIG A   1      -9.006   5.743 132.136  0.00  0.00    +0.201 C 
BRANCH  34  36
ATOM     36  O   LIG A   1      -7.326   6.602 130.534  0.00  0.00    -0.386 OA
ATOM     37  H   LIG A   1      -7.254   5.707 130.156  0.00  0.00    +0.210 HD
ENDBRANCH  34  36
BRANCH  33  38
ATOM     38  O   LIG A   1      -9.774   8.016 129.271  0.00  0.00    -0.387 OA
ATOM     39  H   LIG A   1      -8.902   8.200 128.871  0.00  0.00    +0.210 HD
ENDBRANCH  33  38
BRANCH  35  40
ATOM     40  O   LIG A   1      -9.887   6.355 133.107  0.00  0.00    -0.384 OA
ATOM     41  H   LIG A   1     -10.795   6.374 132.750  0.00  0.00    +0.210 HD
ENDBRANCH  35  40
BRANCH  32  42
ATOM     42  C   LIG A   1     -12.154   6.334 129.383  0.00  0.00    +0.190 C 
BRANCH  42  43
ATOM     43  O   LIG A   1     -11.652   6.418 128.049  0.00  0.00    -0.392 OA
ATOM     44  H   LIG A   1     -10.693   6.258 128.102  0.00  0.00    +0.209 HD
ENDBRANCH  42  43
ENDBRANCH  32  42
ENDBRANCH  29  30
ENDBRANCH   7  29
TORSDOF 12
ENDMDL
MODEL 6
REMARK VINA RESULT:      -7.6      3.326      7.581
REMARK  Name = NuBBE_99
REMARK  13 active torsions:
REMARK  status: ('A' for Active; 'I' for Inactive)
REMARK    1  A    between atoms: C_8  and  O_24
REMARK    2  A    between atoms: C_10  and  C_22
REMARK    3  A    between atoms: C_12  and  C_15
REMARK    4  A    between atoms: C_15  and  C_16
REMARK    5  A    between atoms: C_16  and  O_17
REMARK    6  A    between atoms: O_17  and  C_18
REMARK    7  A    between atoms: C_20  and  O_21
REMARK    8  A    between atoms: O_24  and  C_25
REMARK    9  A    between atoms: C_28  and  C_36
REMARK   10  A    between atoms: C_30  and  O_35
REMARK   11  A    between atoms: C_32  and  O_34
REMARK   12  A    between atoms: C_36  and  O_37
REMARK   13  A    between atoms: C_38  and  O_40
REMARK                            x       y       z     vdW  Elec       q    Type
REMARK                         _______ _______ _______ _____ _____    ______ ____
ROOT
ATOM      1  C   LIG A   1      -6.276  -0.305 126.443  0.00  0.00    +0.107 C 
ATOM      2  C   LIG A   1      -5.590  -1.045 127.589  0.00  0.00    +0.038 A 
ATOM      3  C   LIG A   1      -6.167  -2.187 128.135  0.00  0.00    -0.016 A 
ATOM      4  C   LIG A   1      -7.405  -2.735 127.517  0.00  0.00    +0.053 C 
ATOM      5  C   LIG A   1      -8.299  -1.542 127.032  0.00  0.00    +0.092 C 
ATOM      6  N   LIG A   1      -7.651  -0.193 126.958  0.00  0.00    -0.268 NA
ATOM      7  C   LIG A   1      -8.533   0.843 126.432  0.00  0.00    +0.200 C 
ATOM      8  C   LIG A   1      -8.064   1.325 125.009  0.00  0.00    +0.063 C 
ATOM      9  C   LIG A   1      -6.551   1.810 124.928  0.00  0.00    +0.041 C 
ATOM     10  C   LIG A   1      -5.653   1.016 125.960  0.00  0.00    +0.034 C 
ATOM     11  C   LIG A   1      -5.669  -2.380 129.447  0.00  0.00    +0.003 A 
ATOM     12  C   LIG A   1      -6.028  -3.233 130.515  0.00  0.00    +0.010 A 
ATOM     13  C   LIG A   1      -5.521  -2.985 131.794  0.00  0.00    +0.001 A 
ATOM     14  C   LIG A   1      -4.642  -1.927 132.007  0.00  0.00    +0.002 A 
ATOM     15  C   LIG A   1      -4.234  -1.098 130.951  0.00  0.00    +0.026 A 
ATOM     16  C   LIG A   1      -4.775  -1.333 129.677  0.00  0.00    +0.047 A 
ATOM     17  N   LIG A   1      -4.665  -0.599 128.499  0.00  0.00    -0.356 N 
ATOM     18  H   LIG A   1      -4.154   0.269 128.439  0.00  0.00    +0.166 HD
ENDROOT
BRANCH   9  19
ATOM     19  C   LIG A   1      -6.197   3.319 124.846  0.00  0.00    +0.074 C 
ATOM     20  C   LIG A   1      -6.038   4.097 125.936  0.00  0.00    +0.194 C 
BRANCH  19  21
ATOM     21  C   LIG A   1      -5.871   3.865 123.467  0.00  0.00    +0.338 C 
ATOM     22  O   LIG A   1      -5.437   4.962 123.265  0.00  0.00    -0.245 OA
BRANCH  21  23
ATOM     23  O   LIG A   1      -6.209   2.966 122.469  0.00  0.00    -0.465 OA
ATOM     24  C   LIG A   1      -6.243   3.514 121.146  0.00  0.00    +0.280 C 
ENDBRANCH  21  23
ENDBRANCH  19  21
BRANCH  20  25
ATOM     25  O   LIG A   1      -5.744   5.439 125.991  0.00  0.00    -0.514 OA
ATOM     26  H   LIG A   1      -4.773   5.558 125.987  0.00  0.00    +0.291 HD
ENDBRANCH  20  25
ENDBRANCH   9  19
BRANCH   8  27
ATOM     27  C   LIG A   1      -9.157   2.136 124.317  0.00  0.00    -0.027 C 
ATOM     28  C   LIG A   1      -9.520   1.980 123.030  0.00  0.00    +0.004 C 
ENDBRANCH   8  27
BRANCH   7  29
ATOM     29  O   LIG A   1      -8.717   1.946 127.365  0.00  0.00    -0.330 OA
BRANCH  29  30
ATOM     30  C   LIG A   1      -7.882   1.849 128.560  0.00  0.00    +0.284 C 
ATOM     31  O   LIG A   1      -8.651   1.417 129.704  0.00  0.00    -0.341 OA
ATOM     32  C   LIG A   1      -8.883   2.409 130.725  0.00  0.00    +0.178 C 
ATOM     33  C   LIG A   1      -9.311   3.716 130.047  0.00  0.00    +0.177 C 
ATOM     34  C   LIG A   1      -8.115   4.308 129.280  0.00  0.00    +0.179 C 
ATOM     35  C   LIG A   1      -7.129   3.201 128.839  0.00  0.00    +0.201 C 
BRANCH  34  36
ATOM     36  O   LIG A   1      -8.590   5.085 128.172  0.00  0.00    -0.386 OA
ATOM     37  H   LIG A   1      -8.993   5.904 128.512  0.00  0.00    +0.210 HD
ENDBRANCH  34  36
BRANCH  33  38
ATOM     38  O   LIG A   1      -9.816   4.666 130.983  0.00  0.00    -0.387 OA
ATOM     39  H   LIG A   1      -9.205   4.648 131.744  0.00  0.00    +0.210 HD
ENDBRANCH  33  38
BRANCH  35  40
ATOM     40  O   LIG A   1      -6.143   3.002 129.878  0.00  0.00    -0.384 OA
ATOM     41  H   LIG A   1      -6.441   3.446 130.694  0.00  0.00    +0.210 HD
ENDBRANCH  35  40
BRANCH  32  42
ATOM     42  C   LIG A   1      -9.935   1.837 131.686  0.00  0.00    +0.190 C 
BRANCH  42  43
ATOM     43  O   LIG A   1      -9.996   2.587 132.900  0.00  0.00    -0.392 OA
ATOM     44  H   LIG A   1     -10.861   2.394 133.303  0.00  0.00    +0.209 HD
ENDBRANCH  42  43
ENDBRANCH  32  42
ENDBRANCH  29  30
ENDBRANCH   7  29
TORSDOF 12
ENDMDL
MODEL 7
REMARK VINA RESULT:      -7.6      2.823      6.977
REMARK  Name = NuBBE_99
REMARK  13 active torsions:
REMARK  status: ('A' for Active; 'I' for Inactive)
REMARK    1  A    between atoms: C_8  and  O_24
REMARK    2  A    between atoms: C_10  and  C_22
REMARK    3  A    between atoms: C_12  and  C_15
REMARK    4  A    between atoms: C_15  and  C_16
REMARK    5  A    between atoms: C_16  and  O_17
REMARK    6  A    between atoms: O_17  and  C_18
REMARK    7  A    between atoms: C_20  and  O_21
REMARK    8  A    between atoms: O_24  and  C_25
REMARK    9  A    between atoms: C_28  and  C_36
REMARK   10  A    between atoms: C_30  and  O_35
REMARK   11  A    between atoms: C_32  and  O_34
REMARK   12  A    between atoms: C_36  and  O_37
REMARK   13  A    between atoms: C_38  and  O_40
REMARK                            x       y       z     vdW  Elec       q    Type
REMARK                         _______ _______ _______ _____ _____    ______ ____
ROOT
ATOM      1  C   LIG A   1      -4.712   3.512 129.023  0.00  0.00    +0.107 C 
ATOM      2  C   LIG A   1      -3.784   4.410 129.838  0.00  0.00    +0.038 A 
ATOM      3  C   LIG A   1      -3.383   4.033 131.116  0.00  0.00    -0.016 A 
ATOM      4  C   LIG A   1      -3.785   2.697 131.632  0.00  0.00    +0.053 C 
ATOM      5  C   LIG A   1      -5.230   2.370 131.120  0.00  0.00    +0.092 C 
ATOM      6  N   LIG A   1      -5.766   3.221 130.009  0.00  0.00    -0.268 NA
ATOM      7  C   LIG A   1      -7.086   2.805 129.549  0.00  0.00    +0.200 C 
ATOM      8  C   LIG A   1      -7.020   2.198 128.097  0.00  0.00    +0.063 C 
ATOM      9  C   LIG A   1      -6.336   3.134 127.008  0.00  0.00    +0.041 C 
ATOM     10  C   LIG A   1      -5.216   4.035 127.667  0.00  0.00    +0.034 C 
ATOM     11  C   LIG A   1      -2.993   5.185 131.841  0.00  0.00    +0.003 A 
ATOM     12  C   LIG A   1      -2.689   5.431 133.200  0.00  0.00    +0.010 A 
ATOM     13  C   LIG A   1      -2.612   6.748 133.660  0.00  0.00    +0.001 A 
ATOM     14  C   LIG A   1      -2.798   7.811 132.780  0.00  0.00    +0.002 A 
ATOM     15  C   LIG A   1      -3.051   7.590 131.418  0.00  0.00    +0.026 A 
ATOM     16  C   LIG A   1      -3.161   6.263 130.972  0.00  0.00    +0.047 A 
ATOM     17  N   LIG A   1      -3.541   5.756 129.731  0.00  0.00    -0.356 N 
ATOM     18  H   LIG A   1      -3.820   6.343 128.960  0.00  0.00    +0.166 HD
ENDROOT
BRANCH   9  19
ATOM     19  C   LIG A   1      -7.189   3.892 125.955  0.00  0.00    +0.074 C 
ATOM     20  C   LIG A   1      -7.867   5.023 126.236  0.00  0.00    +0.194 C 
BRANCH  19  21
ATOM     21  C   LIG A   1      -7.100   3.392 124.524  0.00  0.00    +0.338 C 
ATOM     22  O   LIG A   1      -6.092   3.002 124.009  0.00  0.00    -0.245 OA
BRANCH  21  23
ATOM     23  O   LIG A   1      -8.313   3.514 123.865  0.00  0.00    -0.465 OA
ATOM     24  C   LIG A   1      -9.080   2.307 123.780  0.00  0.00    +0.280 C 
ENDBRANCH  21  23
ENDBRANCH  19  21
BRANCH  20  25
ATOM     25  O   LIG A   1      -8.664   5.769 125.401  0.00  0.00    -0.514 OA
ATOM     26  H   LIG A   1      -8.114   6.154 124.688  0.00  0.00    +0.291 HD
ENDBRANCH  20  25
ENDBRANCH   9  19
BRANCH   8  27
ATOM     27  C   LIG A   1      -8.309   1.454 127.755  0.00  0.00    -0.027 C 
ATOM     28  C   LIG A   1      -8.393   0.453 126.859  0.00  0.00    +0.004 C 
ENDBRANCH   8  27
BRANCH   7  29
ATOM     29  O   LIG A   1      -8.079   3.864 129.668  0.00  0.00    -0.330 OA
BRANCH  29  30
ATOM     30  C   LIG A   1      -9.360   3.407 130.202  0.00  0.00    +0.284 C 
ATOM     31  O   LIG A   1     -10.400   4.386 129.984  0.00  0.00    -0.341 OA
ATOM     32  C   LIG A   1     -10.881   5.074 131.157  0.00  0.00    +0.178 C 
ATOM     33  C   LIG A   1      -9.675   5.508 131.998  0.00  0.00    +0.177 C 
ATOM     34  C   LIG A   1      -8.999   4.264 132.601  0.00  0.00    +0.179 C 
ATOM     35  C   LIG A   1      -9.236   3.015 131.720  0.00  0.00    +0.201 C 
BRANCH  34  36
ATOM     36  O   LIG A   1      -7.604   4.525 132.807  0.00  0.00    -0.386 OA
ATOM     37  H   LIG A   1      -7.374   4.296 133.726  0.00  0.00    +0.210 HD
ENDBRANCH  34  36
BRANCH  33  38
ATOM     38  O   LIG A   1     -10.042   6.420 133.031  0.00  0.00    -0.387 OA
ATOM     39  H   LIG A   1      -9.706   7.294 132.753  0.00  0.00    +0.210 HD
ENDBRANCH  33  38
BRANCH  35  40
ATOM     40  O   LIG A   1     -10.447   2.353 132.151  0.00  0.00    -0.384 OA
ATOM     41  H   LIG A   1     -11.220   2.827 131.788  0.00  0.00    +0.210 HD
ENDBRANCH  35  40
BRANCH  32  42
ATOM     42  C   LIG A   1     -11.753   6.242 130.676  0.00  0.00    +0.190 C 
BRANCH  42  43
ATOM     43  O   LIG A   1     -12.616   6.711 131.712  0.00  0.00    -0.392 OA
ATOM     44  H   LIG A   1     -13.045   5.925 132.094  0.00  0.00    +0.209 HD
ENDBRANCH  42  43
ENDBRANCH  32  42
ENDBRANCH  29  30
ENDBRANCH   7  29
TORSDOF 12
ENDMDL
MODEL 8
REMARK VINA RESULT:      -7.4      2.528      6.558
REMARK  Name = NuBBE_99
REMARK  13 active torsions:
REMARK  status: ('A' for Active; 'I' for Inactive)
REMARK    1  A    between atoms: C_8  and  O_24
REMARK    2  A    between atoms: C_10  and  C_22
REMARK    3  A    between atoms: C_12  and  C_15
REMARK    4  A    between atoms: C_15  and  C_16
REMARK    5  A    between atoms: C_16  and  O_17
REMARK    6  A    between atoms: O_17  and  C_18
REMARK    7  A    between atoms: C_20  and  O_21
REMARK    8  A    between atoms: O_24  and  C_25
REMARK    9  A    between atoms: C_28  and  C_36
REMARK   10  A    between atoms: C_30  and  O_35
REMARK   11  A    between atoms: C_32  and  O_34
REMARK   12  A    between atoms: C_36  and  O_37
REMARK   13  A    between atoms: C_38  and  O_40
REMARK                            x       y       z     vdW  Elec       q    Type
REMARK                         _______ _______ _______ _____ _____    ______ ____
ROOT
ATOM      1  C   LIG A   1      -4.739   3.121 128.230  0.00  0.00    +0.107 C 
ATOM      2  C   LIG A   1      -3.966   4.346 128.713  0.00  0.00    +0.038 A 
ATOM      3  C   LIG A   1      -3.529   4.429 130.031  0.00  0.00    -0.016 A 
ATOM      4  C   LIG A   1      -3.732   3.263 130.932  0.00  0.00    +0.053 C 
ATOM      5  C   LIG A   1      -5.106   2.591 130.587  0.00  0.00    +0.092 C 
ATOM      6  N   LIG A   1      -5.749   2.985 129.292  0.00  0.00    -0.268 NA
ATOM      7  C   LIG A   1      -6.986   2.262 129.019  0.00  0.00    +0.200 C 
ATOM      8  C   LIG A   1      -6.813   1.268 127.811  0.00  0.00    +0.063 C 
ATOM      9  C   LIG A   1      -6.263   1.927 126.471  0.00  0.00    +0.041 C 
ATOM     10  C   LIG A   1      -5.299   3.137 126.798  0.00  0.00    +0.034 C 
ATOM     11  C   LIG A   1      -3.324   5.789 130.370  0.00  0.00    +0.003 A 
ATOM     12  C   LIG A   1      -3.078   6.469 131.584  0.00  0.00    +0.010 A 
ATOM     13  C   LIG A   1      -3.204   7.860 131.632  0.00  0.00    +0.001 A 
ATOM     14  C   LIG A   1      -3.536   8.573 130.484  0.00  0.00    +0.002 A 
ATOM     15  C   LIG A   1      -3.737   7.923 129.257  0.00  0.00    +0.026 A 
ATOM     16  C   LIG A   1      -3.642   6.523 129.226  0.00  0.00    +0.047 A 
ATOM     17  N   LIG A   1      -3.926   5.620 128.205  0.00  0.00    -0.356 N 
ATOM     18  H   LIG A   1      -4.280   5.904 127.304  0.00  0.00    +0.166 HD
ENDROOT
BRANCH   9  19
ATOM     19  C   LIG A   1      -7.207   2.205 125.270  0.00  0.00    +0.074 C 
ATOM     20  C   LIG A   1      -7.597   3.446 124.914  0.00  0.00    +0.194 C 
BRANCH  19  21
ATOM     21  C   LIG A   1      -7.556   1.016 124.393  0.00  0.00    +0.338 C 
ATOM     22  O   LIG A   1      -6.745   0.306 123.871  0.00  0.00    -0.245 OA
BRANCH  21  23
ATOM     23  O   LIG A   1      -8.924   0.900 124.210  0.00  0.00    -0.465 OA
ATOM     24  C   LIG A   1      -9.322  -0.004 123.172  0.00  0.00    +0.280 C 
ENDBRANCH  21  23
ENDBRANCH  19  21
BRANCH  20  25
ATOM     25  O   LIG A   1      -8.436   3.815 123.890  0.00  0.00    -0.514 OA
ATOM     26  H   LIG A   1      -8.794   3.012 123.460  0.00  0.00    +0.291 HD
ENDBRANCH  20  25
ENDBRANCH   9  19
BRANCH   8  27
ATOM     27  C   LIG A   1      -7.971   0.275 127.747  0.00  0.00    -0.027 C 
ATOM     28  C   LIG A   1      -7.846  -1.017 127.387  0.00  0.00    +0.004 C 
ENDBRANCH   8  27
BRANCH   7  29
ATOM     29  O   LIG A   1      -8.129   3.151 128.853  0.00  0.00    -0.330 OA
BRANCH  29  30
ATOM     30  C   LIG A   1      -8.923   3.317 130.068  0.00  0.00    +0.284 C 
ATOM     31  O   LIG A   1     -10.218   3.886 129.775  0.00  0.00    -0.341 OA
ATOM     32  C   LIG A   1     -10.430   5.243 130.216  0.00  0.00    +0.178 C 
ATOM     33  C   LIG A   1      -9.199   6.076 129.840  0.00  0.00    +0.177 C 
ATOM     34  C   LIG A   1      -8.003   5.635 130.703  0.00  0.00    +0.179 C 
ATOM     35  C   LIG A   1      -8.144   4.159 131.145  0.00  0.00    +0.201 C 
BRANCH  34  36
ATOM     36  O   LIG A   1      -6.781   5.872 129.991  0.00  0.00    -0.386 OA
ATOM     37  H   LIG A   1      -6.395   5.014 129.736  0.00  0.00    +0.210 HD
ENDBRANCH  34  36
BRANCH  33  38
ATOM     38  O   LIG A   1      -9.430   7.475 129.996  0.00  0.00    -0.387 OA
ATOM     39  H   LIG A   1     -10.289   7.559 130.452  0.00  0.00    +0.210 HD
ENDBRANCH  33  38
BRANCH  35  40
ATOM     40  O   LIG A   1      -8.851   4.107 132.405  0.00  0.00    -0.384 OA
ATOM     41  H   LIG A   1      -8.508   4.804 132.996  0.00  0.00    +0.210 HD
ENDBRANCH  35  40
BRANCH  32  42
ATOM     42  C   LIG A   1     -11.732   5.735 129.566  0.00  0.00    +0.190 C 
BRANCH  42  43
ATOM     43  O   LIG A   1     -11.480   6.390 128.323  0.00  0.00    -0.392 OA
ATOM     44  H   LIG A   1     -11.227   7.305 128.536  0.00  0.00    +0.209 HD
ENDBRANCH  42  43
ENDBRANCH  32  42
ENDBRANCH  29  30
ENDBRANCH   7  29
TORSDOF 12
ENDMDL
MODEL 9
REMARK VINA RESULT:      -7.4      2.844      6.678
REMARK  Name = NuBBE_99
REMARK  13 active torsions:
REMARK  status: ('A' for Active; 'I' for Inactive)
REMARK    1  A    between atoms: C_8  and  O_24
REMARK    2  A    between atoms: C_10  and  C_22
REMARK    3  A    between atoms: C_12  and  C_15
REMARK    4  A    between atoms: C_15  and  C_16
REMARK    5  A    between atoms: C_16  and  O_17
REMARK    6  A    between atoms: O_17  and  C_18
REMARK    7  A    between atoms: C_20  and  O_21
REMARK    8  A    between atoms: O_24  and  C_25
REMARK    9  A    between atoms: C_28  and  C_36
REMARK   10  A    between atoms: C_30  and  O_35
REMARK   11  A    between atoms: C_32  and  O_34
REMARK   12  A    between atoms: C_36  and  O_37
REMARK   13  A    between atoms: C_38  and  O_40
REMARK                            x       y       z     vdW  Elec       q    Type
REMARK                         _______ _______ _______ _____ _____    ______ ____
ROOT
ATOM      1  C   LIG A   1      -7.355   2.457 131.819  0.00  0.00    +0.107 C 
ATOM      2  C   LIG A   1      -7.387   0.946 131.601  0.00  0.00    +0.038 A 
ATOM      3  C   LIG A   1      -6.233   0.186 131.761  0.00  0.00    -0.016 A 
ATOM      4  C   LIG A   1      -4.995   0.850 132.249  0.00  0.00    +0.053 C 
ATOM      5  C   LIG A   1      -4.923   2.294 131.642  0.00  0.00    +0.092 C 
ATOM      6  N   LIG A   1      -6.175   2.833 131.021  0.00  0.00    -0.268 NA
ATOM      7  C   LIG A   1      -6.039   4.205 130.545  0.00  0.00    +0.200 C 
ATOM      8  C   LIG A   1      -6.890   5.201 131.419  0.00  0.00    +0.063 C 
ATOM      9  C   LIG A   1      -8.430   4.826 131.558  0.00  0.00    +0.041 C 
ATOM     10  C   LIG A   1      -8.630   3.259 131.512  0.00  0.00    +0.034 C 
ATOM     11  C   LIG A   1      -6.365  -1.022 131.033  0.00  0.00    +0.003 A 
ATOM     12  C   LIG A   1      -5.468  -2.057 130.680  0.00  0.00    +0.010 A 
ATOM     13  C   LIG A   1      -5.839  -2.986 129.705  0.00  0.00    +0.001 A 
ATOM     14  C   LIG A   1      -7.095  -2.916 129.111  0.00  0.00    +0.002 A 
ATOM     15  C   LIG A   1      -8.019  -1.927 129.481  0.00  0.00    +0.026 A 
ATOM     16  C   LIG A   1      -7.626  -0.977 130.436  0.00  0.00    +0.047 A 
ATOM     17  N   LIG A   1      -8.267   0.176 130.881  0.00  0.00    -0.356 N 
ATOM     18  H   LIG A   1      -9.154   0.487 130.515  0.00  0.00    +0.166 HD
ENDROOT
BRANCH   9  19
ATOM     19  C   LIG A   1      -9.517   5.605 130.769  0.00  0.00    +0.074 C 
ATOM     20  C   LIG A   1      -9.552   5.657 129.422  0.00  0.00    +0.194 C 
BRANCH  19  21
ATOM     21  C   LIG A   1     -10.660   6.186 131.584  0.00  0.00    +0.338 C 
ATOM     22  O   LIG A   1     -10.543   6.610 132.697  0.00  0.00    -0.245 OA
BRANCH  21  23
ATOM     23  O   LIG A   1     -11.866   6.094 130.908  0.00  0.00    -0.465 OA
ATOM     24  C   LIG A   1     -12.752   7.204 131.099  0.00  0.00    +0.280 C 
ENDBRANCH  21  23
ENDBRANCH  19  21
BRANCH  20  25
ATOM     25  O   LIG A   1     -10.446   6.322 128.617  0.00  0.00    -0.514 OA
ATOM     26  H   LIG A   1     -10.165   6.238 127.684  0.00  0.00    +0.291 HD
ENDBRANCH  20  25
ENDBRANCH   9  19
BRANCH   8  27
ATOM     27  C   LIG A   1      -6.483   6.649 131.153  0.00  0.00    -0.027 C 
ATOM     28  C   LIG A   1      -5.210   7.075 131.054  0.00  0.00    +0.004 C 
ENDBRANCH   8  27
BRANCH   7  29
ATOM     29  O   LIG A   1      -6.316   4.334 129.121  0.00  0.00    -0.330 OA
BRANCH  29  30
ATOM     30  C   LIG A   1      -5.121   4.547 128.309  0.00  0.00    +0.284 C 
ATOM     31  O   LIG A   1      -5.462   5.012 126.984  0.00  0.00    -0.341 OA
ATOM     32  C   LIG A   1      -5.249   4.076 125.908  0.00  0.00    +0.178 C 
ATOM     33  C   LIG A   1      -5.799   2.710 126.333  0.00  0.00    +0.177 C 
ATOM     34  C   LIG A   1      -4.915   2.129 127.451  0.00  0.00    +0.179 C 
ATOM     35  C   LIG A   1      -4.227   3.253 128.262  0.00  0.00    +0.201 C 
BRANCH  34  36
ATOM     36  O   LIG A   1      -5.698   1.262 128.284  0.00  0.00    -0.386 OA
ATOM     37  H   LIG A   1      -5.295   1.232 129.170  0.00  0.00    +0.210 HD
ENDBRANCH  34  36
BRANCH  33  38
ATOM     38  O   LIG A   1      -5.874   1.797 125.239  0.00  0.00    -0.387 OA
ATOM     39  H   LIG A   1      -5.235   2.118 124.575  0.00  0.00    +0.210 HD
ENDBRANCH  33  38
BRANCH  35  40
ATOM     40  O   LIG A   1      -2.953   3.565 127.653  0.00  0.00    -0.384 OA
ATOM     41  H   LIG A   1      -3.061   3.611 126.684  0.00  0.00    +0.210 HD
ENDBRANCH  35  40
BRANCH  32  42
ATOM     42  C   LIG A   1      -5.928   4.655 124.658  0.00  0.00    +0.190 C 
BRANCH  42  43
ATOM     43  O   LIG A   1      -6.613   5.873 124.953  0.00  0.00    -0.392 OA
ATOM     44  H   LIG A   1      -7.403   5.629 125.467  0.00  0.00    +0.209 HD
ENDBRANCH  42  43
ENDBRANCH  32  42
ENDBRANCH  29  30
ENDBRANCH   7  29
TORSDOF 12
ENDMDL
