MODEL 1
REMARK VINA RESULT:      -8.1      0.000      0.000
REMARK  Name = NuBBE_2158
REMARK  12 active torsions:
REMARK  status: ('A' for Active; 'I' for Inactive)
REMARK    1  A    between atoms: C_1  and  C_2
REMARK    2  A    between atoms: C_2  and  C_4
REMARK    3  A    between atoms: C_2  and  C_7
REMARK    4  A    between atoms: C_4  and  C_5
REMARK    5  A    between atoms: C_4  and  C_6
REMARK    6  A    between atoms: C_7  and  C_8
REMARK    7  A    between atoms: C_8  and  C_9
REMARK    8  A    between atoms: C_9  and  C_11
REMARK    9  A    between atoms: C_9  and  C_12
REMARK   10  A    between atoms: C_24  and  O_26
REMARK   11  A    between atoms: C_29  and  C_30
REMARK   12  A    between atoms: C_35  and  C_36
REMARK                            x       y       z     vdW  Elec       q    Type
REMARK                         _______ _______ _______ _____ _____    ______ ____
ROOT
ATOM      1  C   LIG A   1      -7.119  -1.100 127.866  0.00  0.00    -0.002 C 
ATOM      2  C   LIG A   1      -8.191  -2.100 127.429  0.00  0.00    +0.004 C 
ATOM      3  C   LIG A   1      -8.336  -2.965 128.669  0.00  0.00    +0.004 C 
ATOM      4  C   LIG A   1      -6.885  -3.260 129.073  0.00  0.00    -0.001 C 
ATOM      5  C   LIG A   1      -6.773  -3.737 130.533  0.00  0.00    +0.000 C 
ATOM      6  C   LIG A   1      -5.630  -4.765 130.705  0.00  0.00    +0.031 C 
ATOM      7  C   LIG A   1      -5.320  -5.077 132.138  0.00  0.00    -0.027 C 
ATOM      8  C   LIG A   1      -5.779  -4.352 133.188  0.00  0.00    -0.065 C 
ATOM      9  C   LIG A   1      -5.671  -4.869 134.595  0.00  0.00    +0.062 C 
ATOM     10  C   LIG A   1      -7.076  -5.226 135.105  0.00  0.00    +0.119 C 
ATOM     11  C   LIG A   1      -8.107  -4.111 134.876  0.00  0.00    +0.032 C 
ATOM     12  C   LIG A   1      -8.053  -3.502 133.464  0.00  0.00    +0.013 C 
ATOM     13  C   LIG A   1      -6.615  -3.090 133.021  0.00  0.00    -0.008 C 
ATOM     14  C   LIG A   1      -6.125  -1.948 133.949  0.00  0.00    +0.016 C 
ATOM     15  C   LIG A   1      -6.606  -2.573 131.530  0.00  0.00    +0.003 C 
ATOM     16  C   LIG A   1      -5.330  -1.799 131.141  0.00  0.00    +0.005 C 
ATOM     17  C   LIG A   1      -5.461  -1.140 129.778  0.00  0.00    +0.007 C 
ATOM     18  C   LIG A   1      -6.060  -1.993 128.632  0.00  0.00    -0.026 C 
ATOM     19  C   LIG A   1      -4.914  -2.518 127.738  0.00  0.00    +0.012 C 
ENDROOT
BRANCH   1  20
ATOM     20  C   LIG A   1      -6.682  -0.119 126.743  0.00  0.00    -0.010 C 
ATOM     21  C   LIG A   1      -6.660   1.351 127.178  0.00  0.00    +0.008 C 
BRANCH  20  22
ATOM     22  C   LIG A   1      -7.566  -0.252 125.460  0.00  0.00    +0.004 C 
BRANCH  22  23
ATOM     23  C   LIG A   1      -6.806  -0.256 124.116  0.00  0.00    +0.004 C 
BRANCH  23  25
ATOM     24  C   LIG A   1      -8.058  -1.945 122.712  0.00  0.00    +0.007 C 
ATOM     25  C   LIG A   1      -6.716  -1.630 123.390  0.00  0.00    -0.011 C 
BRANCH  25  26
ATOM     26  C   LIG A   1      -6.200  -2.805 124.273  0.00  0.00    -0.014 C 
ATOM     27  C   LIG A   1      -7.267  -3.898 124.457  0.00  0.00    +0.007 C 
ATOM     28  C   LIG A   1      -4.949  -3.473 123.689  0.00  0.00    +0.007 C 
ENDBRANCH  25  26
ENDBRANCH  23  25
ENDBRANCH  22  23
ENDBRANCH  20  22
ENDBRANCH   1  20
BRANCH  10  29
ATOM     29  O   LIG A   1      -7.029  -5.513 136.503  0.00  0.00    -0.392 OA
ATOM     30  H   LIG A   1      -7.324  -4.716 136.974  0.00  0.00    +0.210 HD
ENDBRANCH  10  29
TORSDOF 6
ENDMDL
MODEL 2
REMARK VINA RESULT:      -7.9      1.026      1.359
REMARK  Name = NuBBE_2158
REMARK  12 active torsions:
REMARK  status: ('A' for Active; 'I' for Inactive)
REMARK    1  A    between atoms: C_1  and  C_2
REMARK    2  A    between atoms: C_2  and  C_4
REMARK    3  A    between atoms: C_2  and  C_7
REMARK    4  A    between atoms: C_4  and  C_5
REMARK    5  A    between atoms: C_4  and  C_6
REMARK    6  A    between atoms: C_7  and  C_8
REMARK    7  A    between atoms: C_8  and  C_9
REMARK    8  A    between atoms: C_9  and  C_11
REMARK    9  A    between atoms: C_9  and  C_12
REMARK   10  A    between atoms: C_24  and  O_26
REMARK   11  A    between atoms: C_29  and  C_30
REMARK   12  A    between atoms: C_35  and  C_36
REMARK                            x       y       z     vdW  Elec       q    Type
REMARK                         _______ _______ _______ _____ _____    ______ ____
ROOT
ATOM      1  C   LIG A   1      -6.258  -1.564 128.378  0.00  0.00    -0.002 C 
ATOM      2  C   LIG A   1      -7.334  -2.529 127.876  0.00  0.00    +0.004 C 
ATOM      3  C   LIG A   1      -7.713  -3.264 129.149  0.00  0.00    +0.004 C 
ATOM      4  C   LIG A   1      -6.358  -3.614 129.780  0.00  0.00    -0.001 C 
ATOM      5  C   LIG A   1      -6.484  -3.960 131.274  0.00  0.00    +0.000 C 
ATOM      6  C   LIG A   1      -5.458  -5.040 131.691  0.00  0.00    +0.031 C 
ATOM      7  C   LIG A   1      -5.371  -5.238 133.176  0.00  0.00    -0.027 C 
ATOM      8  C   LIG A   1      -5.912  -4.392 134.086  0.00  0.00    -0.065 C 
ATOM      9  C   LIG A   1      -6.037  -4.783 135.532  0.00  0.00    +0.062 C 
ATOM     10  C   LIG A   1      -7.522  -4.999 135.864  0.00  0.00    +0.119 C 
ATOM     11  C   LIG A   1      -8.423  -3.846 135.398  0.00  0.00    +0.032 C 
ATOM     12  C   LIG A   1      -8.130  -3.374 133.963  0.00  0.00    +0.013 C 
ATOM     13  C   LIG A   1      -6.617  -3.099 133.698  0.00  0.00    -0.008 C 
ATOM     14  C   LIG A   1      -6.172  -1.910 134.590  0.00  0.00    +0.016 C 
ATOM     15  C   LIG A   1      -6.365  -2.723 132.187  0.00  0.00    +0.003 C 
ATOM     16  C   LIG A   1      -4.992  -2.072 131.921  0.00  0.00    +0.005 C 
ATOM     17  C   LIG A   1      -4.885  -1.535 130.504  0.00  0.00    +0.007 C 
ATOM     18  C   LIG A   1      -5.385  -2.449 129.358  0.00  0.00    -0.026 C 
ATOM     19  C   LIG A   1      -4.172  -3.128 128.683  0.00  0.00    +0.012 C 
ENDROOT
BRANCH   1  20
ATOM     20  C   LIG A   1      -5.597  -0.721 127.252  0.00  0.00    -0.010 C 
ATOM     21  C   LIG A   1      -5.540   0.781 127.554  0.00  0.00    +0.008 C 
BRANCH  20  22
ATOM     22  C   LIG A   1      -6.292  -0.930 125.867  0.00  0.00    +0.004 C 
BRANCH  22  23
ATOM     23  C   LIG A   1      -5.511  -1.782 124.843  0.00  0.00    +0.004 C 
BRANCH  23  25
ATOM     24  C   LIG A   1      -6.207  -1.908 122.416  0.00  0.00    +0.007 C 
ATOM     25  C   LIG A   1      -6.373  -2.552 123.801  0.00  0.00    -0.011 C 
BRANCH  25  26
ATOM     26  C   LIG A   1      -7.868  -2.742 124.198  0.00  0.00    -0.014 C 
ATOM     27  C   LIG A   1      -8.813  -2.508 123.007  0.00  0.00    +0.007 C 
ATOM     28  C   LIG A   1      -8.155  -4.144 124.750  0.00  0.00    +0.007 C 
ENDBRANCH  25  26
ENDBRANCH  23  25
ENDBRANCH  22  23
ENDBRANCH  20  22
ENDBRANCH   1  20
BRANCH  10  29
ATOM     29  O   LIG A   1      -7.689  -5.158 137.273  0.00  0.00    -0.392 OA
ATOM     30  H   LIG A   1      -6.953  -5.706 137.593  0.00  0.00    +0.210 HD
ENDBRANCH  10  29
TORSDOF 6
ENDMDL
MODEL 3
REMARK VINA RESULT:      -7.6      3.779      5.595
REMARK  Name = NuBBE_2158
REMARK  12 active torsions:
REMARK  status: ('A' for Active; 'I' for Inactive)
REMARK    1  A    between atoms: C_1  and  C_2
REMARK    2  A    between atoms: C_2  and  C_4
REMARK    3  A    between atoms: C_2  and  C_7
REMARK    4  A    between atoms: C_4  and  C_5
REMARK    5  A    between atoms: C_4  and  C_6
REMARK    6  A    between atoms: C_7  and  C_8
REMARK    7  A    between atoms: C_8  and  C_9
REMARK    8  A    between atoms: C_9  and  C_11
REMARK    9  A    between atoms: C_9  and  C_12
REMARK   10  A    between atoms: C_24  and  O_26
REMARK   11  A    between atoms: C_29  and  C_30
REMARK   12  A    between atoms: C_35  and  C_36
REMARK                            x       y       z     vdW  Elec       q    Type
REMARK                         _______ _______ _______ _____ _____    ______ ____
ROOT
ATOM      1  C   LIG A   1      -8.209  -1.576 127.576  0.00  0.00    -0.002 C 
ATOM      2  C   LIG A   1      -7.612  -2.524 128.618  0.00  0.00    +0.004 C 
ATOM      3  C   LIG A   1      -7.541  -1.633 129.846  0.00  0.00    +0.004 C 
ATOM      4  C   LIG A   1      -6.938  -0.327 129.309  0.00  0.00    -0.001 C 
ATOM      5  C   LIG A   1      -7.182   0.859 130.259  0.00  0.00    +0.000 C 
ATOM      6  C   LIG A   1      -6.001   1.858 130.229  0.00  0.00    +0.031 C 
ATOM      7  C   LIG A   1      -6.290   3.144 130.943  0.00  0.00    -0.027 C 
ATOM      8  C   LIG A   1      -7.528   3.530 131.339  0.00  0.00    -0.065 C 
ATOM      9  C   LIG A   1      -7.716   4.680 132.288  0.00  0.00    +0.062 C 
ATOM     10  C   LIG A   1      -8.197   4.136 133.643  0.00  0.00    +0.119 C 
ATOM     11  C   LIG A   1      -9.379   3.163 133.522  0.00  0.00    +0.032 C 
ATOM     12  C   LIG A   1      -9.200   2.110 132.414  0.00  0.00    +0.013 C 
ATOM     13  C   LIG A   1      -8.782   2.720 131.040  0.00  0.00    -0.008 C 
ATOM     14  C   LIG A   1      -9.940   3.618 130.531  0.00  0.00    +0.016 C 
ATOM     15  C   LIG A   1      -8.511   1.588 129.976  0.00  0.00    +0.003 C 
ATOM     16  C   LIG A   1      -8.470   2.093 128.518  0.00  0.00    +0.005 C 
ATOM     17  C   LIG A   1      -8.424   0.945 127.523  0.00  0.00    +0.007 C 
ATOM     18  C   LIG A   1      -7.441  -0.214 127.820  0.00  0.00    -0.026 C 
ATOM     19  C   LIG A   1      -6.174  -0.040 126.953  0.00  0.00    +0.012 C 
ENDROOT
BRANCH   1  20
ATOM     20  C   LIG A   1      -8.316  -2.195 126.155  0.00  0.00    -0.010 C 
ATOM     21  C   LIG A   1      -9.659  -2.882 125.877  0.00  0.00    +0.008 C 
BRANCH  20  22
ATOM     22  C   LIG A   1      -7.162  -3.207 125.858  0.00  0.00    +0.004 C 
BRANCH  22  23
ATOM     23  C   LIG A   1      -7.058  -3.701 124.398  0.00  0.00    +0.004 C 
BRANCH  23  25
ATOM     24  C   LIG A   1      -4.975  -2.276 124.240  0.00  0.00    +0.007 C 
ATOM     25  C   LIG A   1      -6.165  -2.845 123.453  0.00  0.00    -0.011 C 
BRANCH  25  26
ATOM     26  C   LIG A   1      -6.927  -1.753 122.644  0.00  0.00    -0.014 C 
ATOM     27  C   LIG A   1      -8.403  -2.125 122.423  0.00  0.00    +0.007 C 
ATOM     28  C   LIG A   1      -6.892  -0.382 123.331  0.00  0.00    +0.007 C 
ENDBRANCH  25  26
ENDBRANCH  23  25
ENDBRANCH  22  23
ENDBRANCH  20  22
ENDBRANCH   1  20
BRANCH  10  29
ATOM     29  O   LIG A   1      -8.590   5.216 134.490  0.00  0.00    -0.392 OA
ATOM     30  H   LIG A   1      -8.197   6.027 134.130  0.00  0.00    +0.210 HD
ENDBRANCH  10  29
TORSDOF 6
ENDMDL
MODEL 4
REMARK VINA RESULT:      -7.6      5.786      8.071
REMARK  Name = NuBBE_2158
REMARK  12 active torsions:
REMARK  status: ('A' for Active; 'I' for Inactive)
REMARK    1  A    between atoms: C_1  and  C_2
REMARK    2  A    between atoms: C_2  and  C_4
REMARK    3  A    between atoms: C_2  and  C_7
REMARK    4  A    between atoms: C_4  and  C_5
REMARK    5  A    between atoms: C_4  and  C_6
REMARK    6  A    between atoms: C_7  and  C_8
REMARK    7  A    between atoms: C_8  and  C_9
REMARK    8  A    between atoms: C_9  and  C_11
REMARK    9  A    between atoms: C_9  and  C_12
REMARK   10  A    between atoms: C_24  and  O_26
REMARK   11  A    between atoms: C_29  and  C_30
REMARK   12  A    between atoms: C_35  and  C_36
REMARK                            x       y       z     vdW  Elec       q    Type
REMARK                         _______ _______ _______ _____ _____    ______ ____
ROOT
ATOM      1  C   LIG A   1      -6.382   3.010 125.583  0.00  0.00    -0.002 C 
ATOM      2  C   LIG A   1      -7.663   3.062 126.419  0.00  0.00    +0.004 C 
ATOM      3  C   LIG A   1      -7.217   3.872 127.624  0.00  0.00    +0.004 C 
ATOM      4  C   LIG A   1      -5.872   3.238 128.005  0.00  0.00    -0.001 C 
ATOM      5  C   LIG A   1      -5.028   4.161 128.904  0.00  0.00    +0.000 C 
ATOM      6  C   LIG A   1      -4.188   3.348 129.916  0.00  0.00    +0.031 C 
ATOM      7  C   LIG A   1      -3.172   4.175 130.647  0.00  0.00    -0.027 C 
ATOM      8  C   LIG A   1      -2.816   5.431 130.286  0.00  0.00    -0.065 C 
ATOM      9  C   LIG A   1      -2.013   6.306 131.207  0.00  0.00    +0.062 C 
ATOM     10  C   LIG A   1      -2.909   7.442 131.725  0.00  0.00    +0.119 C 
ATOM     11  C   LIG A   1      -3.678   8.167 130.611  0.00  0.00    +0.032 C 
ATOM     12  C   LIG A   1      -4.338   7.215 129.598  0.00  0.00    +0.013 C 
ATOM     13  C   LIG A   1      -3.367   6.125 129.047  0.00  0.00    -0.008 C 
ATOM     14  C   LIG A   1      -2.249   6.830 128.235  0.00  0.00    +0.016 C 
ATOM     15  C   LIG A   1      -4.125   5.117 128.099  0.00  0.00    +0.003 C 
ATOM     16  C   LIG A   1      -3.192   4.256 127.222  0.00  0.00    +0.005 C 
ATOM     17  C   LIG A   1      -3.965   3.465 126.180  0.00  0.00    +0.007 C 
ATOM     18  C   LIG A   1      -5.246   2.733 126.650  0.00  0.00    -0.026 C 
ATOM     19  C   LIG A   1      -4.928   1.235 126.858  0.00  0.00    +0.012 C 
ENDROOT
BRANCH   1  20
ATOM     20  C   LIG A   1      -6.507   2.144 124.299  0.00  0.00    -0.010 C 
ATOM     21  C   LIG A   1      -6.564   2.963 123.003  0.00  0.00    +0.008 C 
BRANCH  20  22
ATOM     22  C   LIG A   1      -7.742   1.186 124.345  0.00  0.00    +0.004 C 
BRANCH  22  23
ATOM     23  C   LIG A   1      -7.467  -0.243 124.860  0.00  0.00    +0.004 C 
BRANCH  23  25
ATOM     24  C   LIG A   1      -7.913  -1.585 122.765  0.00  0.00    +0.007 C 
ATOM     25  C   LIG A   1      -6.859  -1.234 123.826  0.00  0.00    -0.011 C 
BRANCH  25  26
ATOM     26  C   LIG A   1      -6.187  -2.496 124.444  0.00  0.00    -0.014 C 
ATOM     27  C   LIG A   1      -4.977  -2.966 123.618  0.00  0.00    +0.007 C 
ATOM     28  C   LIG A   1      -5.704  -2.260 125.881  0.00  0.00    +0.007 C 
ENDBRANCH  25  26
ENDBRANCH  23  25
ENDBRANCH  22  23
ENDBRANCH  20  22
ENDBRANCH   1  20
BRANCH  10  29
ATOM     29  O   LIG A   1      -2.121   8.405 132.425  0.00  0.00    -0.392 OA
ATOM     30  H   LIG A   1      -1.895   8.023 133.290  0.00  0.00    +0.210 HD
ENDBRANCH  10  29
TORSDOF 6
ENDMDL
MODEL 5
REMARK VINA RESULT:      -7.4      3.035      8.124
REMARK  Name = NuBBE_2158
REMARK  12 active torsions:
REMARK  status: ('A' for Active; 'I' for Inactive)
REMARK    1  A    between atoms: C_1  and  C_2
REMARK    2  A    between atoms: C_2  and  C_4
REMARK    3  A    between atoms: C_2  and  C_7
REMARK    4  A    between atoms: C_4  and  C_5
REMARK    5  A    between atoms: C_4  and  C_6
REMARK    6  A    between atoms: C_7  and  C_8
REMARK    7  A    between atoms: C_8  and  C_9
REMARK    8  A    between atoms: C_9  and  C_11
REMARK    9  A    between atoms: C_9  and  C_12
REMARK   10  A    between atoms: C_24  and  O_26
REMARK   11  A    between atoms: C_29  and  C_30
REMARK   12  A    between atoms: C_35  and  C_36
REMARK                            x       y       z     vdW  Elec       q    Type
REMARK                         _______ _______ _______ _____ _____    ______ ____
ROOT
ATOM      1  C   LIG A   1      -4.761  -2.117 131.630  0.00  0.00    -0.002 C 
ATOM      2  C   LIG A   1      -4.038  -3.436 131.347  0.00  0.00    +0.004 C 
ATOM      3  C   LIG A   1      -4.612  -3.822 129.995  0.00  0.00    +0.004 C 
ATOM      4  C   LIG A   1      -6.121  -3.596 130.166  0.00  0.00    -0.001 C 
ATOM      5  C   LIG A   1      -6.850  -3.492 128.814  0.00  0.00    +0.000 C 
ATOM      6  C   LIG A   1      -8.276  -4.085 128.896  0.00  0.00    +0.031 C 
ATOM      7  C   LIG A   1      -9.114  -3.793 127.687  0.00  0.00    -0.027 C 
ATOM      8  C   LIG A   1      -8.783  -2.883 126.738  0.00  0.00    -0.065 C 
ATOM      9  C   LIG A   1      -9.508  -2.834 125.422  0.00  0.00    +0.062 C 
ATOM     10  C   LIG A   1      -8.562  -3.321 124.313  0.00  0.00    +0.119 C 
ATOM     11  C   LIG A   1      -7.184  -2.643 124.348  0.00  0.00    +0.032 C 
ATOM     12  C   LIG A   1      -6.568  -2.570 125.756  0.00  0.00    +0.013 C 
ATOM     13  C   LIG A   1      -7.545  -2.001 126.832  0.00  0.00    -0.008 C 
ATOM     14  C   LIG A   1      -7.860  -0.525 126.475  0.00  0.00    +0.016 C 
ATOM     15  C   LIG A   1      -6.896  -2.050 128.269  0.00  0.00    +0.003 C 
ATOM     16  C   LIG A   1      -7.618  -1.175 129.315  0.00  0.00    +0.005 C 
ATOM     17  C   LIG A   1      -6.836  -1.085 130.614  0.00  0.00    +0.007 C 
ATOM     18  C   LIG A   1      -6.253  -2.402 131.185  0.00  0.00    -0.026 C 
ATOM     19  C   LIG A   1      -7.165  -2.910 132.324  0.00  0.00    +0.012 C 
ENDROOT
BRANCH   1  20
ATOM     20  C   LIG A   1      -4.439  -1.515 133.026  0.00  0.00    -0.010 C 
ATOM     21  C   LIG A   1      -4.227   0.005 133.011  0.00  0.00    +0.008 C 
BRANCH  20  22
ATOM     22  C   LIG A   1      -3.198  -2.190 133.694  0.00  0.00    +0.004 C 
BRANCH  22  23
ATOM     23  C   LIG A   1      -3.496  -3.098 134.907  0.00  0.00    +0.004 C 
BRANCH  23  25
ATOM     24  C   LIG A   1      -5.652  -3.002 136.224  0.00  0.00    +0.007 C 
ATOM     25  C   LIG A   1      -4.953  -3.635 135.012  0.00  0.00    -0.011 C 
BRANCH  25  26
ATOM     26  C   LIG A   1      -5.084  -5.187 134.988  0.00  0.00    -0.014 C 
ATOM     27  C   LIG A   1      -6.537  -5.639 134.762  0.00  0.00    +0.007 C 
ATOM     28  C   LIG A   1      -4.222  -5.832 133.895  0.00  0.00    +0.007 C 
ENDBRANCH  25  26
ENDBRANCH  23  25
ENDBRANCH  22  23
ENDBRANCH  20  22
ENDBRANCH   1  20
BRANCH  10  29
ATOM     29  O   LIG A   1      -9.147  -3.083 123.033  0.00  0.00    -0.392 OA
ATOM     30  H   LIG A   1      -9.234  -3.942 122.588  0.00  0.00    +0.210 HD
ENDBRANCH  10  29
TORSDOF 6
ENDMDL
MODEL 6
REMARK VINA RESULT:      -7.3      1.974      3.545
REMARK  Name = NuBBE_2158
REMARK  12 active torsions:
REMARK  status: ('A' for Active; 'I' for Inactive)
REMARK    1  A    between atoms: C_1  and  C_2
REMARK    2  A    between atoms: C_2  and  C_4
REMARK    3  A    between atoms: C_2  and  C_7
REMARK    4  A    between atoms: C_4  and  C_5
REMARK    5  A    between atoms: C_4  and  C_6
REMARK    6  A    between atoms: C_7  and  C_8
REMARK    7  A    between atoms: C_8  and  C_9
REMARK    8  A    between atoms: C_9  and  C_11
REMARK    9  A    between atoms: C_9  and  C_12
REMARK   10  A    between atoms: C_24  and  O_26
REMARK   11  A    between atoms: C_29  and  C_30
REMARK   12  A    between atoms: C_35  and  C_36
REMARK                            x       y       z     vdW  Elec       q    Type
REMARK                         _______ _______ _______ _____ _____    ______ ____
ROOT
ATOM      1  C   LIG A   1      -7.011  -2.898 128.777  0.00  0.00    -0.002 C 
ATOM      2  C   LIG A   1      -5.727  -2.504 128.043  0.00  0.00    +0.004 C 
ATOM      3  C   LIG A   1      -4.680  -2.679 129.130  0.00  0.00    +0.004 C 
ATOM      4  C   LIG A   1      -5.312  -1.995 130.351  0.00  0.00    -0.001 C 
ATOM      5  C   LIG A   1      -4.645  -2.428 131.669  0.00  0.00    +0.000 C 
ATOM      6  C   LIG A   1      -4.625  -1.272 132.697  0.00  0.00    +0.031 C 
ATOM      7  C   LIG A   1      -4.211  -1.704 134.072  0.00  0.00    -0.027 C 
ATOM      8  C   LIG A   1      -4.127  -2.998 134.466  0.00  0.00    -0.065 C 
ATOM      9  C   LIG A   1      -3.444  -3.376 135.751  0.00  0.00    +0.062 C 
ATOM     10  C   LIG A   1      -2.131  -4.104 135.423  0.00  0.00    +0.119 C 
ATOM     11  C   LIG A   1      -2.301  -5.232 134.394  0.00  0.00    +0.032 C 
ATOM     12  C   LIG A   1      -3.157  -4.834 133.179  0.00  0.00    +0.013 C 
ATOM     13  C   LIG A   1      -4.512  -4.165 133.567  0.00  0.00    -0.008 C 
ATOM     14  C   LIG A   1      -5.377  -5.212 134.317  0.00  0.00    +0.016 C 
ATOM     15  C   LIG A   1      -5.295  -3.684 132.284  0.00  0.00    +0.003 C 
ATOM     16  C   LIG A   1      -6.783  -3.368 132.538  0.00  0.00    +0.005 C 
ATOM     17  C   LIG A   1      -7.538  -3.121 131.242  0.00  0.00    +0.007 C 
ATOM     18  C   LIG A   1      -6.865  -2.203 130.192  0.00  0.00    -0.026 C 
ATOM     19  C   LIG A   1      -7.496  -0.795 130.270  0.00  0.00    +0.012 C 
ENDROOT
BRANCH   1  20
ATOM     20  C   LIG A   1      -8.298  -2.724 127.924  0.00  0.00    -0.010 C 
ATOM     21  C   LIG A   1      -9.125  -4.008 127.781  0.00  0.00    +0.008 C 
BRANCH  20  22
ATOM     22  C   LIG A   1      -7.995  -2.159 126.498  0.00  0.00    +0.004 C 
BRANCH  22  23
ATOM     23  C   LIG A   1      -9.022  -2.514 125.401  0.00  0.00    +0.004 C 
BRANCH  23  25
ATOM     24  C   LIG A   1      -7.130  -3.900 124.454  0.00  0.00    +0.007 C 
ATOM     25  C   LIG A   1      -8.443  -3.177 124.117  0.00  0.00    -0.011 C 
BRANCH  25  26
ATOM     26  C   LIG A   1      -8.304  -2.223 122.893  0.00  0.00    -0.014 C 
ATOM     27  C   LIG A   1      -9.111  -0.926 123.079  0.00  0.00    +0.007 C 
ATOM     28  C   LIG A   1      -6.848  -1.828 122.618  0.00  0.00    +0.007 C 
ENDBRANCH  25  26
ENDBRANCH  23  25
ENDBRANCH  22  23
ENDBRANCH  20  22
ENDBRANCH   1  20
BRANCH  10  29
ATOM     29  O   LIG A   1      -1.572  -4.662 136.612  0.00  0.00    -0.392 OA
ATOM     30  H   LIG A   1      -2.288  -5.119 137.084  0.00  0.00    +0.210 HD
ENDBRANCH  10  29
TORSDOF 6
ENDMDL
MODEL 7
REMARK VINA RESULT:      -7.3      6.697      9.232
REMARK  Name = NuBBE_2158
REMARK  12 active torsions:
REMARK  status: ('A' for Active; 'I' for Inactive)
REMARK    1  A    between atoms: C_1  and  C_2
REMARK    2  A    between atoms: C_2  and  C_4
REMARK    3  A    between atoms: C_2  and  C_7
REMARK    4  A    between atoms: C_4  and  C_5
REMARK    5  A    between atoms: C_4  and  C_6
REMARK    6  A    between atoms: C_7  and  C_8
REMARK    7  A    between atoms: C_8  and  C_9
REMARK    8  A    between atoms: C_9  and  C_11
REMARK    9  A    between atoms: C_9  and  C_12
REMARK   10  A    between atoms: C_24  and  O_26
REMARK   11  A    between atoms: C_29  and  C_30
REMARK   12  A    between atoms: C_35  and  C_36
REMARK                            x       y       z     vdW  Elec       q    Type
REMARK                         _______ _______ _______ _____ _____    ______ ____
ROOT
ATOM      1  C   LIG A   1      -4.248   2.514 128.323  0.00  0.00    -0.002 C 
ATOM      2  C   LIG A   1      -3.374   3.055 127.189  0.00  0.00    +0.004 C 
ATOM      3  C   LIG A   1      -2.649   4.200 127.875  0.00  0.00    +0.004 C 
ATOM      4  C   LIG A   1      -3.765   4.932 128.632  0.00  0.00    -0.001 C 
ATOM      5  C   LIG A   1      -3.213   5.845 129.742  0.00  0.00    +0.000 C 
ATOM      6  C   LIG A   1      -4.084   7.111 129.916  0.00  0.00    +0.031 C 
ATOM      7  C   LIG A   1      -3.737   7.910 131.137  0.00  0.00    -0.027 C 
ATOM      8  C   LIG A   1      -2.947   7.456 132.140  0.00  0.00    -0.065 C 
ATOM      9  C   LIG A   1      -2.410   8.389 133.189  0.00  0.00    +0.062 C 
ATOM     10  C   LIG A   1      -0.895   8.550 132.987  0.00  0.00    +0.119 C 
ATOM     11  C   LIG A   1      -0.157   7.212 132.836  0.00  0.00    +0.032 C 
ATOM     12  C   LIG A   1      -0.851   6.230 131.876  0.00  0.00    +0.013 C 
ATOM     13  C   LIG A   1      -2.372   6.046 132.168  0.00  0.00    -0.008 C 
ATOM     14  C   LIG A   1      -2.526   5.389 133.565  0.00  0.00    +0.016 C 
ATOM     15  C   LIG A   1      -3.049   5.114 131.090  0.00  0.00    +0.003 C 
ATOM     16  C   LIG A   1      -4.434   4.576 131.505  0.00  0.00    +0.005 C 
ATOM     17  C   LIG A   1      -4.943   3.520 130.539  0.00  0.00    +0.007 C 
ATOM     18  C   LIG A   1      -4.807   3.818 129.025  0.00  0.00    -0.026 C 
ATOM     19  C   LIG A   1      -6.170   4.294 128.476  0.00  0.00    +0.012 C 
ENDROOT
BRANCH   1  20
ATOM     20  C   LIG A   1      -5.199   1.365 127.886  0.00  0.00    -0.010 C 
ATOM     21  C   LIG A   1      -5.203   0.166 128.842  0.00  0.00    +0.008 C 
BRANCH  20  22
ATOM     22  C   LIG A   1      -4.893   0.856 126.439  0.00  0.00    +0.004 C 
BRANCH  22  23
ATOM     23  C   LIG A   1      -5.990   1.121 125.386  0.00  0.00    +0.004 C 
BRANCH  23  25
ATOM     24  C   LIG A   1      -8.082   2.507 125.080  0.00  0.00    +0.007 C 
ATOM     25  C   LIG A   1      -6.573   2.563 125.359  0.00  0.00    -0.011 C 
BRANCH  25  26
ATOM     26  C   LIG A   1      -5.826   3.555 124.416  0.00  0.00    -0.014 C 
ATOM     27  C   LIG A   1      -6.416   3.552 122.995  0.00  0.00    +0.007 C 
ATOM     28  C   LIG A   1      -5.866   4.999 124.933  0.00  0.00    +0.007 C 
ENDBRANCH  25  26
ENDBRANCH  23  25
ENDBRANCH  22  23
ENDBRANCH  20  22
ENDBRANCH   1  20
BRANCH  10  29
ATOM     29  O   LIG A   1      -0.327   9.254 134.091  0.00  0.00    -0.392 OA
ATOM     30  H   LIG A   1      -0.654  10.168 134.054  0.00  0.00    +0.210 HD
ENDBRANCH  10  29
TORSDOF 6
ENDMDL
MODEL 8
REMARK VINA RESULT:      -7.2      6.181      8.558
REMARK  Name = NuBBE_2158
REMARK  12 active torsions:
REMARK  status: ('A' for Active; 'I' for Inactive)
REMARK    1  A    between atoms: C_1  and  C_2
REMARK    2  A    between atoms: C_2  and  C_4
REMARK    3  A    between atoms: C_2  and  C_7
REMARK    4  A    between atoms: C_4  and  C_5
REMARK    5  A    between atoms: C_4  and  C_6
REMARK    6  A    between atoms: C_7  and  C_8
REMARK    7  A    between atoms: C_8  and  C_9
REMARK    8  A    between atoms: C_9  and  C_11
REMARK    9  A    between atoms: C_9  and  C_12
REMARK   10  A    between atoms: C_24  and  O_26
REMARK   11  A    between atoms: C_29  and  C_30
REMARK   12  A    between atoms: C_35  and  C_36
REMARK                            x       y       z     vdW  Elec       q    Type
REMARK                         _______ _______ _______ _____ _____    ______ ____
ROOT
ATOM      1  C   LIG A   1      -6.447   2.106 129.969  0.00  0.00    -0.002 C 
ATOM      2  C   LIG A   1      -7.222   2.266 131.279  0.00  0.00    +0.004 C 
ATOM      3  C   LIG A   1      -6.420   3.344 131.986  0.00  0.00    +0.004 C 
ATOM      4  C   LIG A   1      -4.965   2.888 131.805  0.00  0.00    -0.001 C 
ATOM      5  C   LIG A   1      -3.963   4.032 132.043  0.00  0.00    +0.000 C 
ATOM      6  C   LIG A   1      -2.651   3.510 132.674  0.00  0.00    +0.031 C 
ATOM      7  C   LIG A   1      -1.555   4.533 132.703  0.00  0.00    -0.027 C 
ATOM      8  C   LIG A   1      -1.589   5.699 132.013  0.00  0.00    -0.065 C 
ATOM      9  C   LIG A   1      -0.604   6.799 132.297  0.00  0.00    +0.062 C 
ATOM     10  C   LIG A   1      -1.341   7.967 132.971  0.00  0.00    +0.119 C 
ATOM     11  C   LIG A   1      -2.622   8.385 132.232  0.00  0.00    +0.032 C 
ATOM     12  C   LIG A   1      -3.508   7.198 131.815  0.00  0.00    +0.013 C 
ATOM     13  C   LIG A   1      -2.726   6.072 131.071  0.00  0.00    -0.008 C 
ATOM     14  C   LIG A   1      -2.199   6.646 129.729  0.00  0.00    +0.016 C 
ATOM     15  C   LIG A   1      -3.662   4.839 130.764  0.00  0.00    +0.003 C 
ATOM     16  C   LIG A   1      -3.091   3.862 129.715  0.00  0.00    +0.005 C 
ATOM     17  C   LIG A   1      -4.114   2.819 129.297  0.00  0.00    +0.007 C 
ATOM     18  C   LIG A   1      -4.931   2.135 130.421  0.00  0.00    -0.026 C 
ATOM     19  C   LIG A   1      -4.331   0.740 130.708  0.00  0.00    +0.012 C 
ENDROOT
BRANCH   1  20
ATOM     20  C   LIG A   1      -6.992   0.974 129.054  0.00  0.00    -0.010 C 
ATOM     21  C   LIG A   1      -7.425   1.456 127.663  0.00  0.00    +0.008 C 
BRANCH  20  22
ATOM     22  C   LIG A   1      -8.179   0.197 129.710  0.00  0.00    +0.004 C 
BRANCH  22  23
ATOM     23  C   LIG A   1      -7.818  -1.152 130.370  0.00  0.00    +0.004 C 
BRANCH  23  25
ATOM     24  C   LIG A   1      -8.268  -3.314 129.139  0.00  0.00    +0.007 C 
ATOM     25  C   LIG A   1      -7.217  -2.231 129.424  0.00  0.00    -0.011 C 
BRANCH  25  26
ATOM     26  C   LIG A   1      -5.855  -2.827 129.891  0.00  0.00    -0.014 C 
ATOM     27  C   LIG A   1      -5.973  -4.316 130.256  0.00  0.00    +0.007 C 
ATOM     28  C   LIG A   1      -4.759  -2.696 128.825  0.00  0.00    +0.007 C 
ENDBRANCH  25  26
ENDBRANCH  23  25
ENDBRANCH  22  23
ENDBRANCH  20  22
ENDBRANCH   1  20
BRANCH  10  29
ATOM     29  O   LIG A   1      -0.481   9.103 133.055  0.00  0.00    -0.392 OA
ATOM     30  H   LIG A   1       0.156   8.934 133.768  0.00  0.00    +0.210 HD
ENDBRANCH  10  29
TORSDOF 6
ENDMDL
MODEL 9
REMARK VINA RESULT:      -7.2      9.271     12.441
REMARK  Name = NuBBE_2158
REMARK  12 active torsions:
REMARK  status: ('A' for Active; 'I' for Inactive)
REMARK    1  A    between atoms: C_1  and  C_2
REMARK    2  A    between atoms: C_2  and  C_4
REMARK    3  A    between atoms: C_2  and  C_7
REMARK    4  A    between atoms: C_4  and  C_5
REMARK    5  A    between atoms: C_4  and  C_6
REMARK    6  A    between atoms: C_7  and  C_8
REMARK    7  A    between atoms: C_8  and  C_9
REMARK    8  A    between atoms: C_9  and  C_11
REMARK    9  A    between atoms: C_9  and  C_12
REMARK   10  A    between atoms: C_24  and  O_26
REMARK   11  A    between atoms: C_29  and  C_30
REMARK   12  A    between atoms: C_35  and  C_36
REMARK                            x       y       z     vdW  Elec       q    Type
REMARK                         _______ _______ _______ _____ _____    ______ ____
ROOT
ATOM      1  C   LIG A   1      -2.732   7.304 132.982  0.00  0.00    -0.002 C 
ATOM      2  C   LIG A   1      -2.399   7.903 131.614  0.00  0.00    +0.004 C 
ATOM      3  C   LIG A   1      -3.692   7.678 130.851  0.00  0.00    +0.004 C 
ATOM      4  C   LIG A   1      -4.054   6.221 131.176  0.00  0.00    -0.001 C 
ATOM      5  C   LIG A   1      -5.533   5.910 130.885  0.00  0.00    +0.000 C 
ATOM      6  C   LIG A   1      -5.718   4.453 130.402  0.00  0.00    +0.031 C 
ATOM      7  C   LIG A   1      -7.153   4.023 130.338  0.00  0.00    -0.027 C 
ATOM      8  C   LIG A   1      -8.176   4.715 130.897  0.00  0.00    -0.065 C 
ATOM      9  C   LIG A   1      -9.606   4.391 130.564  0.00  0.00    +0.062 C 
ATOM     10  C   LIG A   1     -10.194   5.535 129.722  0.00  0.00    +0.119 C 
ATOM     11  C   LIG A   1      -9.942   6.925 130.325  0.00  0.00    +0.032 C 
ATOM     12  C   LIG A   1      -8.495   7.135 130.806  0.00  0.00    +0.013 C 
ATOM     13  C   LIG A   1      -7.970   5.982 131.716  0.00  0.00    -0.008 C 
ATOM     14  C   LIG A   1      -8.808   5.968 133.021  0.00  0.00    +0.016 C 
ATOM     15  C   LIG A   1      -6.452   6.199 132.089  0.00  0.00    +0.003 C 
ATOM     16  C   LIG A   1      -5.966   5.336 133.271  0.00  0.00    +0.005 C 
ATOM     17  C   LIG A   1      -4.573   5.736 133.728  0.00  0.00    +0.007 C 
ATOM     18  C   LIG A   1      -3.505   5.968 132.631  0.00  0.00    -0.026 C 
ATOM     19  C   LIG A   1      -2.597   4.721 132.535  0.00  0.00    +0.012 C 
ENDROOT
BRANCH   1  20
ATOM     20  C   LIG A   1      -1.536   7.305 133.974  0.00  0.00    -0.010 C 
ATOM     21  C   LIG A   1      -1.891   7.821 135.374  0.00  0.00    +0.008 C 
BRANCH  20  22
ATOM     22  C   LIG A   1      -0.314   8.117 133.432  0.00  0.00    +0.004 C 
BRANCH  22  23
ATOM     23  C   LIG A   1       0.233   9.215 134.370  0.00  0.00    +0.004 C 
BRANCH  23  25
ATOM     24  C   LIG A   1       0.162  11.631 135.111  0.00  0.00    +0.007 C 
ATOM     25  C   LIG A   1      -0.015  10.682 133.916  0.00  0.00    -0.011 C 
BRANCH  25  26
ATOM     26  C   LIG A   1      -1.356  10.916 133.158  0.00  0.00    -0.014 C 
ATOM     27  C   LIG A   1      -2.507  11.259 134.119  0.00  0.00    +0.007 C 
ATOM     28  C   LIG A   1      -1.259  12.049 132.128  0.00  0.00    +0.007 C 
ENDBRANCH  25  26
ENDBRANCH  23  25
ENDBRANCH  22  23
ENDBRANCH  20  22
ENDBRANCH   1  20
BRANCH  10  29
ATOM     29  O   LIG A   1     -11.603   5.359 129.576  0.00  0.00    -0.392 OA
ATOM     30  H   LIG A   1     -11.742   4.636 128.942  0.00  0.00    +0.210 HD
ENDBRANCH  10  29
TORSDOF 6
ENDMDL
