MODEL 1
REMARK VINA RESULT:      -7.4      0.000      0.000
REMARK  Name = NuBBE_553
REMARK  3 active torsions:
REMARK  status: ('A' for Active; 'I' for Inactive)
REMARK    1  A    between atoms: C_1  and  C_2
REMARK    2  A    between atoms: C_6  and  C_7
REMARK    3  A    between atoms: C_13  and  C_14
REMARK                            x       y       z     vdW  Elec       q    Type
REMARK                         _______ _______ _______ _____ _____    ______ ____
ROOT
ATOM      1  C   LIG A   1      -9.504  -3.293 123.607  0.00  0.00    +0.021 C 
ATOM      2  C   LIG A   1      -8.642  -2.516 124.681  0.00  0.00    +0.021 C 
ATOM      3  C   LIG A   1      -7.096  -2.757 124.845  0.00  0.00    +0.009 C 
ATOM      4  C   LIG A   1      -6.488  -2.297 126.164  0.00  0.00    +0.194 C 
ATOM      5  C   LIG A   1      -7.235  -2.724 127.304  0.00  0.00    +0.066 A 
ATOM      6  C   LIG A   1      -6.941  -2.834 128.692  0.00  0.00    -0.002 A 
ATOM      7  C   LIG A   1      -5.726  -2.381 129.412  0.00  0.00    +0.048 C 
ATOM      8  C   LIG A   1      -8.037  -3.479 129.237  0.00  0.00    +0.199 A 
ATOM      9  O   LIG A   1      -9.041  -3.583 128.323  0.00  0.00    -0.467 OA
ATOM     10  C   LIG A   1      -8.557  -3.047 127.177  0.00  0.00    +0.117 A 
ATOM     11  C   LIG A   1      -9.419  -2.933 125.990  0.00  0.00    +0.090 C 
ATOM     12  O   LIG A   1      -5.511  -1.544 126.257  0.00  0.00    -0.287 OA
ATOM     13  C   LIG A   1      -6.278  -2.700 123.760  0.00  0.00    -0.061 C 
ATOM     14  C   LIG A   1      -4.771  -2.732 123.751  0.00  0.00    +0.040 C 
ATOM     15  C   LIG A   1      -6.926  -2.128 122.515  0.00  0.00    +0.057 C 
ATOM     16  C   LIG A   1      -7.835  -0.962 122.959  0.00  0.00    -0.026 C 
ATOM     17  C   LIG A   1      -8.639  -1.109 124.051  0.00  0.00    -0.019 C 
ENDROOT
TORSDOF 0
ENDMDL
MODEL 2
REMARK VINA RESULT:      -7.4     10.462     11.586
REMARK  Name = NuBBE_553
REMARK  3 active torsions:
REMARK  status: ('A' for Active; 'I' for Inactive)
REMARK    1  A    between atoms: C_1  and  C_2
REMARK    2  A    between atoms: C_6  and  C_7
REMARK    3  A    between atoms: C_13  and  C_14
REMARK                            x       y       z     vdW  Elec       q    Type
REMARK                         _______ _______ _______ _____ _____    ______ ____
ROOT
ATOM      1  C   LIG A   1     -11.236   8.050 126.589  0.00  0.00    +0.021 C 
ATOM      2  C   LIG A   1     -11.459   7.322 127.975  0.00  0.00    +0.021 C 
ATOM      3  C   LIG A   1     -11.700   8.122 129.309  0.00  0.00    +0.009 C 
ATOM      4  C   LIG A   1     -11.461   7.348 130.600  0.00  0.00    +0.194 C 
ATOM      5  C   LIG A   1     -10.225   6.634 130.603  0.00  0.00    +0.066 A 
ATOM      6  C   LIG A   1      -9.421   6.057 131.626  0.00  0.00    -0.002 A 
ATOM      7  C   LIG A   1      -9.733   5.916 133.069  0.00  0.00    +0.048 C 
ATOM      8  C   LIG A   1      -8.260   5.662 130.985  0.00  0.00    +0.199 A 
ATOM      9  O   LIG A   1      -8.389   5.778 129.634  0.00  0.00    -0.467 OA
ATOM     10  C   LIG A   1      -9.621   6.299 129.422  0.00  0.00    +0.117 A 
ATOM     11  C   LIG A   1     -10.120   6.490 128.052  0.00  0.00    +0.090 C 
ATOM     12  O   LIG A   1     -12.284   7.251 131.517  0.00  0.00    -0.287 OA
ATOM     13  C   LIG A   1     -12.656   9.088 129.362  0.00  0.00    -0.061 C 
ATOM     14  C   LIG A   1     -13.140   9.826 130.583  0.00  0.00    +0.040 C 
ATOM     15  C   LIG A   1     -13.597   9.105 128.172  0.00  0.00    +0.057 C 
ATOM     16  C   LIG A   1     -13.887   7.639 127.789  0.00  0.00    -0.026 C 
ATOM     17  C   LIG A   1     -12.866   6.737 127.744  0.00  0.00    -0.019 C 
ENDROOT
TORSDOF 0
ENDMDL
MODEL 3
REMARK VINA RESULT:      -7.1     10.611     11.482
REMARK  Name = NuBBE_553
REMARK  3 active torsions:
REMARK  status: ('A' for Active; 'I' for Inactive)
REMARK    1  A    between atoms: C_1  and  C_2
REMARK    2  A    between atoms: C_6  and  C_7
REMARK    3  A    between atoms: C_13  and  C_14
REMARK                            x       y       z     vdW  Elec       q    Type
REMARK                         _______ _______ _______ _____ _____    ______ ____
ROOT
ATOM      1  C   LIG A   1     -13.862   6.843 130.211  0.00  0.00    +0.021 C 
ATOM      2  C   LIG A   1     -12.412   7.447 130.392  0.00  0.00    +0.021 C 
ATOM      3  C   LIG A   1     -11.308   7.316 129.278  0.00  0.00    +0.009 C 
ATOM      4  C   LIG A   1      -9.872   7.537 129.737  0.00  0.00    +0.194 C 
ATOM      5  C   LIG A   1      -9.545   6.811 130.922  0.00  0.00    +0.066 A 
ATOM      6  C   LIG A   1      -8.322   6.433 131.543  0.00  0.00    -0.002 A 
ATOM      7  C   LIG A   1      -6.942   6.829 131.170  0.00  0.00    +0.048 C 
ATOM      8  C   LIG A   1      -8.692   5.591 132.576  0.00  0.00    +0.199 A 
ATOM      9  O   LIG A   1     -10.044   5.594 132.742  0.00  0.00    -0.467 OA
ATOM     10  C   LIG A   1     -10.535   6.404 131.773  0.00  0.00    +0.117 A 
ATOM     11  C   LIG A   1     -11.976   6.692 131.707  0.00  0.00    +0.090 C 
ATOM     12  O   LIG A   1      -9.087   8.337 129.214  0.00  0.00    -0.287 OA
ATOM     13  C   LIG A   1     -11.586   7.677 127.996  0.00  0.00    -0.061 C 
ATOM     14  C   LIG A   1     -10.616   7.784 126.848  0.00  0.00    +0.040 C 
ATOM     15  C   LIG A   1     -12.884   8.442 127.827  0.00  0.00    +0.057 C 
ATOM     16  C   LIG A   1     -13.019   9.399 129.030  0.00  0.00    -0.026 C 
ATOM     17  C   LIG A   1     -12.736   8.950 130.287  0.00  0.00    -0.019 C 
ENDROOT
TORSDOF 0
ENDMDL
MODEL 4
REMARK VINA RESULT:      -7.0      2.648      4.796
REMARK  Name = NuBBE_553
REMARK  3 active torsions:
REMARK  status: ('A' for Active; 'I' for Inactive)
REMARK    1  A    between atoms: C_1  and  C_2
REMARK    2  A    between atoms: C_6  and  C_7
REMARK    3  A    between atoms: C_13  and  C_14
REMARK                            x       y       z     vdW  Elec       q    Type
REMARK                         _______ _______ _______ _____ _____    ______ ____
ROOT
ATOM      1  C   LIG A   1      -7.949  -3.945 124.682  0.00  0.00    +0.021 C 
ATOM      2  C   LIG A   1      -7.550  -2.540 124.076  0.00  0.00    +0.021 C 
ATOM      3  C   LIG A   1      -7.229  -1.298 124.988  0.00  0.00    +0.009 C 
ATOM      4  C   LIG A   1      -7.295   0.062 124.305  0.00  0.00    +0.194 C 
ATOM      5  C   LIG A   1      -8.480   0.242 123.530  0.00  0.00    +0.066 A 
ATOM      6  C   LIG A   1      -9.145   1.380 122.993  0.00  0.00    -0.002 A 
ATOM      7  C   LIG A   1      -8.687   2.790 122.980  0.00  0.00    +0.048 C 
ATOM      8  C   LIG A   1     -10.338   0.890 122.490  0.00  0.00    +0.199 A 
ATOM      9  O   LIG A   1     -10.347  -0.472 122.507  0.00  0.00    -0.467 OA
ATOM     10  C   LIG A   1      -9.174  -0.844 123.073  0.00  0.00    +0.117 A 
ATOM     11  C   LIG A   1      -8.823  -2.268 123.184  0.00  0.00    +0.090 C 
ATOM     12  O   LIG A   1      -6.382   0.897 124.322  0.00  0.00    -0.287 OA
ATOM     13  C   LIG A   1      -6.332  -1.412 126.004  0.00  0.00    -0.061 C 
ATOM     14  C   LIG A   1      -5.776  -0.302 126.859  0.00  0.00    +0.040 C 
ATOM     15  C   LIG A   1      -5.513  -2.688 125.978  0.00  0.00    +0.057 C 
ATOM     16  C   LIG A   1      -5.174  -2.993 124.504  0.00  0.00    -0.026 C 
ATOM     17  C   LIG A   1      -6.140  -2.869 123.548  0.00  0.00    -0.019 C 
ENDROOT
TORSDOF 0
ENDMDL
MODEL 5
REMARK VINA RESULT:      -7.0      1.484      5.261
REMARK  Name = NuBBE_553
REMARK  3 active torsions:
REMARK  status: ('A' for Active; 'I' for Inactive)
REMARK    1  A    between atoms: C_1  and  C_2
REMARK    2  A    between atoms: C_6  and  C_7
REMARK    3  A    between atoms: C_13  and  C_14
REMARK                            x       y       z     vdW  Elec       q    Type
REMARK                         _______ _______ _______ _____ _____    ______ ____
ROOT
ATOM      1  C   LIG A   1      -5.237  -2.254 128.593  0.00  0.00    +0.021 C 
ATOM      2  C   LIG A   1      -6.405  -1.836 127.612  0.00  0.00    +0.021 C 
ATOM      3  C   LIG A   1      -7.600  -2.803 127.276  0.00  0.00    +0.009 C 
ATOM      4  C   LIG A   1      -8.392  -2.468 126.018  0.00  0.00    +0.194 C 
ATOM      5  C   LIG A   1      -7.561  -2.207 124.887  0.00  0.00    +0.066 A 
ATOM      6  C   LIG A   1      -7.788  -2.172 123.482  0.00  0.00    -0.002 A 
ATOM      7  C   LIG A   1      -9.078  -2.277 122.758  0.00  0.00    +0.048 C 
ATOM      8  C   LIG A   1      -6.531  -2.031 122.922  0.00  0.00    +0.199 A 
ATOM      9  O   LIG A   1      -5.598  -1.783 123.883  0.00  0.00    -0.467 OA
ATOM     10  C   LIG A   1      -6.262  -1.819 125.063  0.00  0.00    +0.117 A 
ATOM     11  C   LIG A   1      -5.558  -1.517 126.319  0.00  0.00    +0.090 C 
ATOM     12  O   LIG A   1      -9.620  -2.328 125.983  0.00  0.00    -0.287 OA
ATOM     13  C   LIG A   1      -8.299  -3.398 128.279  0.00  0.00    -0.061 C 
ATOM     14  C   LIG A   1      -9.566  -4.204 128.155  0.00  0.00    +0.040 C 
ATOM     15  C   LIG A   1      -8.016  -2.837 129.660  0.00  0.00    +0.057 C 
ATOM     16  C   LIG A   1      -7.862  -1.308 129.517  0.00  0.00    -0.026 C 
ATOM     17  C   LIG A   1      -7.128  -0.795 128.489  0.00  0.00    -0.019 C 
ENDROOT
TORSDOF 0
ENDMDL
MODEL 6
REMARK VINA RESULT:      -6.9      5.262      8.178
REMARK  Name = NuBBE_553
REMARK  3 active torsions:
REMARK  status: ('A' for Active; 'I' for Inactive)
REMARK    1  A    between atoms: C_1  and  C_2
REMARK    2  A    between atoms: C_6  and  C_7
REMARK    3  A    between atoms: C_13  and  C_14
REMARK                            x       y       z     vdW  Elec       q    Type
REMARK                         _______ _______ _______ _____ _____    ______ ____
ROOT
ATOM      1  C   LIG A   1      -5.336   2.706 125.599  0.00  0.00    +0.021 C 
ATOM      2  C   LIG A   1      -6.323   3.258 124.493  0.00  0.00    +0.021 C 
ATOM      3  C   LIG A   1      -7.104   2.302 123.518  0.00  0.00    +0.009 C 
ATOM      4  C   LIG A   1      -7.654   2.948 122.252  0.00  0.00    +0.194 C 
ATOM      5  C   LIG A   1      -6.693   3.758 121.575  0.00  0.00    +0.066 A 
ATOM      6  C   LIG A   1      -6.601   4.286 120.256  0.00  0.00    -0.002 A 
ATOM      7  C   LIG A   1      -7.617   4.243 119.177  0.00  0.00    +0.048 C 
ATOM      8  C   LIG A   1      -5.337   4.842 120.183  0.00  0.00    +0.199 A 
ATOM      9  O   LIG A   1      -4.746   4.863 121.411  0.00  0.00    -0.467 OA
ATOM     10  C   LIG A   1      -5.622   4.268 122.255  0.00  0.00    +0.117 A 
ATOM     11  C   LIG A   1      -5.327   4.185 123.693  0.00  0.00    +0.090 C 
ATOM     12  O   LIG A   1      -8.834   2.877 121.889  0.00  0.00    -0.287 OA
ATOM     13  C   LIG A   1      -7.823   1.260 124.015  0.00  0.00    -0.061 C 
ATOM     14  C   LIG A   1      -8.762   0.356 123.259  0.00  0.00    +0.040 C 
ATOM     15  C   LIG A   1      -8.018   1.293 125.519  0.00  0.00    +0.057 C 
ATOM     16  C   LIG A   1      -8.257   2.763 125.923  0.00  0.00    -0.026 C 
ATOM     17  C   LIG A   1      -7.478   3.747 125.388  0.00  0.00    -0.019 C 
ENDROOT
TORSDOF 0
ENDMDL
MODEL 7
REMARK VINA RESULT:      -6.8      2.558      4.400
REMARK  Name = NuBBE_553
REMARK  3 active torsions:
REMARK  status: ('A' for Active; 'I' for Inactive)
REMARK    1  A    between atoms: C_1  and  C_2
REMARK    2  A    between atoms: C_6  and  C_7
REMARK    3  A    between atoms: C_13  and  C_14
REMARK                            x       y       z     vdW  Elec       q    Type
REMARK                         _______ _______ _______ _____ _____    ______ ____
ROOT
ATOM      1  C   LIG A   1      -8.970  -2.506 126.556  0.00  0.00    +0.021 C 
ATOM      2  C   LIG A   1      -8.699  -1.627 125.269  0.00  0.00    +0.021 C 
ATOM      3  C   LIG A   1      -7.260  -1.470 124.653  0.00  0.00    +0.009 C 
ATOM      4  C   LIG A   1      -7.063  -0.283 123.719  0.00  0.00    +0.194 C 
ATOM      5  C   LIG A   1      -7.567   0.941 124.254  0.00  0.00    +0.066 A 
ATOM      6  C   LIG A   1      -7.355   2.314 123.948  0.00  0.00    -0.002 A 
ATOM      7  C   LIG A   1      -6.591   2.895 122.818  0.00  0.00    +0.048 C 
ATOM      8  C   LIG A   1      -8.007   3.007 124.952  0.00  0.00    +0.199 A 
ATOM      9  O   LIG A   1      -8.754   2.162 125.717  0.00  0.00    -0.467 OA
ATOM     10  C   LIG A   1      -8.530   0.920 125.225  0.00  0.00    +0.117 A 
ATOM     11  C   LIG A   1      -9.246  -0.238 125.781  0.00  0.00    +0.090 C 
ATOM     12  O   LIG A   1      -6.612  -0.366 122.570  0.00  0.00    -0.287 OA
ATOM     13  C   LIG A   1      -6.510  -2.572 124.382  0.00  0.00    -0.061 C 
ATOM     14  C   LIG A   1      -5.200  -2.625 123.640  0.00  0.00    +0.040 C 
ATOM     15  C   LIG A   1      -7.271  -3.882 124.455  0.00  0.00    +0.057 C 
ATOM     16  C   LIG A   1      -8.674  -3.638 123.860  0.00  0.00    -0.026 C 
ATOM     17  C   LIG A   1      -9.366  -2.512 124.198  0.00  0.00    -0.019 C 
ENDROOT
TORSDOF 0
ENDMDL
MODEL 8
REMARK VINA RESULT:      -6.7      2.539      5.267
REMARK  Name = NuBBE_553
REMARK  3 active torsions:
REMARK  status: ('A' for Active; 'I' for Inactive)
REMARK    1  A    between atoms: C_1  and  C_2
REMARK    2  A    between atoms: C_6  and  C_7
REMARK    3  A    between atoms: C_13  and  C_14
REMARK                            x       y       z     vdW  Elec       q    Type
REMARK                         _______ _______ _______ _____ _____    ______ ____
ROOT
ATOM      1  C   LIG A   1      -5.890  -2.266 126.359  0.00  0.00    +0.021 C 
ATOM      2  C   LIG A   1      -7.046  -1.293 125.890  0.00  0.00    +0.021 C 
ATOM      3  C   LIG A   1      -7.836  -1.522 124.548  0.00  0.00    +0.009 C 
ATOM      4  C   LIG A   1      -8.587  -0.312 124.006  0.00  0.00    +0.194 C 
ATOM      5  C   LIG A   1      -7.794   0.875 123.982  0.00  0.00    +0.066 A 
ATOM      6  C   LIG A   1      -7.906   2.122 123.306  0.00  0.00    -0.002 A 
ATOM      7  C   LIG A   1      -9.029   2.621 122.477  0.00  0.00    +0.048 C 
ATOM      8  C   LIG A   1      -6.718   2.779 123.576  0.00  0.00    +0.199 A 
ATOM      9  O   LIG A   1      -5.996   2.108 124.515  0.00  0.00    -0.467 OA
ATOM     10  C   LIG A   1      -6.707   0.992 124.803  0.00  0.00    +0.117 A 
ATOM     11  C   LIG A   1      -6.243   0.065 125.846  0.00  0.00    +0.090 C 
ATOM     12  O   LIG A   1      -9.789  -0.311 123.712  0.00  0.00    -0.287 OA
ATOM     13  C   LIG A   1      -8.388  -2.735 124.280  0.00  0.00    -0.061 C 
ATOM     14  C   LIG A   1      -9.315  -3.085 123.144  0.00  0.00    +0.040 C 
ATOM     15  C   LIG A   1      -8.413  -3.688 125.460  0.00  0.00    +0.057 C 
ATOM     16  C   LIG A   1      -8.746  -2.860 126.718  0.00  0.00    -0.026 C 
ATOM     17  C   LIG A   1      -8.134  -1.658 126.919  0.00  0.00    -0.019 C 
ENDROOT
TORSDOF 0
ENDMDL
MODEL 9
REMARK VINA RESULT:      -6.5      5.342      8.054
REMARK  Name = NuBBE_553
REMARK  3 active torsions:
REMARK  status: ('A' for Active; 'I' for Inactive)
REMARK    1  A    between atoms: C_1  and  C_2
REMARK    2  A    between atoms: C_6  and  C_7
REMARK    3  A    between atoms: C_13  and  C_14
REMARK                            x       y       z     vdW  Elec       q    Type
REMARK                         _______ _______ _______ _____ _____    ______ ____
ROOT
ATOM      1  C   LIG A   1      -9.279   2.129 124.609  0.00  0.00    +0.021 C 
ATOM      2  C   LIG A   1      -8.206   2.246 123.452  0.00  0.00    +0.021 C 
ATOM      3  C   LIG A   1      -7.088   3.353 123.459  0.00  0.00    +0.009 C 
ATOM      4  C   LIG A   1      -6.422   3.631 122.117  0.00  0.00    +0.194 C 
ATOM      5  C   LIG A   1      -7.357   3.800 121.052  0.00  0.00    +0.066 A 
ATOM      6  C   LIG A   1      -7.277   4.367 119.749  0.00  0.00    -0.002 A 
ATOM      7  C   LIG A   1      -6.075   4.862 119.035  0.00  0.00    +0.048 C 
ATOM      8  C   LIG A   1      -8.580   4.376 119.284  0.00  0.00    +0.199 A 
ATOM      9  O   LIG A   1      -9.398   3.681 120.124  0.00  0.00    -0.467 OA
ATOM     10  C   LIG A   1      -8.615   3.275 121.152  0.00  0.00    +0.117 A 
ATOM     11  C   LIG A   1      -9.172   2.427 122.218  0.00  0.00    +0.090 C 
ATOM     12  O   LIG A   1      -5.199   3.612 121.928  0.00  0.00    -0.287 OA
ATOM     13  C   LIG A   1      -6.309   3.530 124.559  0.00  0.00    -0.061 C 
ATOM     14  C   LIG A   1      -5.092   4.409 124.684  0.00  0.00    +0.040 C 
ATOM     15  C   LIG A   1      -6.426   2.427 125.595  0.00  0.00    +0.057 C 
ATOM     16  C   LIG A   1      -6.539   1.088 124.836  0.00  0.00    -0.026 C 
ATOM     17  C   LIG A   1      -7.358   0.993 123.750  0.00  0.00    -0.019 C 
ENDROOT
TORSDOF 0
ENDMDL
