MODEL 1
REMARK VINA RESULT:      -6.8      0.000      0.000
REMARK  Name = NuBBE_2218
REMARK  16 active torsions:
REMARK  status: ('A' for Active; 'I' for Inactive)
REMARK    1  A    between atoms: C_1  and  C_3
REMARK    2  A    between atoms: C_1  and  O_18
REMARK    3  A    between atoms: C_1  and  C_19
REMARK    4  A    between atoms: C_3  and  O_5
REMARK    5  A    between atoms: C_3  and  C_17
REMARK    6  A    between atoms: O_5  and  C_6
REMARK    7  A    between atoms: C_7  and  O_8
REMARK    8  A    between atoms: O_8  and  C_9
REMARK    9  A    between atoms: C_11  and  C_14
REMARK   10  A    between atoms: C_15  and  C_16
REMARK   11  A    between atoms: C_21  and  O_22
REMARK   12  A    between atoms: O_22  and  C_23
REMARK   13  A    between atoms: C_24  and  O_29
REMARK   14  A    between atoms: C_25  and  O_27
REMARK   15  A    between atoms: O_27  and  C_28
REMARK   16  A    between atoms: O_29  and  C_30
REMARK                            x       y       z     vdW  Elec       q    Type
REMARK                         _______ _______ _______ _____ _____    ______ ____
ROOT
ATOM      1  C   LIG A   1      -9.453   2.325 123.446  0.00  0.00    +0.185 C 
ENDROOT
BRANCH   1   2
ATOM      2  C   LIG A   1      -8.201   2.999 122.932  0.00  0.00    -0.009 A 
ATOM      3  C   LIG A   1      -7.179   3.369 123.807  0.00  0.00    +0.056 A 
ATOM      4  C   LIG A   1      -5.935   3.792 123.313  0.00  0.00    +0.166 A 
ATOM      5  C   LIG A   1      -5.739   3.974 121.924  0.00  0.00    +0.203 A 
ATOM      6  C   LIG A   1      -6.813   3.742 121.051  0.00  0.00    +0.166 A 
ATOM      7  C   LIG A   1      -7.984   3.184 121.566  0.00  0.00    +0.056 A 
BRANCH   4   8
ATOM      8  O   LIG A   1      -4.864   4.030 124.146  0.00  0.00    -0.491 OA
ATOM      9  C   LIG A   1      -5.188   4.099 125.533  0.00  0.00    +0.277 C 
ENDBRANCH   4   8
BRANCH   6  10
ATOM     10  O   LIG A   1      -6.682   3.991 119.706  0.00  0.00    -0.491 OA
ATOM     11  C   LIG A   1      -7.886   4.332 119.016  0.00  0.00    +0.277 C 
ENDBRANCH   6  10
BRANCH   5  12
ATOM     12  O   LIG A   1      -4.481   4.374 121.544  0.00  0.00    -0.488 OA
ATOM     13  C   LIG A   1      -4.327   5.740 121.172  0.00  0.00    +0.277 C 
ENDBRANCH   5  12
ENDBRANCH   1   2
BRANCH   1  14
ATOM     14  C   LIG A   1      -9.447   0.776 123.552  0.00  0.00    +0.203 C 
ATOM     15  C   LIG A   1     -10.165   0.036 122.412  0.00  0.00    +0.055 C 
BRANCH  14  16
ATOM     16  O   LIG A   1      -9.939   0.387 124.841  0.00  0.00    -0.482 OA
BRANCH  16  17
ATOM     17  C   LIG A   1      -9.135  -0.379 125.657  0.00  0.00    +0.163 A 
ATOM     18  C   LIG A   1      -8.571   0.260 126.780  0.00  0.00    +0.162 A 
ATOM     19  C   LIG A   1      -7.788  -0.490 127.684  0.00  0.00    +0.057 A 
ATOM     20  C   LIG A   1      -7.570  -1.850 127.480  0.00  0.00    -0.022 A 
ATOM     21  C   LIG A   1      -8.103  -2.479 126.336  0.00  0.00    +0.012 A 
ATOM     22  C   LIG A   1      -8.872  -1.730 125.440  0.00  0.00    +0.050 A 
BRANCH  20  23
ATOM     23  C   LIG A   1      -6.732  -2.605 128.429  0.00  0.00    +0.003 C 
ATOM     24  C   LIG A   1      -7.214  -3.209 129.527  0.00  0.00    -0.030 C 
ATOM     25  C   LIG A   1      -6.386  -4.008 130.478  0.00  0.00    +0.035 C 
ENDBRANCH  20  23
BRANCH  18  26
ATOM     26  O   LIG A   1      -8.770   1.612 126.901  0.00  0.00    -0.491 OA
ATOM     27  C   LIG A   1      -7.819   2.334 127.680  0.00  0.00    +0.277 C 
ENDBRANCH  18  26
ENDBRANCH  16  17
ENDBRANCH  14  16
ENDBRANCH   1  14
BRANCH   1  28
ATOM     28  O   LIG A   1      -9.755   2.913 124.719  0.00  0.00    -0.384 OA
ATOM     29  H   LIG A   1     -10.546   2.469 125.064  0.00  0.00    +0.210 HD
ENDBRANCH   1  28
TORSDOF 10
ENDMDL
MODEL 2
REMARK VINA RESULT:      -6.8      3.148      5.493
REMARK  Name = NuBBE_2218
REMARK  16 active torsions:
REMARK  status: ('A' for Active; 'I' for Inactive)
REMARK    1  A    between atoms: C_1  and  C_3
REMARK    2  A    between atoms: C_1  and  O_18
REMARK    3  A    between atoms: C_1  and  C_19
REMARK    4  A    between atoms: C_3  and  O_5
REMARK    5  A    between atoms: C_3  and  C_17
REMARK    6  A    between atoms: O_5  and  C_6
REMARK    7  A    between atoms: C_7  and  O_8
REMARK    8  A    between atoms: O_8  and  C_9
REMARK    9  A    between atoms: C_11  and  C_14
REMARK   10  A    between atoms: C_15  and  C_16
REMARK   11  A    between atoms: C_21  and  O_22
REMARK   12  A    between atoms: O_22  and  C_23
REMARK   13  A    between atoms: C_24  and  O_29
REMARK   14  A    between atoms: C_25  and  O_27
REMARK   15  A    between atoms: O_27  and  C_28
REMARK   16  A    between atoms: O_29  and  C_30
REMARK                            x       y       z     vdW  Elec       q    Type
REMARK                         _______ _______ _______ _____ _____    ______ ____
ROOT
ATOM      1  C   LIG A   1      -7.708   4.111 124.957  0.00  0.00    +0.185 C 
ENDROOT
BRANCH   1   2
ATOM      2  C   LIG A   1      -6.819   4.101 126.179  0.00  0.00    -0.009 A 
ATOM      3  C   LIG A   1      -5.435   4.226 126.057  0.00  0.00    +0.056 A 
ATOM      4  C   LIG A   1      -4.634   4.435 127.191  0.00  0.00    +0.166 A 
ATOM      5  C   LIG A   1      -5.200   4.395 128.486  0.00  0.00    +0.203 A 
ATOM      6  C   LIG A   1      -6.571   4.125 128.620  0.00  0.00    +0.166 A 
ATOM      7  C   LIG A   1      -7.356   4.069 127.467  0.00  0.00    +0.056 A 
BRANCH   4   8
ATOM      8  O   LIG A   1      -3.285   4.699 127.090  0.00  0.00    -0.491 OA
ATOM      9  C   LIG A   1      -2.483   3.583 126.707  0.00  0.00    +0.277 C 
ENDBRANCH   4   8
BRANCH   6  10
ATOM     10  O   LIG A   1      -7.135   3.995 129.865  0.00  0.00    -0.491 OA
ATOM     11  C   LIG A   1      -7.879   5.122 130.332  0.00  0.00    +0.277 C 
ENDBRANCH   6  10
BRANCH   5  12
ATOM     12  O   LIG A   1      -4.333   4.629 129.526  0.00  0.00    -0.488 OA
ATOM     13  C   LIG A   1      -3.879   3.490 130.251  0.00  0.00    +0.277 C 
ENDBRANCH   5  12
ENDBRANCH   1   2
BRANCH   1  14
ATOM     14  C   LIG A   1      -7.720   2.840 124.063  0.00  0.00    +0.203 C 
ATOM     15  C   LIG A   1      -8.391   3.009 122.690  0.00  0.00    +0.055 C 
BRANCH  14  16
ATOM     16  O   LIG A   1      -8.273   1.744 124.803  0.00  0.00    -0.482 OA
BRANCH  16  17
ATOM     17  C   LIG A   1      -7.673   0.508 124.709  0.00  0.00    +0.163 A 
ATOM     18  C   LIG A   1      -8.424  -0.523 124.109  0.00  0.00    +0.162 A 
ATOM     19  C   LIG A   1      -7.838  -1.796 123.931  0.00  0.00    +0.057 A 
ATOM     20  C   LIG A   1      -6.528  -2.039 124.337  0.00  0.00    -0.022 A 
ATOM     21  C   LIG A   1      -5.792  -1.018 124.970  0.00  0.00    +0.012 A 
ATOM     22  C   LIG A   1      -6.379   0.238 125.151  0.00  0.00    +0.050 A 
BRANCH  20  23
ATOM     23  C   LIG A   1      -5.948  -3.383 124.157  0.00  0.00    +0.003 C 
ATOM     24  C   LIG A   1      -4.752  -3.604 123.587  0.00  0.00    -0.030 C 
ATOM     25  C   LIG A   1      -4.133  -4.954 123.431  0.00  0.00    +0.035 C 
ENDBRANCH  20  23
BRANCH  18  26
ATOM     26  O   LIG A   1      -9.726  -0.244 123.781  0.00  0.00    -0.491 OA
ATOM     27  C   LIG A   1     -10.046  -0.206 122.393  0.00  0.00    +0.277 C 
ENDBRANCH  18  26
ENDBRANCH  16  17
ENDBRANCH  14  16
ENDBRANCH   1  14
BRANCH   1  28
ATOM     28  O   LIG A   1      -9.035   4.420 125.404  0.00  0.00    -0.384 OA
ATOM     29  H   LIG A   1      -9.269   5.290 125.042  0.00  0.00    +0.210 HD
ENDBRANCH   1  28
TORSDOF 10
ENDMDL
MODEL 3
REMARK VINA RESULT:      -6.8      3.123      5.371
REMARK  Name = NuBBE_2218
REMARK  16 active torsions:
REMARK  status: ('A' for Active; 'I' for Inactive)
REMARK    1  A    between atoms: C_1  and  C_3
REMARK    2  A    between atoms: C_1  and  O_18
REMARK    3  A    between atoms: C_1  and  C_19
REMARK    4  A    between atoms: C_3  and  O_5
REMARK    5  A    between atoms: C_3  and  C_17
REMARK    6  A    between atoms: O_5  and  C_6
REMARK    7  A    between atoms: C_7  and  O_8
REMARK    8  A    between atoms: O_8  and  C_9
REMARK    9  A    between atoms: C_11  and  C_14
REMARK   10  A    between atoms: C_15  and  C_16
REMARK   11  A    between atoms: C_21  and  O_22
REMARK   12  A    between atoms: O_22  and  C_23
REMARK   13  A    between atoms: C_24  and  O_29
REMARK   14  A    between atoms: C_25  and  O_27
REMARK   15  A    between atoms: O_27  and  C_28
REMARK   16  A    between atoms: O_29  and  C_30
REMARK                            x       y       z     vdW  Elec       q    Type
REMARK                         _______ _______ _______ _____ _____    ______ ____
ROOT
ATOM      1  C   LIG A   1      -7.697   4.194 125.040  0.00  0.00    +0.185 C 
ENDROOT
BRANCH   1   2
ATOM      2  C   LIG A   1      -6.798   4.233 126.255  0.00  0.00    -0.009 A 
ATOM      3  C   LIG A   1      -7.319   4.043 127.536  0.00  0.00    +0.056 A 
ATOM      4  C   LIG A   1      -6.464   3.864 128.635  0.00  0.00    +0.166 A 
ATOM      5  C   LIG A   1      -5.064   4.001 128.484  0.00  0.00    +0.203 A 
ATOM      6  C   LIG A   1      -4.546   4.336 127.223  0.00  0.00    +0.166 A 
ATOM      7  C   LIG A   1      -5.414   4.361 126.130  0.00  0.00    +0.056 A 
BRANCH   4   8
ATOM      8  O   LIG A   1      -6.944   3.538 129.884  0.00  0.00    -0.491 OA
ATOM      9  C   LIG A   1      -8.329   3.812 130.084  0.00  0.00    +0.277 C 
ENDBRANCH   4   8
BRANCH   6  10
ATOM     10  O   LIG A   1      -3.201   4.560 127.062  0.00  0.00    -0.491 OA
ATOM     11  C   LIG A   1      -2.450   3.474 126.514  0.00  0.00    +0.277 C 
ENDBRANCH   6  10
BRANCH   5  12
ATOM     12  O   LIG A   1      -4.317   3.789 129.617  0.00  0.00    -0.488 OA
ATOM     13  C   LIG A   1      -3.875   4.946 130.320  0.00  0.00    +0.277 C 
ENDBRANCH   5  12
ENDBRANCH   1   2
BRANCH   1  14
ATOM     14  C   LIG A   1      -7.644   2.927 124.143  0.00  0.00    +0.203 C 
ATOM     15  C   LIG A   1      -8.221   3.098 122.729  0.00  0.00    +0.055 C 
BRANCH  14  16
ATOM     16  O   LIG A   1      -8.242   1.826 124.840  0.00  0.00    -0.482 OA
BRANCH  16  17
ATOM     17  C   LIG A   1      -7.666   0.579 124.734  0.00  0.00    +0.163 A 
ATOM     18  C   LIG A   1      -8.439  -0.433 124.129  0.00  0.00    +0.162 A 
ATOM     19  C   LIG A   1      -7.878  -1.714 123.939  0.00  0.00    +0.057 A 
ATOM     20  C   LIG A   1      -6.572  -1.986 124.337  0.00  0.00    -0.022 A 
ATOM     21  C   LIG A   1      -5.813  -0.985 124.975  0.00  0.00    +0.012 A 
ATOM     22  C   LIG A   1      -6.376   0.281 125.168  0.00  0.00    +0.050 A 
BRANCH  20  23
ATOM     23  C   LIG A   1      -6.018  -3.339 124.144  0.00  0.00    +0.003 C 
ATOM     24  C   LIG A   1      -4.792  -3.575 123.648  0.00  0.00    -0.030 C 
ATOM     25  C   LIG A   1      -4.201  -4.936 123.481  0.00  0.00    +0.035 C 
ENDBRANCH  20  23
BRANCH  18  26
ATOM     26  O   LIG A   1      -9.737  -0.126 123.809  0.00  0.00    -0.491 OA
ATOM     27  C   LIG A   1     -10.065  -0.086 122.423  0.00  0.00    +0.277 C 
ENDBRANCH  18  26
ENDBRANCH  16  17
ENDBRANCH  14  16
ENDBRANCH   1  14
BRANCH   1  28
ATOM     28  O   LIG A   1      -9.036   4.425 125.501  0.00  0.00    -0.384 OA
ATOM     29  H   LIG A   1      -8.979   4.989 126.289  0.00  0.00    +0.210 HD
ENDBRANCH   1  28
TORSDOF 10
ENDMDL
MODEL 4
REMARK VINA RESULT:      -6.5      4.902      8.157
REMARK  Name = NuBBE_2218
REMARK  16 active torsions:
REMARK  status: ('A' for Active; 'I' for Inactive)
REMARK    1  A    between atoms: C_1  and  C_3
REMARK    2  A    between atoms: C_1  and  O_18
REMARK    3  A    between atoms: C_1  and  C_19
REMARK    4  A    between atoms: C_3  and  O_5
REMARK    5  A    between atoms: C_3  and  C_17
REMARK    6  A    between atoms: O_5  and  C_6
REMARK    7  A    between atoms: C_7  and  O_8
REMARK    8  A    between atoms: O_8  and  C_9
REMARK    9  A    between atoms: C_11  and  C_14
REMARK   10  A    between atoms: C_15  and  C_16
REMARK   11  A    between atoms: C_21  and  O_22
REMARK   12  A    between atoms: O_22  and  C_23
REMARK   13  A    between atoms: C_24  and  O_29
REMARK   14  A    between atoms: C_25  and  O_27
REMARK   15  A    between atoms: O_27  and  C_28
REMARK   16  A    between atoms: O_29  and  C_30
REMARK                            x       y       z     vdW  Elec       q    Type
REMARK                         _______ _______ _______ _____ _____    ______ ____
ROOT
ATOM      1  C   LIG A   1      -6.373  -0.494 131.762  0.00  0.00    +0.185 C 
ENDROOT
BRANCH   1   2
ATOM      2  C   LIG A   1      -7.312   0.658 131.485  0.00  0.00    -0.009 A 
ATOM      3  C   LIG A   1      -7.591   1.054 130.177  0.00  0.00    +0.056 A 
ATOM      4  C   LIG A   1      -8.620   1.971 129.912  0.00  0.00    +0.166 A 
ATOM      5  C   LIG A   1      -9.305   2.605 130.975  0.00  0.00    +0.203 A 
ATOM      6  C   LIG A   1      -8.927   2.317 132.295  0.00  0.00    +0.166 A 
ATOM      7  C   LIG A   1      -8.003   1.295 132.517  0.00  0.00    +0.056 A 
BRANCH   4   8
ATOM      8  O   LIG A   1      -9.011   2.275 128.626  0.00  0.00    -0.491 OA
ATOM      9  C   LIG A   1      -8.011   2.908 127.831  0.00  0.00    +0.277 C 
ENDBRANCH   4   8
BRANCH   6  10
ATOM     10  O   LIG A   1      -9.513   2.980 133.346  0.00  0.00    -0.491 OA
ATOM     11  C   LIG A   1      -8.653   3.839 134.097  0.00  0.00    +0.277 C 
ENDBRANCH   6  10
BRANCH   5  12
ATOM     12  O   LIG A   1     -10.306   3.473 130.608  0.00  0.00    -0.488 OA
ATOM     13  C   LIG A   1      -9.958   4.850 130.511  0.00  0.00    +0.277 C 
ENDBRANCH   5  12
ENDBRANCH   1   2
BRANCH   1  14
ATOM     14  C   LIG A   1      -6.922  -1.935 131.575  0.00  0.00    +0.203 C 
ATOM     15  C   LIG A   1      -6.777  -2.858 132.796  0.00  0.00    +0.055 C 
BRANCH  14  16
ATOM     16  O   LIG A   1      -6.351  -2.511 130.393  0.00  0.00    -0.482 OA
BRANCH  16  17
ATOM     17  C   LIG A   1      -7.157  -2.706 129.292  0.00  0.00    +0.163 A 
ATOM     18  C   LIG A   1      -6.801  -2.023 128.111  0.00  0.00    +0.162 A 
ATOM     19  C   LIG A   1      -7.554  -2.231 126.935  0.00  0.00    +0.057 A 
ATOM     20  C   LIG A   1      -8.638  -3.104 126.930  0.00  0.00    -0.022 A 
ATOM     21  C   LIG A   1      -9.016  -3.757 128.120  0.00  0.00    +0.012 A 
ATOM     22  C   LIG A   1      -8.271  -3.542 129.284  0.00  0.00    +0.050 A 
BRANCH  20  23
ATOM     23  C   LIG A   1      -9.420  -3.288 125.693  0.00  0.00    +0.003 C 
ATOM     24  C   LIG A   1      -8.925  -3.069 124.464  0.00  0.00    -0.030 C 
ATOM     25  C   LIG A   1      -9.689  -3.286 123.199  0.00  0.00    +0.035 C 
ENDBRANCH  20  23
BRANCH  18  26
ATOM     26  O   LIG A   1      -5.760  -1.132 128.188  0.00  0.00    -0.491 OA
ATOM     27  C   LIG A   1      -5.634  -0.197 127.120  0.00  0.00    +0.277 C 
ENDBRANCH  18  26
ENDBRANCH  16  17
ENDBRANCH  14  16
ENDBRANCH   1  14
BRANCH   1  28
ATOM     28  O   LIG A   1      -5.209  -0.293 130.947  0.00  0.00    -0.384 OA
ATOM     29  H   LIG A   1      -5.449   0.340 130.250  0.00  0.00    +0.210 HD
ENDBRANCH   1  28
TORSDOF 10
ENDMDL
MODEL 5
REMARK VINA RESULT:      -6.5      4.444      7.400
REMARK  Name = NuBBE_2218
REMARK  16 active torsions:
REMARK  status: ('A' for Active; 'I' for Inactive)
REMARK    1  A    between atoms: C_1  and  C_3
REMARK    2  A    between atoms: C_1  and  O_18
REMARK    3  A    between atoms: C_1  and  C_19
REMARK    4  A    between atoms: C_3  and  O_5
REMARK    5  A    between atoms: C_3  and  C_17
REMARK    6  A    between atoms: O_5  and  C_6
REMARK    7  A    between atoms: C_7  and  O_8
REMARK    8  A    between atoms: O_8  and  C_9
REMARK    9  A    between atoms: C_11  and  C_14
REMARK   10  A    between atoms: C_15  and  C_16
REMARK   11  A    between atoms: C_21  and  O_22
REMARK   12  A    between atoms: O_22  and  C_23
REMARK   13  A    between atoms: C_24  and  O_29
REMARK   14  A    between atoms: C_25  and  O_27
REMARK   15  A    between atoms: O_27  and  C_28
REMARK   16  A    between atoms: O_29  and  C_30
REMARK                            x       y       z     vdW  Elec       q    Type
REMARK                         _______ _______ _______ _____ _____    ______ ____
ROOT
ATOM      1  C   LIG A   1      -6.702  -0.314 131.531  0.00  0.00    +0.185 C 
ENDROOT
BRANCH   1   2
ATOM      2  C   LIG A   1      -7.638   0.767 131.040  0.00  0.00    -0.009 A 
ATOM      3  C   LIG A   1      -8.173   1.704 131.924  0.00  0.00    +0.056 A 
ATOM      4  C   LIG A   1      -8.861   2.829 131.443  0.00  0.00    +0.166 A 
ATOM      5  C   LIG A   1      -9.134   2.965 130.061  0.00  0.00    +0.203 A 
ATOM      6  C   LIG A   1      -8.723   1.950 129.184  0.00  0.00    +0.166 A 
ATOM      7  C   LIG A   1      -7.917   0.924 129.681  0.00  0.00    +0.056 A 
BRANCH   4   8
ATOM      8  O   LIG A   1      -9.279   3.840 132.280  0.00  0.00    -0.491 OA
ATOM      9  C   LIG A   1      -9.251   3.517 133.669  0.00  0.00    +0.277 C 
ENDBRANCH   4   8
BRANCH   6  10
ATOM     10  O   LIG A   1      -9.047   2.010 127.851  0.00  0.00    -0.491 OA
ATOM     11  C   LIG A   1      -8.006   2.449 126.977  0.00  0.00    +0.277 C 
ENDBRANCH   6  10
BRANCH   5  12
ATOM     12  O   LIG A   1      -9.798   4.111 129.693  0.00  0.00    -0.488 OA
ATOM     13  C   LIG A   1      -8.996   5.212 129.278  0.00  0.00    +0.277 C 
ENDBRANCH   5  12
ENDBRANCH   1   2
BRANCH   1  14
ATOM     14  C   LIG A   1      -7.194  -1.785 131.451  0.00  0.00    +0.203 C 
ATOM     15  C   LIG A   1      -7.126  -2.573 132.770  0.00  0.00    +0.055 C 
BRANCH  14  16
ATOM     16  O   LIG A   1      -6.510  -2.457 130.385  0.00  0.00    -0.482 OA
BRANCH  16  17
ATOM     17  C   LIG A   1      -7.189  -2.706 129.213  0.00  0.00    +0.163 A 
ATOM     18  C   LIG A   1      -6.643  -2.164 128.031  0.00  0.00    +0.162 A 
ATOM     19  C   LIG A   1      -7.262  -2.436 126.792  0.00  0.00    +0.057 A 
ATOM     20  C   LIG A   1      -8.399  -3.237 126.725  0.00  0.00    -0.022 A 
ATOM     21  C   LIG A   1      -8.966  -3.747 127.910  0.00  0.00    +0.012 A 
ATOM     22  C   LIG A   1      -8.353  -3.467 129.136  0.00  0.00    +0.050 A 
BRANCH  20  23
ATOM     23  C   LIG A   1      -9.037  -3.489 125.419  0.00  0.00    +0.003 C 
ATOM     24  C   LIG A   1      -8.802  -2.748 124.324  0.00  0.00    -0.030 C 
ATOM     25  C   LIG A   1      -9.409  -3.012 122.986  0.00  0.00    +0.035 C 
ENDBRANCH  20  23
BRANCH  18  26
ATOM     26  O   LIG A   1      -5.556  -1.337 128.162  0.00  0.00    -0.491 OA
ATOM     27  C   LIG A   1      -5.448  -0.265 127.229  0.00  0.00    +0.277 C 
ENDBRANCH  18  26
ENDBRANCH  16  17
ENDBRANCH  14  16
ENDBRANCH   1  14
BRANCH   1  28
ATOM     28  O   LIG A   1      -5.469  -0.159 130.814  0.00  0.00    -0.384 OA
ATOM     29  H   LIG A   1      -5.603  -0.521 129.923  0.00  0.00    +0.210 HD
ENDBRANCH   1  28
TORSDOF 10
ENDMDL
MODEL 6
REMARK VINA RESULT:      -6.5      5.529      8.667
REMARK  Name = NuBBE_2218
REMARK  16 active torsions:
REMARK  status: ('A' for Active; 'I' for Inactive)
REMARK    1  A    between atoms: C_1  and  C_3
REMARK    2  A    between atoms: C_1  and  O_18
REMARK    3  A    between atoms: C_1  and  C_19
REMARK    4  A    between atoms: C_3  and  O_5
REMARK    5  A    between atoms: C_3  and  C_17
REMARK    6  A    between atoms: O_5  and  C_6
REMARK    7  A    between atoms: C_7  and  O_8
REMARK    8  A    between atoms: O_8  and  C_9
REMARK    9  A    between atoms: C_11  and  C_14
REMARK   10  A    between atoms: C_15  and  C_16
REMARK   11  A    between atoms: C_21  and  O_22
REMARK   12  A    between atoms: O_22  and  C_23
REMARK   13  A    between atoms: C_24  and  O_29
REMARK   14  A    between atoms: C_25  and  O_27
REMARK   15  A    between atoms: O_27  and  C_28
REMARK   16  A    between atoms: O_29  and  C_30
REMARK                            x       y       z     vdW  Elec       q    Type
REMARK                         _______ _______ _______ _____ _____    ______ ____
ROOT
ATOM      1  C   LIG A   1      -7.952   6.039 133.065  0.00  0.00    +0.185 C 
ENDROOT
BRANCH   1   2
ATOM      2  C   LIG A   1      -8.958   5.888 131.947  0.00  0.00    -0.009 A 
ATOM      3  C   LIG A   1     -10.324   6.044 132.188  0.00  0.00    +0.056 A 
ATOM      4  C   LIG A   1     -11.233   6.119 131.122  0.00  0.00    +0.166 A 
ATOM      5  C   LIG A   1     -10.798   5.911 129.793  0.00  0.00    +0.203 A 
ATOM      6  C   LIG A   1      -9.448   5.609 129.559  0.00  0.00    +0.166 A 
ATOM      7  C   LIG A   1      -8.552   5.688 130.626  0.00  0.00    +0.056 A 
BRANCH   4   8
ATOM      8  O   LIG A   1     -12.566   6.411 131.321  0.00  0.00    -0.491 OA
ATOM      9  C   LIG A   1     -12.842   7.781 131.606  0.00  0.00    +0.277 C 
ENDBRANCH   4   8
BRANCH   6  10
ATOM     10  O   LIG A   1      -9.010   5.317 128.290  0.00  0.00    -0.491 OA
ATOM     11  C   LIG A   1      -8.036   4.277 128.193  0.00  0.00    +0.277 C 
ENDBRANCH   6  10
BRANCH   5  12
ATOM     12  O   LIG A   1     -11.765   6.023 128.822  0.00  0.00    -0.488 OA
ATOM     13  C   LIG A   1     -11.788   7.237 128.076  0.00  0.00    +0.277 C 
ENDBRANCH   5  12
ENDBRANCH   1   2
BRANCH   1  14
ATOM     14  C   LIG A   1      -7.883   4.912 134.131  0.00  0.00    +0.203 C 
ATOM     15  C   LIG A   1      -7.694   5.389 135.581  0.00  0.00    +0.055 C 
BRANCH  14  16
ATOM     16  O   LIG A   1      -6.889   3.954 133.745  0.00  0.00    -0.482 OA
BRANCH  16  17
ATOM     17  C   LIG A   1      -7.239   2.948 132.872  0.00  0.00    +0.163 A 
ATOM     18  C   LIG A   1      -6.384   2.729 131.772  0.00  0.00    +0.162 A 
ATOM     19  C   LIG A   1      -6.659   1.673 130.878  0.00  0.00    +0.057 A 
ATOM     20  C   LIG A   1      -7.761   0.843 131.073  0.00  0.00    -0.022 A 
ATOM     21  C   LIG A   1      -8.635   1.086 132.152  0.00  0.00    +0.012 A 
ATOM     22  C   LIG A   1      -8.362   2.139 133.030  0.00  0.00    +0.050 A 
BRANCH  20  23
ATOM     23  C   LIG A   1      -8.036  -0.241 130.113  0.00  0.00    +0.003 C 
ATOM     24  C   LIG A   1      -7.804  -1.538 130.372  0.00  0.00    -0.030 C 
ATOM     25  C   LIG A   1      -8.112  -2.651 129.426  0.00  0.00    +0.035 C 
ENDBRANCH  20  23
BRANCH  18  26
ATOM     26  O   LIG A   1      -5.347   3.611 131.596  0.00  0.00    -0.491 OA
ATOM     27  C   LIG A   1      -4.912   3.833 130.257  0.00  0.00    +0.277 C 
ENDBRANCH  18  26
ENDBRANCH  16  17
ENDBRANCH  14  16
ENDBRANCH   1  14
BRANCH   1  28
ATOM     28  O   LIG A   1      -6.669   6.229 132.452  0.00  0.00    -0.384 OA
ATOM     29  H   LIG A   1      -6.202   6.912 132.961  0.00  0.00    +0.210 HD
ENDBRANCH   1  28
TORSDOF 10
ENDMDL
MODEL 7
REMARK VINA RESULT:      -6.5      2.535      4.653
REMARK  Name = NuBBE_2218
REMARK  16 active torsions:
REMARK  status: ('A' for Active; 'I' for Inactive)
REMARK    1  A    between atoms: C_1  and  C_3
REMARK    2  A    between atoms: C_1  and  O_18
REMARK    3  A    between atoms: C_1  and  C_19
REMARK    4  A    between atoms: C_3  and  O_5
REMARK    5  A    between atoms: C_3  and  C_17
REMARK    6  A    between atoms: O_5  and  C_6
REMARK    7  A    between atoms: C_7  and  O_8
REMARK    8  A    between atoms: O_8  and  C_9
REMARK    9  A    between atoms: C_11  and  C_14
REMARK   10  A    between atoms: C_15  and  C_16
REMARK   11  A    between atoms: C_21  and  O_22
REMARK   12  A    between atoms: O_22  and  C_23
REMARK   13  A    between atoms: C_24  and  O_29
REMARK   14  A    between atoms: C_25  and  O_27
REMARK   15  A    between atoms: O_27  and  C_28
REMARK   16  A    between atoms: O_29  and  C_30
REMARK                            x       y       z     vdW  Elec       q    Type
REMARK                         _______ _______ _______ _____ _____    ______ ____
ROOT
ATOM      1  C   LIG A   1      -6.823  -1.262 123.280  0.00  0.00    +0.185 C 
ENDROOT
BRANCH   1   2
ATOM      2  C   LIG A   1      -7.225   0.096 123.810  0.00  0.00    -0.009 A 
ATOM      3  C   LIG A   1      -6.832   1.263 123.155  0.00  0.00    +0.056 A 
ATOM      4  C   LIG A   1      -7.380   2.504 123.517  0.00  0.00    +0.166 A 
ATOM      5  C   LIG A   1      -8.242   2.608 124.634  0.00  0.00    +0.203 A 
ATOM      6  C   LIG A   1      -8.524   1.457 125.384  0.00  0.00    +0.166 A 
ATOM      7  C   LIG A   1      -8.078   0.224 124.907  0.00  0.00    +0.056 A 
BRANCH   4   8
ATOM      8  O   LIG A   1      -7.119   3.652 122.800  0.00  0.00    -0.491 OA
ATOM      9  C   LIG A   1      -6.828   3.442 121.420  0.00  0.00    +0.277 C 
ENDBRANCH   4   8
BRANCH   6  10
ATOM     10  O   LIG A   1      -9.287   1.540 126.524  0.00  0.00    -0.491 OA
ATOM     11  C   LIG A   1      -8.568   1.498 127.758  0.00  0.00    +0.277 C 
ENDBRANCH   6  10
BRANCH   5  12
ATOM     12  O   LIG A   1      -8.737   3.864 124.892  0.00  0.00    -0.488 OA
ATOM     13  C   LIG A   1      -8.010   4.662 125.821  0.00  0.00    +0.277 C 
ENDBRANCH   5  12
ENDBRANCH   1   2
BRANCH   1  14
ATOM     14  C   LIG A   1      -5.802  -2.088 124.110  0.00  0.00    +0.203 C 
ATOM     15  C   LIG A   1      -4.789  -2.899 123.286  0.00  0.00    +0.055 C 
BRANCH  14  16
ATOM     16  O   LIG A   1      -6.507  -2.904 125.054  0.00  0.00    -0.482 OA
BRANCH  16  17
ATOM     17  C   LIG A   1      -6.649  -2.454 126.348  0.00  0.00    +0.163 A 
ATOM     18  C   LIG A   1      -7.773  -2.913 127.065  0.00  0.00    +0.162 A 
ATOM     19  C   LIG A   1      -7.938  -2.532 128.414  0.00  0.00    +0.057 A 
ATOM     20  C   LIG A   1      -7.003  -1.714 129.043  0.00  0.00    -0.022 A 
ATOM     21  C   LIG A   1      -5.900  -1.226 128.314  0.00  0.00    +0.012 A 
ATOM     22  C   LIG A   1      -5.745  -1.599 126.976  0.00  0.00    +0.050 A 
BRANCH  20  23
ATOM     23  C   LIG A   1      -7.210  -1.316 130.447  0.00  0.00    +0.003 C 
ATOM     24  C   LIG A   1      -8.050  -0.337 130.824  0.00  0.00    -0.030 C 
ATOM     25  C   LIG A   1      -8.301   0.053 132.243  0.00  0.00    +0.035 C 
ENDBRANCH  20  23
BRANCH  18  26
ATOM     26  O   LIG A   1      -8.690  -3.668 126.380  0.00  0.00    -0.491 OA
ATOM     27  C   LIG A   1      -9.805  -2.977 125.823  0.00  0.00    +0.277 C 
ENDBRANCH  18  26
ENDBRANCH  16  17
ENDBRANCH  14  16
ENDBRANCH   1  14
BRANCH   1  28
ATOM     28  O   LIG A   1      -8.030  -2.011 123.084  0.00  0.00    -0.384 OA
ATOM     29  H   LIG A   1      -7.856  -2.667 122.390  0.00  0.00    +0.210 HD
ENDBRANCH   1  28
TORSDOF 10
ENDMDL
MODEL 8
REMARK VINA RESULT:      -6.4      3.209      6.907
REMARK  Name = NuBBE_2218
REMARK  16 active torsions:
REMARK  status: ('A' for Active; 'I' for Inactive)
REMARK    1  A    between atoms: C_1  and  C_3
REMARK    2  A    between atoms: C_1  and  O_18
REMARK    3  A    between atoms: C_1  and  C_19
REMARK    4  A    between atoms: C_3  and  O_5
REMARK    5  A    between atoms: C_3  and  C_17
REMARK    6  A    between atoms: O_5  and  C_6
REMARK    7  A    between atoms: C_7  and  O_8
REMARK    8  A    between atoms: O_8  and  C_9
REMARK    9  A    between atoms: C_11  and  C_14
REMARK   10  A    between atoms: C_15  and  C_16
REMARK   11  A    between atoms: C_21  and  O_22
REMARK   12  A    between atoms: O_22  and  C_23
REMARK   13  A    between atoms: C_24  and  O_29
REMARK   14  A    between atoms: C_25  and  O_27
REMARK   15  A    between atoms: O_27  and  C_28
REMARK   16  A    between atoms: O_29  and  C_30
REMARK                            x       y       z     vdW  Elec       q    Type
REMARK                         _______ _______ _______ _____ _____    ______ ____
ROOT
ATOM      1  C   LIG A   1      -7.443   4.268 126.581  0.00  0.00    +0.185 C 
ENDROOT
BRANCH   1   2
ATOM      2  C   LIG A   1      -7.948   3.796 127.925  0.00  0.00    -0.009 A 
ATOM      3  C   LIG A   1      -8.578   4.680 128.802  0.00  0.00    +0.056 A 
ATOM      4  C   LIG A   1      -9.236   4.202 129.947  0.00  0.00    +0.166 A 
ATOM      5  C   LIG A   1      -9.162   2.834 130.298  0.00  0.00    +0.203 A 
ATOM      6  C   LIG A   1      -8.406   1.967 129.494  0.00  0.00    +0.166 A 
ATOM      7  C   LIG A   1      -7.891   2.450 128.291  0.00  0.00    +0.056 A 
BRANCH   4   8
ATOM      8  O   LIG A   1      -9.983   5.031 130.755  0.00  0.00    -0.491 OA
ATOM      9  C   LIG A   1     -11.127   5.607 130.128  0.00  0.00    +0.277 C 
ENDBRANCH   4   8
BRANCH   6  10
ATOM     10  O   LIG A   1      -8.243   0.651 129.854  0.00  0.00    -0.491 OA
ATOM     11  C   LIG A   1      -6.943   0.291 130.326  0.00  0.00    +0.277 C 
ENDBRANCH   6  10
BRANCH   5  12
ATOM     12  O   LIG A   1      -9.855   2.468 131.426  0.00  0.00    -0.488 OA
ATOM     13  C   LIG A   1      -9.115   2.406 132.642  0.00  0.00    +0.277 C 
ENDBRANCH   5  12
ENDBRANCH   1   2
BRANCH   1  14
ATOM     14  C   LIG A   1      -6.391   3.386 125.854  0.00  0.00    +0.203 C 
ATOM     15  C   LIG A   1      -5.259   4.156 125.153  0.00  0.00    +0.055 C 
BRANCH  14  16
ATOM     16  O   LIG A   1      -7.061   2.484 124.965  0.00  0.00    -0.482 OA
BRANCH  16  17
ATOM     17  C   LIG A   1      -6.672   1.162 124.941  0.00  0.00    +0.163 A 
ATOM     18  C   LIG A   1      -7.265   0.339 123.962  0.00  0.00    +0.162 A 
ATOM     19  C   LIG A   1      -6.861  -1.009 123.851  0.00  0.00    +0.057 A 
ATOM     20  C   LIG A   1      -5.882  -1.530 124.692  0.00  0.00    -0.022 A 
ATOM     21  C   LIG A   1      -5.316  -0.716 125.694  0.00  0.00    +0.012 A 
ATOM     22  C   LIG A   1      -5.726   0.616 125.805  0.00  0.00    +0.050 A 
BRANCH  20  23
ATOM     23  C   LIG A   1      -5.492  -2.947 124.567  0.00  0.00    +0.003 C 
ATOM     24  C   LIG A   1      -4.708  -3.416 123.583  0.00  0.00    -0.030 C 
ATOM     25  C   LIG A   1      -4.273  -4.839 123.462  0.00  0.00    +0.035 C 
ENDBRANCH  20  23
BRANCH  18  26
ATOM     26  O   LIG A   1      -8.265   0.888 123.199  0.00  0.00    -0.491 OA
ATOM     27  C   LIG A   1      -9.450   0.114 123.038  0.00  0.00    +0.277 C 
ENDBRANCH  18  26
ENDBRANCH  16  17
ENDBRANCH  14  16
ENDBRANCH   1  14
BRANCH   1  28
ATOM     28  O   LIG A   1      -8.592   4.466 125.746  0.00  0.00    -0.384 OA
ATOM     29  H   LIG A   1      -8.281   4.849 124.910  0.00  0.00    +0.210 HD
ENDBRANCH   1  28
TORSDOF 10
ENDMDL
MODEL 9
REMARK VINA RESULT:      -6.3      1.993      8.142
REMARK  Name = NuBBE_2218
REMARK  16 active torsions:
REMARK  status: ('A' for Active; 'I' for Inactive)
REMARK    1  A    between atoms: C_1  and  C_3
REMARK    2  A    between atoms: C_1  and  O_18
REMARK    3  A    between atoms: C_1  and  C_19
REMARK    4  A    between atoms: C_3  and  O_5
REMARK    5  A    between atoms: C_3  and  C_17
REMARK    6  A    between atoms: O_5  and  C_6
REMARK    7  A    between atoms: C_7  and  O_8
REMARK    8  A    between atoms: O_8  and  C_9
REMARK    9  A    between atoms: C_11  and  C_14
REMARK   10  A    between atoms: C_15  and  C_16
REMARK   11  A    between atoms: C_21  and  O_22
REMARK   12  A    between atoms: O_22  and  C_23
REMARK   13  A    between atoms: C_24  and  O_29
REMARK   14  A    between atoms: C_25  and  O_27
REMARK   15  A    between atoms: O_27  and  C_28
REMARK   16  A    between atoms: O_29  and  C_30
REMARK                            x       y       z     vdW  Elec       q    Type
REMARK                         _______ _______ _______ _____ _____    ______ ____
ROOT
ATOM      1  C   LIG A   1      -7.330   1.534 127.238  0.00  0.00    +0.185 C 
ENDROOT
BRANCH   1   2
ATOM      2  C   LIG A   1      -7.591   0.046 127.175  0.00  0.00    -0.009 A 
ATOM      3  C   LIG A   1      -6.977  -0.826 128.073  0.00  0.00    +0.056 A 
ATOM      4  C   LIG A   1      -7.381  -2.168 128.157  0.00  0.00    +0.166 A 
ATOM      5  C   LIG A   1      -8.328  -2.688 127.244  0.00  0.00    +0.203 A 
ATOM      6  C   LIG A   1      -8.841  -1.848 126.244  0.00  0.00    +0.166 A 
ATOM      7  C   LIG A   1      -8.525  -0.490 126.286  0.00  0.00    +0.056 A 
BRANCH   4   8
ATOM      8  O   LIG A   1      -6.892  -3.016 129.126  0.00  0.00    -0.491 OA
ATOM      9  C   LIG A   1      -7.290  -2.696 130.458  0.00  0.00    +0.277 C 
ENDBRANCH   4   8
BRANCH   6  10
ATOM     10  O   LIG A   1      -9.696  -2.345 125.291  0.00  0.00    -0.491 OA
ATOM     11  C   LIG A   1      -9.077  -2.929 124.143  0.00  0.00    +0.277 C 
ENDBRANCH   6  10
BRANCH   5  12
ATOM     12  O   LIG A   1      -8.668  -4.008 127.423  0.00  0.00    -0.488 OA
ATOM     13  C   LIG A   1      -9.824  -4.272 128.212  0.00  0.00    +0.277 C 
ENDBRANCH   5  12
ENDBRANCH   1   2
BRANCH   1  14
ATOM     14  C   LIG A   1      -6.218   2.111 126.319  0.00  0.00    +0.203 C 
ATOM     15  C   LIG A   1      -4.837   2.266 126.977  0.00  0.00    +0.055 C 
BRANCH  14  16
ATOM     16  O   LIG A   1      -6.676   3.336 125.732  0.00  0.00    -0.482 OA
BRANCH  16  17
ATOM     17  C   LIG A   1      -6.489   3.537 124.382  0.00  0.00    +0.163 A 
ATOM     18  C   LIG A   1      -7.547   3.164 123.528  0.00  0.00    +0.162 A 
ATOM     19  C   LIG A   1      -7.436   3.402 122.141  0.00  0.00    +0.057 A 
ATOM     20  C   LIG A   1      -6.297   4.004 121.611  0.00  0.00    -0.022 A 
ATOM     21  C   LIG A   1      -5.225   4.341 122.461  0.00  0.00    +0.012 A 
ATOM     22  C   LIG A   1      -5.338   4.096 123.833  0.00  0.00    +0.050 A 
BRANCH  20  23
ATOM     23  C   LIG A   1      -6.199   4.222 120.156  0.00  0.00    +0.003 C 
ATOM     24  C   LIG A   1      -7.264   4.256 119.337  0.00  0.00    -0.030 C 
ATOM     25  C   LIG A   1      -7.187   4.513 117.869  0.00  0.00    +0.035 C 
ENDBRANCH  20  23
BRANCH  18  26
ATOM     26  O   LIG A   1      -8.619   2.524 124.096  0.00  0.00    -0.491 OA
ATOM     27  C   LIG A   1      -9.253   1.515 123.315  0.00  0.00    +0.277 C 
ENDBRANCH  18  26
ENDBRANCH  16  17
ENDBRANCH  14  16
ENDBRANCH   1  14
BRANCH   1  28
ATOM     28  O   LIG A   1      -8.579   2.191 126.985  0.00  0.00    -0.384 OA
ATOM     29  H   LIG A   1      -8.386   3.129 126.820  0.00  0.00    +0.210 HD
ENDBRANCH   1  28
TORSDOF 10
ENDMDL
