MODEL 1
REMARK VINA RESULT:      -7.4      0.000      0.000
REMARK  Name = NuBBE_350
REMARK  7 active torsions:
REMARK  status: ('A' for Active; 'I' for Inactive)
REMARK    1  A    between atoms: C_2  and  C_3
REMARK    2  A    between atoms: C_2  and  C_13
REMARK    3  A    between atoms: C_4  and  O_5
REMARK    4  A    between atoms: C_7  and  O_8
REMARK    5  A    between atoms: O_8  and  C_9
REMARK    6  A    between atoms: C_11  and  O_12
REMARK    7  A    between atoms: C_14  and  C_15
REMARK                            x       y       z     vdW  Elec       q    Type
REMARK                         _______ _______ _______ _____ _____    ______ ____
ROOT
ATOM      1  C   LIG A   1     -11.684   6.511 129.521  0.00  0.00    +0.157 C 
ATOM      2  C   LIG A   1     -12.110   7.329 128.276  0.00  0.00    +0.159 C 
ATOM      3  C   LIG A   1     -12.513   8.752 128.551  0.00  0.00    +0.050 C 
ATOM      4  C   LIG A   1     -12.790   9.197 129.790  0.00  0.00    +0.122 C 
ATOM      5  C   LIG A   1     -12.772   8.283 130.913  0.00  0.00    +0.087 C 
ATOM      6  C   LIG A   1     -12.273   7.041 130.811  0.00  0.00    +0.111 C 
ENDROOT
BRANCH   1   8
ATOM      7  O   LIG A   1      -9.495   7.563 129.620  0.00  0.00    -0.292 OA
ATOM      8  C   LIG A   1     -10.160   6.528 129.655  0.00  0.00    +0.169 C 
BRANCH   8   9
ATOM      9  C   LIG A   1      -9.494   5.204 129.853  0.00  0.00    +0.048 C 
ATOM     10  C   LIG A   1     -10.168   4.167 130.371  0.00  0.00    +0.011 C 
BRANCH  10  11
ATOM     11  C   LIG A   1      -9.590   2.831 130.578  0.00  0.00    -0.025 A 
ATOM     12  C   LIG A   1      -8.747   2.296 129.593  0.00  0.00    +0.008 A 
ATOM     13  C   LIG A   1      -8.189   1.024 129.744  0.00  0.00    +0.001 A 
ATOM     14  C   LIG A   1      -8.477   0.266 130.877  0.00  0.00    +0.000 A 
ATOM     15  C   LIG A   1      -9.330   0.775 131.852  0.00  0.00    +0.001 A 
ATOM     16  C   LIG A   1      -9.889   2.047 131.701  0.00  0.00    +0.008 A 
ENDBRANCH  10  11
ENDBRANCH   8   9
ENDBRANCH   1   8
BRANCH   2  17
ATOM     17  O   LIG A   1     -13.233   6.698 127.643  0.00  0.00    -0.387 OA
ATOM     18  H   LIG A   1     -13.518   5.976 128.231  0.00  0.00    +0.210 HD
ENDBRANCH   2  17
BRANCH   4  19
ATOM     19  O   LIG A   1     -13.158  10.468 130.152  0.00  0.00    -0.495 OA
ATOM     20  C   LIG A   1     -13.887  11.238 129.204  0.00  0.00    +0.277 C 
ENDBRANCH   4  19
BRANCH   6  21
ATOM     21  O   LIG A   1     -12.300   6.147 131.863  0.00  0.00    -0.510 OA
ATOM     22  H   LIG A   1     -13.029   5.517 131.722  0.00  0.00    +0.292 HD
ENDBRANCH   6  21
TORSDOF 6
ENDMDL
MODEL 2
REMARK VINA RESULT:      -7.2      8.988     10.569
REMARK  Name = NuBBE_350
REMARK  7 active torsions:
REMARK  status: ('A' for Active; 'I' for Inactive)
REMARK    1  A    between atoms: C_2  and  C_3
REMARK    2  A    between atoms: C_2  and  C_13
REMARK    3  A    between atoms: C_4  and  O_5
REMARK    4  A    between atoms: C_7  and  O_8
REMARK    5  A    between atoms: O_8  and  C_9
REMARK    6  A    between atoms: C_11  and  O_12
REMARK    7  A    between atoms: C_14  and  C_15
REMARK                            x       y       z     vdW  Elec       q    Type
REMARK                         _______ _______ _______ _____ _____    ______ ____
ROOT
ATOM      1  C   LIG A   1      -8.190  -3.412 124.696  0.00  0.00    +0.157 C 
ATOM      2  C   LIG A   1      -6.705  -2.981 124.792  0.00  0.00    +0.159 C 
ATOM      3  C   LIG A   1      -6.396  -1.620 124.231  0.00  0.00    +0.050 C 
ATOM      4  C   LIG A   1      -7.251  -0.956 123.433  0.00  0.00    +0.122 C 
ATOM      5  C   LIG A   1      -8.495  -1.575 123.026  0.00  0.00    +0.087 C 
ATOM      6  C   LIG A   1      -8.944  -2.708 123.589  0.00  0.00    +0.111 C 
ENDROOT
BRANCH   1   8
ATOM      7  O   LIG A   1     -10.124  -3.027 126.117  0.00  0.00    -0.292 OA
ATOM      8  C   LIG A   1      -8.900  -3.113 126.018  0.00  0.00    +0.169 C 
BRANCH   8   9
ATOM      9  C   LIG A   1      -8.028  -2.944 127.221  0.00  0.00    +0.048 C 
ATOM     10  C   LIG A   1      -8.392  -3.450 128.409  0.00  0.00    +0.011 C 
BRANCH  10  11
ATOM     11  C   LIG A   1      -7.581  -3.342 129.631  0.00  0.00    -0.025 A 
ATOM     12  C   LIG A   1      -7.872  -2.324 130.551  0.00  0.00    +0.008 A 
ATOM     13  C   LIG A   1      -7.117  -2.178 131.717  0.00  0.00    +0.001 A 
ATOM     14  C   LIG A   1      -6.053  -3.042 131.973  0.00  0.00    +0.000 A 
ATOM     15  C   LIG A   1      -5.739  -4.043 131.057  0.00  0.00    +0.001 A 
ATOM     16  C   LIG A   1      -6.494  -4.189 129.890  0.00  0.00    +0.008 A 
ENDBRANCH  10  11
ENDBRANCH   8   9
ENDBRANCH   1   8
BRANCH   2  17
ATOM     17  O   LIG A   1      -5.882  -3.916 124.078  0.00  0.00    -0.387 OA
ATOM     18  H   LIG A   1      -5.610  -4.596 124.720  0.00  0.00    +0.210 HD
ENDBRANCH   2  17
BRANCH   4  19
ATOM     19  O   LIG A   1      -7.074   0.285 122.876  0.00  0.00    -0.495 OA
ATOM     20  C   LIG A   1      -7.077   1.406 123.751  0.00  0.00    +0.277 C 
ENDBRANCH   4  19
BRANCH   6  21
ATOM     21  O   LIG A   1     -10.104  -3.331 123.171  0.00  0.00    -0.510 OA
ATOM     22  H   LIG A   1      -9.875  -4.009 122.510  0.00  0.00    +0.292 HD
ENDBRANCH   6  21
TORSDOF 6
ENDMDL
MODEL 3
REMARK VINA RESULT:      -7.2      2.792      3.104
REMARK  Name = NuBBE_350
REMARK  7 active torsions:
REMARK  status: ('A' for Active; 'I' for Inactive)
REMARK    1  A    between atoms: C_2  and  C_3
REMARK    2  A    between atoms: C_2  and  C_13
REMARK    3  A    between atoms: C_4  and  O_5
REMARK    4  A    between atoms: C_7  and  O_8
REMARK    5  A    between atoms: O_8  and  C_9
REMARK    6  A    between atoms: C_11  and  O_12
REMARK    7  A    between atoms: C_14  and  C_15
REMARK                            x       y       z     vdW  Elec       q    Type
REMARK                         _______ _______ _______ _____ _____    ______ ____
ROOT
ATOM      1  C   LIG A   1     -11.443   6.855 129.607  0.00  0.00    +0.157 C 
ATOM      2  C   LIG A   1     -11.674   7.370 128.164  0.00  0.00    +0.159 C 
ATOM      3  C   LIG A   1     -12.325   8.721 128.063  0.00  0.00    +0.050 C 
ATOM      4  C   LIG A   1     -12.945   9.304 129.105  0.00  0.00    +0.122 C 
ATOM      5  C   LIG A   1     -13.064   8.602 130.366  0.00  0.00    +0.087 C 
ATOM      6  C   LIG A   1     -12.387   7.470 130.617  0.00  0.00    +0.111 C 
ENDROOT
BRANCH   1   8
ATOM      7  O   LIG A   1      -9.284   7.961 129.445  0.00  0.00    -0.292 OA
ATOM      8  C   LIG A   1     -10.011   7.168 130.044  0.00  0.00    +0.169 C 
BRANCH   8   9
ATOM      9  C   LIG A   1      -9.521   6.469 131.272  0.00  0.00    +0.048 C 
ATOM     10  C   LIG A   1      -8.220   6.486 131.599  0.00  0.00    +0.011 C 
BRANCH  10  11
ATOM     11  C   LIG A   1      -7.664   5.840 132.797  0.00  0.00    -0.025 A 
ATOM     12  C   LIG A   1      -6.274   5.839 132.985  0.00  0.00    +0.008 A 
ATOM     13  C   LIG A   1      -5.705   5.224 134.102  0.00  0.00    +0.001 A 
ATOM     14  C   LIG A   1      -6.517   4.590 135.040  0.00  0.00    +0.000 A 
ATOM     15  C   LIG A   1      -7.897   4.564 134.855  0.00  0.00    +0.001 A 
ATOM     16  C   LIG A   1      -8.467   5.179 133.737  0.00  0.00    +0.008 A 
ENDBRANCH  10  11
ENDBRANCH   8   9
ENDBRANCH   1   8
BRANCH   2  17
ATOM     17  O   LIG A   1     -12.516   6.453 127.451  0.00  0.00    -0.387 OA
ATOM     18  H   LIG A   1     -12.062   5.591 127.458  0.00  0.00    +0.210 HD
ENDBRANCH   2  17
BRANCH   4  19
ATOM     19  O   LIG A   1     -13.562  10.529 129.125  0.00  0.00    -0.495 OA
ATOM     20  C   LIG A   1     -13.517  11.269 130.339  0.00  0.00    +0.277 C 
ENDBRANCH   4  19
BRANCH   6  21
ATOM     21  O   LIG A   1     -12.534   6.769 131.797  0.00  0.00    -0.510 OA
ATOM     22  H   LIG A   1     -13.426   6.937 132.153  0.00  0.00    +0.292 HD
ENDBRANCH   6  21
TORSDOF 6
ENDMDL
MODEL 4
REMARK VINA RESULT:      -7.0      3.638      4.683
REMARK  Name = NuBBE_350
REMARK  7 active torsions:
REMARK  status: ('A' for Active; 'I' for Inactive)
REMARK    1  A    between atoms: C_2  and  C_3
REMARK    2  A    between atoms: C_2  and  C_13
REMARK    3  A    between atoms: C_4  and  O_5
REMARK    4  A    between atoms: C_7  and  O_8
REMARK    5  A    between atoms: O_8  and  C_9
REMARK    6  A    between atoms: C_11  and  O_12
REMARK    7  A    between atoms: C_14  and  C_15
REMARK                            x       y       z     vdW  Elec       q    Type
REMARK                         _______ _______ _______ _____ _____    ______ ____
ROOT
ATOM      1  C   LIG A   1      -9.961   5.881 129.772  0.00  0.00    +0.157 C 
ATOM      2  C   LIG A   1      -9.768   6.892 128.615  0.00  0.00    +0.159 C 
ATOM      3  C   LIG A   1     -10.949   7.781 128.338  0.00  0.00    +0.050 C 
ATOM      4  C   LIG A   1     -12.176   7.523 128.823  0.00  0.00    +0.122 C 
ATOM      5  C   LIG A   1     -12.417   6.320 129.592  0.00  0.00    +0.087 C 
ATOM      6  C   LIG A   1     -11.414   5.545 130.034  0.00  0.00    +0.111 C 
ENDROOT
BRANCH   1   8
ATOM      7  O   LIG A   1      -9.974   6.463 132.132  0.00  0.00    -0.292 OA
ATOM      8  C   LIG A   1      -9.367   6.450 131.062  0.00  0.00    +0.169 C 
BRANCH   8   9
ATOM      9  C   LIG A   1      -7.974   6.988 130.973  0.00  0.00    +0.048 C 
ATOM     10  C   LIG A   1      -6.948   6.331 131.533  0.00  0.00    +0.011 C 
BRANCH  10  11
ATOM     11  C   LIG A   1      -5.550   6.785 131.473  0.00  0.00    -0.025 A 
ATOM     12  C   LIG A   1      -5.125   7.525 130.361  0.00  0.00    +0.008 A 
ATOM     13  C   LIG A   1      -3.802   7.962 130.257  0.00  0.00    +0.001 A 
ATOM     14  C   LIG A   1      -2.884   7.654 131.260  0.00  0.00    +0.000 A 
ATOM     15  C   LIG A   1      -3.288   6.900 132.359  0.00  0.00    +0.001 A 
ATOM     16  C   LIG A   1      -4.611   6.462 132.463  0.00  0.00    +0.008 A 
ENDBRANCH  10  11
ENDBRANCH   8   9
ENDBRANCH   1   8
BRANCH   2  17
ATOM     17  O   LIG A   1      -9.488   6.188 127.397  0.00  0.00    -0.387 OA
ATOM     18  H   LIG A   1      -9.231   5.283 127.648  0.00  0.00    +0.210 HD
ENDBRANCH   2  17
BRANCH   4  19
ATOM     19  O   LIG A   1     -13.315   8.266 128.639  0.00  0.00    -0.495 OA
ATOM     20  C   LIG A   1     -13.226   9.670 128.847  0.00  0.00    +0.277 C 
ENDBRANCH   4  19
BRANCH   6  21
ATOM     21  O   LIG A   1     -11.638   4.369 130.722  0.00  0.00    -0.510 OA
ATOM     22  H   LIG A   1     -10.849   3.802 130.640  0.00  0.00    +0.292 HD
ENDBRANCH   6  21
TORSDOF 6
ENDMDL
MODEL 5
REMARK VINA RESULT:      -7.0      8.129     11.376
REMARK  Name = NuBBE_350
REMARK  7 active torsions:
REMARK  status: ('A' for Active; 'I' for Inactive)
REMARK    1  A    between atoms: C_2  and  C_3
REMARK    2  A    between atoms: C_2  and  C_13
REMARK    3  A    between atoms: C_4  and  O_5
REMARK    4  A    between atoms: C_7  and  O_8
REMARK    5  A    between atoms: O_8  and  C_9
REMARK    6  A    between atoms: C_11  and  O_12
REMARK    7  A    between atoms: C_14  and  C_15
REMARK                            x       y       z     vdW  Elec       q    Type
REMARK                         _______ _______ _______ _____ _____    ______ ____
ROOT
ATOM      1  C   LIG A   1      -9.044  -0.406 124.762  0.00  0.00    +0.157 C 
ATOM      2  C   LIG A   1      -7.918  -0.897 125.705  0.00  0.00    +0.159 C 
ATOM      3  C   LIG A   1      -6.689  -1.424 125.016  0.00  0.00    +0.050 C 
ATOM      4  C   LIG A   1      -6.674  -1.742 123.710  0.00  0.00    +0.122 C 
ATOM      5  C   LIG A   1      -7.887  -1.647 122.924  0.00  0.00    +0.087 C 
ATOM      6  C   LIG A   1      -8.991  -1.042 123.390  0.00  0.00    +0.111 C 
ENDROOT
BRANCH   1   8
ATOM      7  O   LIG A   1      -9.397   1.912 125.402  0.00  0.00    -0.292 OA
ATOM      8  C   LIG A   1      -8.944   1.111 124.585  0.00  0.00    +0.169 C 
BRANCH   8   9
ATOM      9  C   LIG A   1      -8.240   1.594 123.357  0.00  0.00    +0.048 C 
ATOM     10  C   LIG A   1      -8.449   2.833 122.889  0.00  0.00    +0.011 C 
BRANCH  10  11
ATOM     11  C   LIG A   1      -7.782   3.388 121.702  0.00  0.00    -0.025 A 
ATOM     12  C   LIG A   1      -6.389   3.548 121.719  0.00  0.00    +0.008 A 
ATOM     13  C   LIG A   1      -5.718   4.084 120.618  0.00  0.00    +0.001 A 
ATOM     14  C   LIG A   1      -6.433   4.480 119.489  0.00  0.00    +0.000 A 
ATOM     15  C   LIG A   1      -7.819   4.348 119.467  0.00  0.00    +0.001 A 
ATOM     16  C   LIG A   1      -8.491   3.811 120.569  0.00  0.00    +0.008 A 
ENDBRANCH  10  11
ENDBRANCH   8   9
ENDBRANCH   1   8
BRANCH   2  17
ATOM     17  O   LIG A   1      -8.411  -1.959 126.535  0.00  0.00    -0.387 OA
ATOM     18  H   LIG A   1      -9.380  -1.866 126.565  0.00  0.00    +0.210 HD
ENDBRANCH   2  17
BRANCH   4  19
ATOM     19  O   LIG A   1      -5.614  -2.220 122.983  0.00  0.00    -0.495 OA
ATOM     20  C   LIG A   1      -4.915  -3.346 123.501  0.00  0.00    +0.277 C 
ENDBRANCH   4  19
BRANCH   6  21
ATOM     21  O   LIG A   1     -10.167  -0.993 122.666  0.00  0.00    -0.510 OA
ATOM     22  H   LIG A   1      -9.951  -1.009 121.716  0.00  0.00    +0.292 HD
ENDBRANCH   6  21
TORSDOF 6
ENDMDL
MODEL 6
REMARK VINA RESULT:      -6.9      8.545     11.330
REMARK  Name = NuBBE_350
REMARK  7 active torsions:
REMARK  status: ('A' for Active; 'I' for Inactive)
REMARK    1  A    between atoms: C_2  and  C_3
REMARK    2  A    between atoms: C_2  and  C_13
REMARK    3  A    between atoms: C_4  and  O_5
REMARK    4  A    between atoms: C_7  and  O_8
REMARK    5  A    between atoms: O_8  and  C_9
REMARK    6  A    between atoms: C_11  and  O_12
REMARK    7  A    between atoms: C_14  and  C_15
REMARK                            x       y       z     vdW  Elec       q    Type
REMARK                         _______ _______ _______ _____ _____    ______ ____
ROOT
ATOM      1  C   LIG A   1      -8.354  -1.206 125.926  0.00  0.00    +0.157 C 
ATOM      2  C   LIG A   1      -6.824  -1.096 126.139  0.00  0.00    +0.159 C 
ATOM      3  C   LIG A   1      -5.992  -2.034 125.308  0.00  0.00    +0.050 C 
ATOM      4  C   LIG A   1      -6.520  -3.094 124.670  0.00  0.00    +0.122 C 
ATOM      5  C   LIG A   1      -7.925  -3.409 124.821  0.00  0.00    +0.087 C 
ATOM      6  C   LIG A   1      -8.787  -2.558 125.401  0.00  0.00    +0.111 C 
ENDROOT
BRANCH   1   8
ATOM      7  O   LIG A   1      -9.932  -0.147 124.410  0.00  0.00    -0.292 OA
ATOM      8  C   LIG A   1      -8.816  -0.141 124.929  0.00  0.00    +0.169 C 
BRANCH   8   9
ATOM      9  C   LIG A   1      -7.838   0.947 124.615  0.00  0.00    +0.048 C 
ATOM     10  C   LIG A   1      -7.672   1.377 123.355  0.00  0.00    +0.011 C 
BRANCH  10  11
ATOM     11  C   LIG A   1      -6.747   2.453 122.970  0.00  0.00    -0.025 A 
ATOM     12  C   LIG A   1      -6.286   3.337 123.956  0.00  0.00    +0.008 A 
ATOM     13  C   LIG A   1      -5.417   4.382 123.629  0.00  0.00    +0.001 A 
ATOM     14  C   LIG A   1      -5.009   4.563 122.308  0.00  0.00    +0.000 A 
ATOM     15  C   LIG A   1      -5.478   3.706 121.315  0.00  0.00    +0.001 A 
ATOM     16  C   LIG A   1      -6.347   2.661 121.643  0.00  0.00    +0.008 A 
ENDBRANCH  10  11
ENDBRANCH   8   9
ENDBRANCH   1   8
BRANCH   2  17
ATOM     17  O   LIG A   1      -6.504  -1.369 127.511  0.00  0.00    -0.387 OA
ATOM     18  H   LIG A   1      -5.611  -1.015 127.667  0.00  0.00    +0.210 HD
ENDBRANCH   2  17
BRANCH   4  19
ATOM     19  O   LIG A   1      -5.859  -4.004 123.885  0.00  0.00    -0.495 OA
ATOM     20  C   LIG A   1      -4.480  -3.770 123.625  0.00  0.00    +0.277 C 
ENDBRANCH   4  19
BRANCH   6  21
ATOM     21  O   LIG A   1     -10.117  -2.873 125.594  0.00  0.00    -0.510 OA
ATOM     22  H   LIG A   1     -10.615  -2.640 124.790  0.00  0.00    +0.292 HD
ENDBRANCH   6  21
TORSDOF 6
ENDMDL
MODEL 7
REMARK VINA RESULT:      -6.8      7.443      9.635
REMARK  Name = NuBBE_350
REMARK  7 active torsions:
REMARK  status: ('A' for Active; 'I' for Inactive)
REMARK    1  A    between atoms: C_2  and  C_3
REMARK    2  A    between atoms: C_2  and  C_13
REMARK    3  A    between atoms: C_4  and  O_5
REMARK    4  A    between atoms: C_7  and  O_8
REMARK    5  A    between atoms: O_8  and  C_9
REMARK    6  A    between atoms: C_11  and  O_12
REMARK    7  A    between atoms: C_14  and  C_15
REMARK                            x       y       z     vdW  Elec       q    Type
REMARK                         _______ _______ _______ _____ _____    ______ ____
ROOT
ATOM      1  C   LIG A   1      -8.353   2.993 125.420  0.00  0.00    +0.157 C 
ATOM      2  C   LIG A   1      -7.814   4.438 125.282  0.00  0.00    +0.159 C 
ATOM      3  C   LIG A   1      -6.449   4.671 125.869  0.00  0.00    +0.050 C 
ATOM      4  C   LIG A   1      -5.869   3.802 126.716  0.00  0.00    +0.122 C 
ATOM      5  C   LIG A   1      -6.586   2.622 127.151  0.00  0.00    +0.087 C 
ATOM      6  C   LIG A   1      -7.734   2.233 126.573  0.00  0.00    +0.111 C 
ENDROOT
BRANCH   1   8
ATOM      7  O   LIG A   1      -7.956   0.987 124.105  0.00  0.00    -0.292 OA
ATOM      8  C   LIG A   1      -8.074   2.212 124.134  0.00  0.00    +0.169 C 
BRANCH   8   9
ATOM      9  C   LIG A   1      -7.964   3.015 122.877  0.00  0.00    +0.048 C 
ATOM     10  C   LIG A   1      -6.795   3.121 122.230  0.00  0.00    +0.011 C 
BRANCH  10  11
ATOM     11  C   LIG A   1      -6.611   3.874 120.980  0.00  0.00    -0.025 A 
ATOM     12  C   LIG A   1      -5.422   4.593 120.789  0.00  0.00    +0.008 A 
ATOM     13  C   LIG A   1      -5.215   5.333 119.623  0.00  0.00    +0.001 A 
ATOM     14  C   LIG A   1      -6.199   5.375 118.638  0.00  0.00    +0.000 A 
ATOM     15  C   LIG A   1      -7.394   4.684 118.824  0.00  0.00    +0.001 A 
ATOM     16  C   LIG A   1      -7.602   3.943 119.991  0.00  0.00    +0.008 A 
ENDBRANCH  10  11
ENDBRANCH   8   9
ENDBRANCH   1   8
BRANCH   2  17
ATOM     17  O   LIG A   1      -8.705   5.352 125.938  0.00  0.00    -0.387 OA
ATOM     18  H   LIG A   1      -8.329   5.527 126.820  0.00  0.00    +0.210 HD
ENDBRANCH   2  17
BRANCH   4  19
ATOM     19  O   LIG A   1      -4.633   3.911 127.302  0.00  0.00    -0.495 OA
ATOM     20  C   LIG A   1      -3.497   3.904 126.446  0.00  0.00    +0.277 C 
ENDBRANCH   4  19
BRANCH   6  21
ATOM     21  O   LIG A   1      -8.450   1.138 127.016  0.00  0.00    -0.510 OA
ATOM     22  H   LIG A   1      -8.208   0.365 126.474  0.00  0.00    +0.292 HD
ENDBRANCH   6  21
TORSDOF 6
ENDMDL
MODEL 8
REMARK VINA RESULT:      -6.7      1.393      2.655
REMARK  Name = NuBBE_350
REMARK  7 active torsions:
REMARK  status: ('A' for Active; 'I' for Inactive)
REMARK    1  A    between atoms: C_2  and  C_3
REMARK    2  A    between atoms: C_2  and  C_13
REMARK    3  A    between atoms: C_4  and  O_5
REMARK    4  A    between atoms: C_7  and  O_8
REMARK    5  A    between atoms: O_8  and  C_9
REMARK    6  A    between atoms: C_11  and  O_12
REMARK    7  A    between atoms: C_14  and  C_15
REMARK                            x       y       z     vdW  Elec       q    Type
REMARK                         _______ _______ _______ _____ _____    ______ ____
ROOT
ATOM      1  C   LIG A   1      -9.908   5.909 130.525  0.00  0.00    +0.157 C 
ATOM      2  C   LIG A   1     -11.434   5.648 130.581  0.00  0.00    +0.159 C 
ATOM      3  C   LIG A   1     -12.257   6.445 129.608  0.00  0.00    +0.050 C 
ATOM      4  C   LIG A   1     -11.771   7.520 128.962  0.00  0.00    +0.122 C 
ATOM      5  C   LIG A   1     -10.430   7.991 129.239  0.00  0.00    +0.087 C 
ATOM      6  C   LIG A   1      -9.558   7.269 129.961  0.00  0.00    +0.111 C 
ENDROOT
BRANCH   1   8
ATOM      7  O   LIG A   1      -8.912   5.046 128.482  0.00  0.00    -0.292 OA
ATOM      8  C   LIG A   1      -9.234   4.848 129.653  0.00  0.00    +0.169 C 
BRANCH   8   9
ATOM      9  C   LIG A   1      -8.956   3.529 130.303  0.00  0.00    +0.048 C 
ATOM     10  C   LIG A   1      -8.704   2.439 129.564  0.00  0.00    +0.011 C 
BRANCH  10  11
ATOM     11  C   LIG A   1      -8.403   1.115 130.128  0.00  0.00    -0.025 A 
ATOM     12  C   LIG A   1      -7.729   0.176 129.333  0.00  0.00    +0.008 A 
ATOM     13  C   LIG A   1      -7.437  -1.098 129.825  0.00  0.00    +0.001 A 
ATOM     14  C   LIG A   1      -7.827  -1.455 131.114  0.00  0.00    +0.000 A 
ATOM     15  C   LIG A   1      -8.518  -0.541 131.907  0.00  0.00    +0.001 A 
ATOM     16  C   LIG A   1      -8.810   0.735 131.414  0.00  0.00    +0.008 A 
ENDBRANCH  10  11
ENDBRANCH   8   9
ENDBRANCH   1   8
BRANCH   2  17
ATOM     17  O   LIG A   1     -11.930   5.958 131.891  0.00  0.00    -0.387 OA
ATOM     18  H   LIG A   1     -11.206   6.402 132.368  0.00  0.00    +0.210 HD
ENDBRANCH   2  17
BRANCH   4  19
ATOM     19  O   LIG A   1     -12.428   8.311 128.053  0.00  0.00    -0.495 OA
ATOM     20  C   LIG A   1     -13.330   9.287 128.561  0.00  0.00    +0.277 C 
ENDBRANCH   4  19
BRANCH   6  21
ATOM     21  O   LIG A   1      -8.295   7.735 130.273  0.00  0.00    -0.510 OA
ATOM     22  H   LIG A   1      -7.804   7.886 129.446  0.00  0.00    +0.292 HD
ENDBRANCH   6  21
TORSDOF 6
ENDMDL
MODEL 9
REMARK VINA RESULT:      -6.7      6.415      8.496
REMARK  Name = NuBBE_350
REMARK  7 active torsions:
REMARK  status: ('A' for Active; 'I' for Inactive)
REMARK    1  A    between atoms: C_2  and  C_3
REMARK    2  A    between atoms: C_2  and  C_13
REMARK    3  A    between atoms: C_4  and  O_5
REMARK    4  A    between atoms: C_7  and  O_8
REMARK    5  A    between atoms: O_8  and  C_9
REMARK    6  A    between atoms: C_11  and  O_12
REMARK    7  A    between atoms: C_14  and  C_15
REMARK                            x       y       z     vdW  Elec       q    Type
REMARK                         _______ _______ _______ _____ _____    ______ ____
ROOT
ATOM      1  C   LIG A   1      -7.691   3.814 124.296  0.00  0.00    +0.157 C 
ATOM      2  C   LIG A   1      -6.217   3.619 123.864  0.00  0.00    +0.159 C 
ATOM      3  C   LIG A   1      -5.214   3.629 124.984  0.00  0.00    +0.050 C 
ATOM      4  C   LIG A   1      -5.511   4.081 126.215  0.00  0.00    +0.122 C 
ATOM      5  C   LIG A   1      -6.817   4.644 126.488  0.00  0.00    +0.087 C 
ATOM      6  C   LIG A   1      -7.833   4.539 125.617  0.00  0.00    +0.111 C 
ENDROOT
BRANCH   1   8
ATOM      7  O   LIG A   1      -9.496   2.309 124.918  0.00  0.00    -0.292 OA
ATOM      8  C   LIG A   1      -8.376   2.452 124.427  0.00  0.00    +0.169 C 
BRANCH   8   9
ATOM      9  C   LIG A   1      -7.619   1.272 123.905  0.00  0.00    +0.048 C 
ATOM     10  C   LIG A   1      -7.235   0.285 124.728  0.00  0.00    +0.011 C 
BRANCH  10  11
ATOM     11  C   LIG A   1      -6.507  -0.915 124.289  0.00  0.00    -0.025 A 
ATOM     12  C   LIG A   1      -6.501  -1.244 122.926  0.00  0.00    +0.008 A 
ATOM     13  C   LIG A   1      -5.833  -2.383 122.469  0.00  0.00    +0.001 A 
ATOM     14  C   LIG A   1      -5.174  -3.215 123.371  0.00  0.00    +0.000 A 
ATOM     15  C   LIG A   1      -5.191  -2.912 124.731  0.00  0.00    +0.001 A 
ATOM     16  C   LIG A   1      -5.858  -1.773 125.188  0.00  0.00    +0.008 A 
ENDBRANCH  10  11
ENDBRANCH   8   9
ENDBRANCH   1   8
BRANCH   2  17
ATOM     17  O   LIG A   1      -5.834   4.665 122.959  0.00  0.00    -0.387 OA
ATOM     18  H   LIG A   1      -4.867   4.759 123.031  0.00  0.00    +0.210 HD
ENDBRANCH   2  17
BRANCH   4  19
ATOM     19  O   LIG A   1      -4.680   4.129 127.306  0.00  0.00    -0.495 OA
ATOM     20  C   LIG A   1      -4.004   5.353 127.564  0.00  0.00    +0.277 C 
ENDBRANCH   4  19
BRANCH   6  21
ATOM     21  O   LIG A   1      -9.066   5.118 125.847  0.00  0.00    -0.510 OA
ATOM     22  H   LIG A   1      -9.522   4.616 126.546  0.00  0.00    +0.292 HD
ENDBRANCH   6  21
TORSDOF 6
ENDMDL
