MODEL 1
REMARK VINA RESULT:      -9.5      0.000      0.000
REMARK  Name = NuBBE_1357
REMARK  14 active torsions:
REMARK  status: ('A' for Active; 'I' for Inactive)
REMARK    1  A    between atoms: C_1  and  C_2
REMARK    2  A    between atoms: C_2  and  C_40
REMARK    3  A    between atoms: C_3  and  O_4
REMARK    4  A    between atoms: O_4  and  C_5
REMARK    5  A    between atoms: C_5  and  C_6
REMARK    6  A    between atoms: C_10  and  C_38
REMARK    7  A    between atoms: C_14  and  C_37
REMARK    8  A    between atoms: C_19  and  C_36
REMARK    9  A    between atoms: C_21  and  O_32
REMARK   10  A    between atoms: C_23  and  C_31
REMARK   11  A    between atoms: C_26  and  C_27
REMARK   12  A    between atoms: C_26  and  C_30
REMARK   13  A    between atoms: O_32  and  C_33
REMARK   14  A    between atoms: C_33  and  C_34
REMARK                            x       y       z     vdW  Elec       q    Type
REMARK                         _______ _______ _______ _____ _____    ______ ____
ROOT
ATOM      1  C   LIG A   1     -11.996   6.551 131.948  0.00  0.00    +0.015 C 
ATOM      2  C   LIG A   1     -10.969   5.961 130.931  0.00  0.00    +0.005 C 
ATOM      3  C   LIG A   1     -11.078   6.870 129.640  0.00  0.00    +0.182 C 
ATOM      4  C   LIG A   1      -9.784   7.479 129.081  0.00  0.00    +0.046 C 
ATOM      5  C   LIG A   1      -8.639   7.630 130.076  0.00  0.00    +0.011 C 
ATOM      6  C   LIG A   1      -8.316   6.301 130.808  0.00  0.00    -0.025 C 
ATOM      7  C   LIG A   1      -9.567   5.990 131.677  0.00  0.00    +0.004 C 
ATOM      8  C   LIG A   1      -9.334   4.738 132.544  0.00  0.00    +0.005 C 
ATOM      9  C   LIG A   1      -8.133   4.840 133.470  0.00  0.00    +0.008 C 
ATOM     10  C   LIG A   1      -6.796   5.295 132.829  0.00  0.00    -0.019 C 
ATOM     11  C   LIG A   1      -7.078   6.472 131.794  0.00  0.00    +0.006 C 
ATOM     12  C   LIG A   1      -5.755   6.903 131.144  0.00  0.00    +0.031 C 
ATOM     13  C   LIG A   1      -4.947   5.775 130.607  0.00  0.00    -0.026 C 
ATOM     14  C   LIG A   1      -5.013   4.490 130.995  0.00  0.00    -0.063 C 
ATOM     15  C   LIG A   1      -5.843   4.055 132.229  0.00  0.00    -0.002 C 
ATOM     16  C   LIG A   1      -6.558   2.679 131.953  0.00  0.00    +0.057 C 
ATOM     17  C   LIG A   1      -6.436   2.040 130.559  0.00  0.00    +0.184 C 
ATOM     18  C   LIG A   1      -5.111   2.254 129.744  0.00  0.00    +0.011 C 
ATOM     19  C   LIG A   1      -4.205   3.381 130.311  0.00  0.00    +0.025 C 
ATOM     20  C   LIG A   1      -3.076   3.784 129.307  0.00  0.00    +0.014 C 
ATOM     21  C   LIG A   1      -3.396   3.868 127.786  0.00  0.00    -0.034 C 
ATOM     22  C   LIG A   1      -3.929   5.256 127.385  0.00  0.00    +0.011 C 
ATOM     23  C   LIG A   1      -4.394   2.793 127.325  0.00  0.00    +0.007 C 
ATOM     24  C   LIG A   1      -5.550   2.599 128.293  0.00  0.00    +0.011 C 
ATOM     25  C   LIG A   1      -2.077   3.655 127.007  0.00  0.00    +0.011 C 
ATOM     26  C   LIG A   1      -4.272   0.940 129.701  0.00  0.00    +0.015 C 
ATOM     27  C   LIG A   1      -4.802   3.655 133.339  0.00  0.00    +0.016 C 
ATOM     28  C   LIG A   1      -6.057   6.002 134.034  0.00  0.00    +0.012 C 
ATOM     29  C   LIG A   1      -8.044   5.232 129.749  0.00  0.00    +0.012 C 
ATOM     30  C   LIG A   1     -11.424   4.499 130.657  0.00  0.00    +0.015 C 
ENDROOT
BRANCH   3  31
ATOM     31  O   LIG A   1     -11.685   6.138 128.532  0.00  0.00    -0.461 OA
BRANCH  31  32
ATOM     32  C   LIG A   1     -12.433   6.840 127.634  0.00  0.00    +0.304 C 
ATOM     33  C   LIG A   1     -13.480   7.649 128.342  0.00  0.00    +0.136 C 
ATOM     34  O   LIG A   1     -12.230   6.901 126.429  0.00  0.00    -0.251 OA
ENDBRANCH  31  32
ENDBRANCH   3  31
BRANCH  17  35
ATOM     35  O   LIG A   1      -6.671   0.606 130.619  0.00  0.00    -0.461 OA
BRANCH  35  36
ATOM     36  C   LIG A   1      -7.906   0.152 130.282  0.00  0.00    +0.304 C 
ATOM     37  C   LIG A   1      -7.925  -0.169 128.815  0.00  0.00    +0.136 C 
ATOM     38  O   LIG A   1      -8.879   0.145 131.002  0.00  0.00    -0.251 OA
ENDBRANCH  35  36
ENDBRANCH  17  35
TORSDOF 4
ENDMDL
MODEL 2
REMARK VINA RESULT:      -9.4      3.813      8.185
REMARK  Name = NuBBE_1357
REMARK  14 active torsions:
REMARK  status: ('A' for Active; 'I' for Inactive)
REMARK    1  A    between atoms: C_1  and  C_2
REMARK    2  A    between atoms: C_2  and  C_40
REMARK    3  A    between atoms: C_3  and  O_4
REMARK    4  A    between atoms: O_4  and  C_5
REMARK    5  A    between atoms: C_5  and  C_6
REMARK    6  A    between atoms: C_10  and  C_38
REMARK    7  A    between atoms: C_14  and  C_37
REMARK    8  A    between atoms: C_19  and  C_36
REMARK    9  A    between atoms: C_21  and  O_32
REMARK   10  A    between atoms: C_23  and  C_31
REMARK   11  A    between atoms: C_26  and  C_27
REMARK   12  A    between atoms: C_26  and  C_30
REMARK   13  A    between atoms: O_32  and  C_33
REMARK   14  A    between atoms: C_33  and  C_34
REMARK                            x       y       z     vdW  Elec       q    Type
REMARK                         _______ _______ _______ _____ _____    ______ ____
ROOT
ATOM      1  C   LIG A   1      -6.134  -3.729 124.633  0.00  0.00    +0.015 C 
ATOM      2  C   LIG A   1      -6.655  -2.498 125.440  0.00  0.00    +0.005 C 
ATOM      3  C   LIG A   1      -8.205  -2.412 125.130  0.00  0.00    +0.182 C 
ATOM      4  C   LIG A   1      -9.173  -2.353 126.321  0.00  0.00    +0.046 C 
ATOM      5  C   LIG A   1      -8.645  -2.928 127.631  0.00  0.00    +0.011 C 
ATOM      6  C   LIG A   1      -7.280  -2.313 128.037  0.00  0.00    -0.025 C 
ATOM      7  C   LIG A   1      -6.271  -2.788 126.953  0.00  0.00    +0.004 C 
ATOM      8  C   LIG A   1      -4.842  -2.329 127.298  0.00  0.00    +0.005 C 
ATOM      9  C   LIG A   1      -4.343  -2.815 128.649  0.00  0.00    +0.008 C 
ATOM     10  C   LIG A   1      -5.280  -2.580 129.862  0.00  0.00    -0.019 C 
ATOM     11  C   LIG A   1      -6.784  -2.884 129.438  0.00  0.00    +0.006 C 
ATOM     12  C   LIG A   1      -7.711  -2.627 130.635  0.00  0.00    +0.031 C 
ATOM     13  C   LIG A   1      -7.498  -1.311 131.295  0.00  0.00    -0.026 C 
ATOM     14  C   LIG A   1      -6.377  -0.571 131.258  0.00  0.00    -0.063 C 
ATOM     15  C   LIG A   1      -5.061  -1.118 130.650  0.00  0.00    -0.002 C 
ATOM     16  C   LIG A   1      -4.312   0.014 129.852  0.00  0.00    +0.057 C 
ATOM     17  C   LIG A   1      -4.983   1.390 129.699  0.00  0.00    +0.184 C 
ATOM     18  C   LIG A   1      -5.897   1.917 130.862  0.00  0.00    +0.011 C 
ATOM     19  C   LIG A   1      -6.289   0.822 131.892  0.00  0.00    +0.025 C 
ATOM     20  C   LIG A   1      -7.445   1.294 132.834  0.00  0.00    +0.014 C 
ATOM     21  C   LIG A   1      -8.621   2.129 132.248  0.00  0.00    -0.034 C 
ATOM     22  C   LIG A   1      -9.746   1.233 131.697  0.00  0.00    +0.011 C 
ATOM     23  C   LIG A   1      -8.170   3.104 131.148  0.00  0.00    +0.007 C 
ATOM     24  C   LIG A   1      -7.171   2.491 130.180  0.00  0.00    +0.011 C 
ATOM     25  C   LIG A   1      -9.235   2.963 133.397  0.00  0.00    +0.011 C 
ATOM     26  C   LIG A   1      -5.194   3.074 131.635  0.00  0.00    +0.015 C 
ATOM     27  C   LIG A   1      -4.084  -1.354 131.861  0.00  0.00    +0.016 C 
ATOM     28  C   LIG A   1      -4.899  -3.770 130.830  0.00  0.00    +0.012 C 
ATOM     29  C   LIG A   1      -7.440  -0.792 128.078  0.00  0.00    +0.012 C 
ATOM     30  C   LIG A   1      -5.881  -1.265 124.895  0.00  0.00    +0.015 C 
ENDROOT
BRANCH   3  31
ATOM     31  O   LIG A   1      -8.512  -1.245 124.309  0.00  0.00    -0.461 OA
BRANCH  31  32
ATOM     32  C   LIG A   1      -9.265  -1.430 123.187  0.00  0.00    +0.304 C 
ATOM     33  C   LIG A   1      -9.294  -2.883 122.809  0.00  0.00    +0.136 C 
ATOM     34  O   LIG A   1      -9.919  -0.569 122.616  0.00  0.00    -0.251 OA
ENDBRANCH  31  32
ENDBRANCH   3  31
BRANCH  17  35
ATOM     35  O   LIG A   1      -3.997   2.425 129.432  0.00  0.00    -0.461 OA
BRANCH  35  36
ATOM     36  C   LIG A   1      -3.688   2.685 128.135  0.00  0.00    +0.304 C 
ATOM     37  C   LIG A   1      -4.840   2.271 127.265  0.00  0.00    +0.136 C 
ATOM     38  O   LIG A   1      -2.608   3.049 127.724  0.00  0.00    -0.251 OA
ENDBRANCH  35  36
ENDBRANCH  17  35
TORSDOF 4
ENDMDL
MODEL 3
REMARK VINA RESULT:      -8.9      2.407      4.378
REMARK  Name = NuBBE_1357
REMARK  14 active torsions:
REMARK  status: ('A' for Active; 'I' for Inactive)
REMARK    1  A    between atoms: C_1  and  C_2
REMARK    2  A    between atoms: C_2  and  C_40
REMARK    3  A    between atoms: C_3  and  O_4
REMARK    4  A    between atoms: O_4  and  C_5
REMARK    5  A    between atoms: C_5  and  C_6
REMARK    6  A    between atoms: C_10  and  C_38
REMARK    7  A    between atoms: C_14  and  C_37
REMARK    8  A    between atoms: C_19  and  C_36
REMARK    9  A    between atoms: C_21  and  O_32
REMARK   10  A    between atoms: C_23  and  C_31
REMARK   11  A    between atoms: C_26  and  C_27
REMARK   12  A    between atoms: C_26  and  C_30
REMARK   13  A    between atoms: O_32  and  C_33
REMARK   14  A    between atoms: C_33  and  C_34
REMARK                            x       y       z     vdW  Elec       q    Type
REMARK                         _______ _______ _______ _____ _____    ______ ____
ROOT
ATOM      1  C   LIG A   1     -11.658   3.802 130.305  0.00  0.00    +0.015 C 
ATOM      2  C   LIG A   1     -10.419   4.739 130.472  0.00  0.00    +0.005 C 
ATOM      3  C   LIG A   1     -10.802   5.746 131.631  0.00  0.00    +0.182 C 
ATOM      4  C   LIG A   1      -9.826   5.889 132.809  0.00  0.00    +0.046 C 
ATOM      5  C   LIG A   1      -8.900   4.702 133.048  0.00  0.00    +0.011 C 
ATOM      6  C   LIG A   1      -8.119   4.296 131.770  0.00  0.00    -0.025 C 
ATOM      7  C   LIG A   1      -9.195   3.774 130.775  0.00  0.00    +0.004 C 
ATOM      8  C   LIG A   1      -8.535   3.237 129.490  0.00  0.00    +0.005 C 
ATOM      9  C   LIG A   1      -7.534   2.118 129.729  0.00  0.00    +0.008 C 
ATOM     10  C   LIG A   1      -6.453   2.372 130.810  0.00  0.00    -0.019 C 
ATOM     11  C   LIG A   1      -7.115   3.096 132.064  0.00  0.00    +0.006 C 
ATOM     12  C   LIG A   1      -6.036   3.366 133.123  0.00  0.00    +0.031 C 
ATOM     13  C   LIG A   1      -4.815   4.027 132.589  0.00  0.00    -0.026 C 
ATOM     14  C   LIG A   1      -4.387   4.004 131.315  0.00  0.00    -0.063 C 
ATOM     15  C   LIG A   1      -5.049   3.095 130.250  0.00  0.00    -0.002 C 
ATOM     16  C   LIG A   1      -5.138   3.842 128.867  0.00  0.00    +0.057 C 
ATOM     17  C   LIG A   1      -4.687   5.310 128.780  0.00  0.00    +0.184 C 
ATOM     18  C   LIG A   1      -3.508   5.792 129.700  0.00  0.00    +0.011 C 
ATOM     19  C   LIG A   1      -3.164   4.800 130.844  0.00  0.00    +0.025 C 
ATOM     20  C   LIG A   1      -2.229   5.447 131.917  0.00  0.00    +0.014 C 
ATOM     21  C   LIG A   1      -2.462   6.926 132.346  0.00  0.00    -0.034 C 
ATOM     22  C   LIG A   1      -3.478   7.039 133.497  0.00  0.00    +0.011 C 
ATOM     23  C   LIG A   1      -2.919   7.820 131.181  0.00  0.00    +0.007 C 
ATOM     24  C   LIG A   1      -3.958   7.157 130.293  0.00  0.00    +0.011 C 
ATOM     25  C   LIG A   1      -1.121   7.487 132.876  0.00  0.00    +0.011 C 
ATOM     26  C   LIG A   1      -2.215   6.026 128.862  0.00  0.00    +0.015 C 
ATOM     27  C   LIG A   1      -4.005   1.960 129.933  0.00  0.00    +0.016 C 
ATOM     28  C   LIG A   1      -6.132   0.912 131.327  0.00  0.00    +0.012 C 
ATOM     29  C   LIG A   1      -7.380   5.532 131.255  0.00  0.00    +0.012 C 
ATOM     30  C   LIG A   1     -10.237   5.460 129.107  0.00  0.00    +0.015 C 
ENDROOT
BRANCH   3  31
ATOM     31  O   LIG A   1     -10.998   7.096 131.110  0.00  0.00    -0.461 OA
BRANCH  31  32
ATOM     32  C   LIG A   1     -12.276   7.540 130.946  0.00  0.00    +0.304 C 
ATOM     33  C   LIG A   1     -12.362   8.469 129.769  0.00  0.00    +0.136 C 
ATOM     34  O   LIG A   1     -13.250   7.166 131.585  0.00  0.00    -0.251 OA
ENDBRANCH  31  32
ENDBRANCH   3  31
BRANCH  17  35
ATOM     35  O   LIG A   1      -4.334   5.668 127.416  0.00  0.00    -0.461 OA
BRANCH  35  36
ATOM     36  C   LIG A   1      -4.970   5.018 126.407  0.00  0.00    +0.304 C 
ATOM     37  C   LIG A   1      -4.055   3.965 125.851  0.00  0.00    +0.136 C 
ATOM     38  O   LIG A   1      -6.039   5.328 125.928  0.00  0.00    -0.251 OA
ENDBRANCH  35  36
ENDBRANCH  17  35
TORSDOF 4
ENDMDL
MODEL 4
REMARK VINA RESULT:      -8.9      2.804      5.270
REMARK  Name = NuBBE_1357
REMARK  14 active torsions:
REMARK  status: ('A' for Active; 'I' for Inactive)
REMARK    1  A    between atoms: C_1  and  C_2
REMARK    2  A    between atoms: C_2  and  C_40
REMARK    3  A    between atoms: C_3  and  O_4
REMARK    4  A    between atoms: O_4  and  C_5
REMARK    5  A    between atoms: C_5  and  C_6
REMARK    6  A    between atoms: C_10  and  C_38
REMARK    7  A    between atoms: C_14  and  C_37
REMARK    8  A    between atoms: C_19  and  C_36
REMARK    9  A    between atoms: C_21  and  O_32
REMARK   10  A    between atoms: C_23  and  C_31
REMARK   11  A    between atoms: C_26  and  C_27
REMARK   12  A    between atoms: C_26  and  C_30
REMARK   13  A    between atoms: O_32  and  C_33
REMARK   14  A    between atoms: C_33  and  C_34
REMARK                            x       y       z     vdW  Elec       q    Type
REMARK                         _______ _______ _______ _____ _____    ______ ____
ROOT
ATOM      1  C   LIG A   1     -10.201   3.055 131.035  0.00  0.00    +0.015 C 
ATOM      2  C   LIG A   1      -9.156   4.187 131.288  0.00  0.00    +0.005 C 
ATOM      3  C   LIG A   1      -9.945   5.332 132.045  0.00  0.00    +0.182 C 
ATOM      4  C   LIG A   1      -9.359   5.855 133.365  0.00  0.00    +0.046 C 
ATOM      5  C   LIG A   1      -8.428   4.897 134.101  0.00  0.00    +0.011 C 
ATOM      6  C   LIG A   1      -7.284   4.374 133.194  0.00  0.00    -0.025 C 
ATOM      7  C   LIG A   1      -7.980   3.504 132.108  0.00  0.00    +0.004 C 
ATOM      8  C   LIG A   1      -6.936   2.833 131.194  0.00  0.00    +0.005 C 
ATOM      9  C   LIG A   1      -5.940   1.954 131.933  0.00  0.00    +0.008 C 
ATOM     10  C   LIG A   1      -5.237   2.581 133.164  0.00  0.00    -0.019 C 
ATOM     11  C   LIG A   1      -6.293   3.427 134.004  0.00  0.00    +0.006 C 
ATOM     12  C   LIG A   1      -5.588   4.066 135.209  0.00  0.00    +0.031 C 
ATOM     13  C   LIG A   1      -4.335   4.790 134.864  0.00  0.00    -0.026 C 
ATOM     14  C   LIG A   1      -3.565   4.583 133.783  0.00  0.00    -0.063 C 
ATOM     15  C   LIG A   1      -3.809   3.389 132.826  0.00  0.00    -0.002 C 
ATOM     16  C   LIG A   1      -3.576   3.825 131.331  0.00  0.00    +0.057 C 
ATOM     17  C   LIG A   1      -3.261   5.299 131.022  0.00  0.00    +0.184 C 
ATOM     18  C   LIG A   1      -2.442   6.131 132.073  0.00  0.00    +0.011 C 
ATOM     19  C   LIG A   1      -2.340   5.450 133.466  0.00  0.00    +0.025 C 
ATOM     20  C   LIG A   1      -1.813   6.435 134.560  0.00  0.00    +0.014 C 
ATOM     21  C   LIG A   1      -2.298   7.914 134.559  0.00  0.00    -0.034 C 
ATOM     22  C   LIG A   1      -3.604   8.092 135.356  0.00  0.00    +0.011 C 
ATOM     23  C   LIG A   1      -2.492   8.478 133.142  0.00  0.00    +0.007 C 
ATOM     24  C   LIG A   1      -3.171   7.499 132.198  0.00  0.00    +0.011 C 
ATOM     25  C   LIG A   1      -1.222   8.771 135.267  0.00  0.00    +0.011 C 
ATOM     26  C   LIG A   1      -0.994   6.393 131.560  0.00  0.00    +0.015 C 
ATOM     27  C   LIG A   1      -2.614   2.391 133.057  0.00  0.00    +0.016 C 
ATOM     28  C   LIG A   1      -4.937   1.321 134.070  0.00  0.00    +0.012 C 
ATOM     29  C   LIG A   1      -6.551   5.583 132.611  0.00  0.00    +0.012 C 
ATOM     30  C   LIG A   1      -8.666   4.644 129.886  0.00  0.00    +0.015 C 
ENDROOT
BRANCH   3  31
ATOM     31  O   LIG A   1     -10.115   6.504 131.192  0.00  0.00    -0.461 OA
BRANCH  31  32
ATOM     32  C   LIG A   1     -11.384   6.928 130.930  0.00  0.00    +0.304 C 
ATOM     33  C   LIG A   1     -11.425   7.701 129.644  0.00  0.00    +0.136 C 
ATOM     34  O   LIG A   1     -12.380   6.641 131.579  0.00  0.00    -0.251 OA
ENDBRANCH  31  32
ENDBRANCH   3  31
BRANCH  17  35
ATOM     35  O   LIG A   1      -2.574   5.430 129.748  0.00  0.00    -0.461 OA
BRANCH  35  36
ATOM     36  C   LIG A   1      -3.230   6.058 128.737  0.00  0.00    +0.304 C 
ATOM     37  C   LIG A   1      -2.288   7.012 128.062  0.00  0.00    +0.136 C 
ATOM     38  O   LIG A   1      -4.416   5.978 128.506  0.00  0.00    -0.251 OA
ENDBRANCH  35  36
ENDBRANCH  17  35
TORSDOF 4
ENDMDL
MODEL 5
REMARK VINA RESULT:      -8.7      2.635      4.733
REMARK  Name = NuBBE_1357
REMARK  14 active torsions:
REMARK  status: ('A' for Active; 'I' for Inactive)
REMARK    1  A    between atoms: C_1  and  C_2
REMARK    2  A    between atoms: C_2  and  C_40
REMARK    3  A    between atoms: C_3  and  O_4
REMARK    4  A    between atoms: O_4  and  C_5
REMARK    5  A    between atoms: C_5  and  C_6
REMARK    6  A    between atoms: C_10  and  C_38
REMARK    7  A    between atoms: C_14  and  C_37
REMARK    8  A    between atoms: C_19  and  C_36
REMARK    9  A    between atoms: C_21  and  O_32
REMARK   10  A    between atoms: C_23  and  C_31
REMARK   11  A    between atoms: C_26  and  C_27
REMARK   12  A    between atoms: C_26  and  C_30
REMARK   13  A    between atoms: O_32  and  C_33
REMARK   14  A    between atoms: C_33  and  C_34
REMARK                            x       y       z     vdW  Elec       q    Type
REMARK                         _______ _______ _______ _____ _____    ______ ____
ROOT
ATOM      1  C   LIG A   1      -8.310   4.960 133.962  0.00  0.00    +0.015 C 
ATOM      2  C   LIG A   1      -8.444   3.908 132.816  0.00  0.00    +0.005 C 
ATOM      3  C   LIG A   1      -8.927   4.722 131.547  0.00  0.00    +0.182 C 
ATOM      4  C   LIG A   1      -8.121   4.571 130.249  0.00  0.00    +0.046 C 
ATOM      5  C   LIG A   1      -6.671   4.131 130.418  0.00  0.00    +0.011 C 
ATOM      6  C   LIG A   1      -6.543   2.837 131.264  0.00  0.00    -0.025 C 
ATOM      7  C   LIG A   1      -7.014   3.227 132.694  0.00  0.00    +0.004 C 
ATOM      8  C   LIG A   1      -6.837   2.048 133.669  0.00  0.00    +0.005 C 
ATOM      9  C   LIG A   1      -5.409   1.536 133.769  0.00  0.00    +0.008 C 
ATOM     10  C   LIG A   1      -4.685   1.229 132.433  0.00  0.00    -0.019 C 
ATOM     11  C   LIG A   1      -5.026   2.366 131.372  0.00  0.00    +0.006 C 
ATOM     12  C   LIG A   1      -4.325   2.046 130.043  0.00  0.00    +0.031 C 
ATOM     13  C   LIG A   1      -4.541   0.654 129.564  0.00  0.00    -0.026 C 
ATOM     14  C   LIG A   1      -4.870  -0.408 130.318  0.00  0.00    -0.063 C 
ATOM     15  C   LIG A   1      -4.882  -0.335 131.866  0.00  0.00    -0.002 C 
ATOM     16  C   LIG A   1      -6.096  -1.153 132.446  0.00  0.00    +0.057 C 
ATOM     17  C   LIG A   1      -7.103  -1.789 131.472  0.00  0.00    +0.184 C 
ATOM     18  C   LIG A   1      -6.586  -2.300 130.080  0.00  0.00    +0.011 C 
ATOM     19  C   LIG A   1      -5.166  -1.787 129.715  0.00  0.00    +0.025 C 
ATOM     20  C   LIG A   1      -4.824  -2.038 128.210  0.00  0.00    +0.014 C 
ATOM     21  C   LIG A   1      -5.922  -1.828 127.127  0.00  0.00    -0.034 C 
ATOM     22  C   LIG A   1      -5.973  -0.370 126.634  0.00  0.00    +0.011 C 
ATOM     23  C   LIG A   1      -7.321  -2.246 127.608  0.00  0.00    +0.007 C 
ATOM     24  C   LIG A   1      -7.620  -1.803 129.030  0.00  0.00    +0.011 C 
ATOM     25  C   LIG A   1      -5.561  -2.701 125.903  0.00  0.00    +0.011 C 
ATOM     26  C   LIG A   1      -6.559  -3.857 130.040  0.00  0.00    +0.015 C 
ATOM     27  C   LIG A   1      -3.656  -1.192 132.354  0.00  0.00    +0.016 C 
ATOM     28  C   LIG A   1      -3.167   1.478 132.798  0.00  0.00    +0.012 C 
ATOM     29  C   LIG A   1      -7.419   1.761 130.620  0.00  0.00    +0.012 C 
ATOM     30  C   LIG A   1      -9.510   2.883 133.293  0.00  0.00    +0.015 C 
ENDROOT
BRANCH   3  31
ATOM     31  O   LIG A   1     -10.305   4.386 131.202  0.00  0.00    -0.461 OA
BRANCH  31  32
ATOM     32  C   LIG A   1     -11.106   5.380 130.724  0.00  0.00    +0.304 C 
ATOM     33  C   LIG A   1     -11.269   6.463 131.751  0.00  0.00    +0.136 C 
ATOM     34  O   LIG A   1     -11.552   5.453 129.587  0.00  0.00    -0.251 OA
ENDBRANCH  31  32
ENDBRANCH   3  31
BRANCH  17  35
ATOM     35  O   LIG A   1      -7.805  -2.897 132.097  0.00  0.00    -0.461 OA
BRANCH  35  36
ATOM     36  C   LIG A   1      -7.696  -3.038 133.444  0.00  0.00    +0.304 C 
ATOM     37  C   LIG A   1      -6.687  -4.109 133.743  0.00  0.00    +0.136 C 
ATOM     38  O   LIG A   1      -8.398  -2.500 134.271  0.00  0.00    -0.251 OA
ENDBRANCH  35  36
ENDBRANCH  17  35
TORSDOF 4
ENDMDL
MODEL 6
REMARK VINA RESULT:      -8.6      1.578      2.017
REMARK  Name = NuBBE_1357
REMARK  14 active torsions:
REMARK  status: ('A' for Active; 'I' for Inactive)
REMARK    1  A    between atoms: C_1  and  C_2
REMARK    2  A    between atoms: C_2  and  C_40
REMARK    3  A    between atoms: C_3  and  O_4
REMARK    4  A    between atoms: O_4  and  C_5
REMARK    5  A    between atoms: C_5  and  C_6
REMARK    6  A    between atoms: C_10  and  C_38
REMARK    7  A    between atoms: C_14  and  C_37
REMARK    8  A    between atoms: C_19  and  C_36
REMARK    9  A    between atoms: C_21  and  O_32
REMARK   10  A    between atoms: C_23  and  C_31
REMARK   11  A    between atoms: C_26  and  C_27
REMARK   12  A    between atoms: C_26  and  C_30
REMARK   13  A    between atoms: O_32  and  C_33
REMARK   14  A    between atoms: C_33  and  C_34
REMARK                            x       y       z     vdW  Elec       q    Type
REMARK                         _______ _______ _______ _____ _____    ______ ____
ROOT
ATOM      1  C   LIG A   1     -11.740   6.090 131.928  0.00  0.00    +0.015 C 
ATOM      2  C   LIG A   1     -10.707   5.785 130.797  0.00  0.00    +0.005 C 
ATOM      3  C   LIG A   1     -10.352   7.188 130.156  0.00  0.00    +0.182 C 
ATOM      4  C   LIG A   1      -8.868   7.571 130.047  0.00  0.00    +0.046 C 
ATOM      5  C   LIG A   1      -7.931   6.873 131.026  0.00  0.00    +0.011 C 
ATOM      6  C   LIG A   1      -8.075   5.330 130.981  0.00  0.00    -0.025 C 
ATOM      7  C   LIG A   1      -9.506   5.030 131.511  0.00  0.00    +0.004 C 
ATOM      8  C   LIG A   1      -9.743   3.512 131.617  0.00  0.00    +0.005 C 
ATOM      9  C   LIG A   1      -8.750   2.790 132.514  0.00  0.00    +0.008 C 
ATOM     10  C   LIG A   1      -7.247   3.073 132.256  0.00  0.00    -0.019 C 
ATOM     11  C   LIG A   1      -7.041   4.625 131.966  0.00  0.00    +0.006 C 
ATOM     12  C   LIG A   1      -5.555   4.897 131.689  0.00  0.00    +0.031 C 
ATOM     13  C   LIG A   1      -4.950   3.984 130.682  0.00  0.00    -0.026 C 
ATOM     14  C   LIG A   1      -5.389   2.758 130.350  0.00  0.00    -0.063 C 
ATOM     15  C   LIG A   1      -6.517   2.054 131.145  0.00  0.00    -0.002 C 
ATOM     16  C   LIG A   1      -7.471   1.268 130.169  0.00  0.00    +0.057 C 
ATOM     17  C   LIG A   1      -7.241   1.376 128.651  0.00  0.00    +0.184 C 
ATOM     18  C   LIG A   1      -5.772   1.547 128.122  0.00  0.00    +0.011 C 
ATOM     19  C   LIG A   1      -4.751   1.932 129.227  0.00  0.00    +0.025 C 
ATOM     20  C   LIG A   1      -3.389   2.408 128.623  0.00  0.00    +0.014 C 
ATOM     21  C   LIG A   1      -3.386   3.306 127.351  0.00  0.00    -0.034 C 
ATOM     22  C   LIG A   1      -3.491   4.802 127.701  0.00  0.00    +0.011 C 
ATOM     23  C   LIG A   1      -4.503   2.941 126.360  0.00  0.00    +0.007 C 
ATOM     24  C   LIG A   1      -5.834   2.662 127.039  0.00  0.00    +0.011 C 
ATOM     25  C   LIG A   1      -2.031   3.110 126.631  0.00  0.00    +0.011 C 
ATOM     26  C   LIG A   1      -5.275   0.235 127.444  0.00  0.00    +0.015 C 
ATOM     27  C   LIG A   1      -5.829   0.879 131.934  0.00  0.00    +0.016 C 
ATOM     28  C   LIG A   1      -6.605   2.854 133.684  0.00  0.00    +0.012 C 
ATOM     29  C   LIG A   1      -7.867   4.877 129.535  0.00  0.00    +0.012 C 
ATOM     30  C   LIG A   1     -11.433   4.850 129.790  0.00  0.00    +0.015 C 
ENDROOT
BRANCH   3  31
ATOM     31  O   LIG A   1     -10.893   7.300 128.805  0.00  0.00    -0.461 OA
BRANCH  31  32
ATOM     32  C   LIG A   1     -12.165   7.768 128.661  0.00  0.00    +0.304 C 
ATOM     33  C   LIG A   1     -12.399   8.939 129.571  0.00  0.00    +0.136 C 
ATOM     34  O   LIG A   1     -12.982   7.375 127.840  0.00  0.00    -0.251 OA
ENDBRANCH  31  32
ENDBRANCH   3  31
BRANCH  17  35
ATOM     35  O   LIG A   1      -7.814   0.237 127.954  0.00  0.00    -0.461 OA
BRANCH  35  36
ATOM     36  C   LIG A   1      -8.678   0.487 126.936  0.00  0.00    +0.304 C 
ATOM     37  C   LIG A   1      -8.670  -0.680 125.991  0.00  0.00    +0.136 C 
ATOM     38  O   LIG A   1      -9.250   1.534 126.734  0.00  0.00    -0.251 OA
ENDBRANCH  35  36
ENDBRANCH  17  35
TORSDOF 4
ENDMDL
MODEL 7
REMARK VINA RESULT:      -8.4      3.459      8.840
REMARK  Name = NuBBE_1357
REMARK  14 active torsions:
REMARK  status: ('A' for Active; 'I' for Inactive)
REMARK    1  A    between atoms: C_1  and  C_2
REMARK    2  A    between atoms: C_2  and  C_40
REMARK    3  A    between atoms: C_3  and  O_4
REMARK    4  A    between atoms: O_4  and  C_5
REMARK    5  A    between atoms: C_5  and  C_6
REMARK    6  A    between atoms: C_10  and  C_38
REMARK    7  A    between atoms: C_14  and  C_37
REMARK    8  A    between atoms: C_19  and  C_36
REMARK    9  A    between atoms: C_21  and  O_32
REMARK   10  A    between atoms: C_23  and  C_31
REMARK   11  A    between atoms: C_26  and  C_27
REMARK   12  A    between atoms: C_26  and  C_30
REMARK   13  A    between atoms: O_32  and  C_33
REMARK   14  A    between atoms: C_33  and  C_34
REMARK                            x       y       z     vdW  Elec       q    Type
REMARK                         _______ _______ _______ _____ _____    ______ ____
ROOT
ATOM      1  C   LIG A   1      -5.773  -5.420 131.138  0.00  0.00    +0.015 C 
ATOM      2  C   LIG A   1      -5.441  -3.897 131.042  0.00  0.00    +0.005 C 
ATOM      3  C   LIG A   1      -3.870  -3.794 131.200  0.00  0.00    +0.182 C 
ATOM      4  C   LIG A   1      -3.090  -3.021 130.126  0.00  0.00    +0.046 C 
ATOM      5  C   LIG A   1      -3.771  -2.910 128.766  0.00  0.00    +0.011 C 
ATOM      6  C   LIG A   1      -5.211  -2.344 128.873  0.00  0.00    -0.025 C 
ATOM      7  C   LIG A   1      -6.025  -3.423 129.644  0.00  0.00    +0.004 C 
ATOM      8  C   LIG A   1      -7.512  -3.029 129.728  0.00  0.00    +0.005 C 
ATOM      9  C   LIG A   1      -8.175  -2.817 128.377  0.00  0.00    +0.008 C 
ATOM     10  C   LIG A   1      -7.439  -1.887 127.379  0.00  0.00    -0.019 C 
ATOM     11  C   LIG A   1      -5.875  -2.180 127.435  0.00  0.00    +0.006 C 
ATOM     12  C   LIG A   1      -5.147  -1.241 126.462  0.00  0.00    +0.031 C 
ATOM     13  C   LIG A   1      -5.524   0.191 126.607  0.00  0.00    -0.026 C 
ATOM     14  C   LIG A   1      -6.666   0.668 127.131  0.00  0.00    -0.063 C 
ATOM     15  C   LIG A   1      -7.848  -0.267 127.490  0.00  0.00    -0.002 C 
ATOM     16  C   LIG A   1      -8.533   0.203 128.828  0.00  0.00    +0.057 C 
ATOM     17  C   LIG A   1      -7.922   1.380 129.608  0.00  0.00    +0.184 C 
ATOM     18  C   LIG A   1      -7.216   2.530 128.806  0.00  0.00    +0.011 C 
ATOM     19  C   LIG A   1      -6.920   2.168 127.325  0.00  0.00    +0.025 C 
ATOM     20  C   LIG A   1      -5.940   3.188 126.658  0.00  0.00    +0.014 C 
ATOM     21  C   LIG A   1      -4.738   3.745 127.476  0.00  0.00    -0.034 C 
ATOM     22  C   LIG A   1      -3.499   2.838 127.369  0.00  0.00    +0.011 C 
ATOM     23  C   LIG A   1      -5.076   3.963 128.960  0.00  0.00    +0.007 C 
ATOM     24  C   LIG A   1      -5.889   2.828 129.559  0.00  0.00    +0.011 C 
ATOM     25  C   LIG A   1      -4.343   5.114 126.874  0.00  0.00    +0.011 C 
ATOM     26  C   LIG A   1      -8.085   3.824 128.818  0.00  0.00    +0.015 C 
ATOM     27  C   LIG A   1      -8.977   0.029 126.434  0.00  0.00    +0.016 C 
ATOM     28  C   LIG A   1      -7.893  -2.457 125.976  0.00  0.00    +0.012 C 
ATOM     29  C   LIG A   1      -5.141  -1.008 129.613  0.00  0.00    +0.012 C 
ATOM     30  C   LIG A   1      -6.193  -3.216 132.220  0.00  0.00    +0.015 C 
ENDROOT
BRANCH   3  31
ATOM     31  O   LIG A   1      -3.509  -3.178 132.474  0.00  0.00    -0.461 OA
BRANCH  31  32
ATOM     32  C   LIG A   1      -3.020  -3.984 133.459  0.00  0.00    +0.304 C 
ATOM     33  C   LIG A   1      -3.496  -3.517 134.804  0.00  0.00    +0.136 C 
ATOM     34  O   LIG A   1      -2.372  -5.007 133.288  0.00  0.00    -0.251 OA
ENDBRANCH  31  32
ENDBRANCH   3  31
BRANCH  17  35
ATOM     35  O   LIG A   1      -8.912   2.007 130.468  0.00  0.00    -0.461 OA
BRANCH  35  36
ATOM     36  C   LIG A   1      -9.100   1.480 131.706  0.00  0.00    +0.304 C 
ATOM     37  C   LIG A   1      -8.255   2.234 132.691  0.00  0.00    +0.136 C 
ATOM     38  O   LIG A   1      -9.727   0.475 131.960  0.00  0.00    -0.251 OA
ENDBRANCH  35  36
ENDBRANCH  17  35
TORSDOF 4
ENDMDL
MODEL 8
REMARK VINA RESULT:      -8.4      3.119      6.655
REMARK  Name = NuBBE_1357
REMARK  14 active torsions:
REMARK  status: ('A' for Active; 'I' for Inactive)
REMARK    1  A    between atoms: C_1  and  C_2
REMARK    2  A    between atoms: C_2  and  C_40
REMARK    3  A    between atoms: C_3  and  O_4
REMARK    4  A    between atoms: O_4  and  C_5
REMARK    5  A    between atoms: C_5  and  C_6
REMARK    6  A    between atoms: C_10  and  C_38
REMARK    7  A    between atoms: C_14  and  C_37
REMARK    8  A    between atoms: C_19  and  C_36
REMARK    9  A    between atoms: C_21  and  O_32
REMARK   10  A    between atoms: C_23  and  C_31
REMARK   11  A    between atoms: C_26  and  C_27
REMARK   12  A    between atoms: C_26  and  C_30
REMARK   13  A    between atoms: O_32  and  C_33
REMARK   14  A    between atoms: C_33  and  C_34
REMARK                            x       y       z     vdW  Elec       q    Type
REMARK                         _______ _______ _______ _____ _____    ______ ____
ROOT
ATOM      1  C   LIG A   1      -6.498   3.000 122.995  0.00  0.00    +0.015 C 
ATOM      2  C   LIG A   1      -6.947   2.529 124.415  0.00  0.00    +0.005 C 
ATOM      3  C   LIG A   1      -7.147   0.963 124.299  0.00  0.00    +0.182 C 
ATOM      4  C   LIG A   1      -6.421   0.071 125.317  0.00  0.00    +0.046 C 
ATOM      5  C   LIG A   1      -5.181   0.678 125.963  0.00  0.00    +0.011 C 
ATOM      6  C   LIG A   1      -5.466   2.065 126.597  0.00  0.00    -0.025 C 
ATOM      7  C   LIG A   1      -5.800   3.006 125.404  0.00  0.00    +0.004 C 
ATOM      8  C   LIG A   1      -6.003   4.453 125.890  0.00  0.00    +0.005 C 
ATOM      9  C   LIG A   1      -4.806   5.034 126.625  0.00  0.00    +0.008 C 
ATOM     10  C   LIG A   1      -4.207   4.174 127.767  0.00  0.00    -0.019 C 
ATOM     11  C   LIG A   1      -4.172   2.647 127.318  0.00  0.00    +0.006 C 
ATOM     12  C   LIG A   1      -3.600   1.795 128.461  0.00  0.00    +0.031 C 
ATOM     13  C   LIG A   1      -4.235   2.047 129.782  0.00  0.00    -0.026 C 
ATOM     14  C   LIG A   1      -4.882   3.164 130.157  0.00  0.00    -0.063 C 
ATOM     15  C   LIG A   1      -4.878   4.440 129.278  0.00  0.00    -0.002 C 
ATOM     16  C   LIG A   1      -6.289   5.139 129.316  0.00  0.00    +0.057 C 
ATOM     17  C   LIG A   1      -7.439   4.459 130.079  0.00  0.00    +0.184 C 
ATOM     18  C   LIG A   1      -7.100   3.619 131.361  0.00  0.00    +0.011 C 
ATOM     19  C   LIG A   1      -5.590   3.290 131.511  0.00  0.00    +0.025 C 
ATOM     20  C   LIG A   1      -5.335   2.195 132.598  0.00  0.00    +0.014 C 
ATOM     21  C   LIG A   1      -6.309   0.985 132.711  0.00  0.00    -0.034 C 
ATOM     22  C   LIG A   1      -5.901  -0.172 131.779  0.00  0.00    +0.011 C 
ATOM     23  C   LIG A   1      -7.771   1.368 132.429  0.00  0.00    +0.007 C 
ATOM     24  C   LIG A   1      -7.924   2.305 131.242  0.00  0.00    +0.011 C 
ATOM     25  C   LIG A   1      -6.231   0.442 134.157  0.00  0.00    +0.011 C 
ATOM     26  C   LIG A   1      -7.559   4.368 132.649  0.00  0.00    +0.015 C 
ATOM     27  C   LIG A   1      -3.982   5.490 130.035  0.00  0.00    +0.016 C 
ATOM     28  C   LIG A   1      -2.689   4.614 127.771  0.00  0.00    +0.012 C 
ATOM     29  C   LIG A   1      -6.631   1.908 127.576  0.00  0.00    +0.012 C 
ATOM     30  C   LIG A   1      -8.282   3.268 124.712  0.00  0.00    +0.015 C 
ENDROOT
BRANCH   3  31
ATOM     31  O   LIG A   1      -8.560   0.606 124.391  0.00  0.00    -0.461 OA
BRANCH  31  32
ATOM     32  C   LIG A   1      -9.102  -0.129 123.380  0.00  0.00    +0.304 C 
ATOM     33  C   LIG A   1     -10.113   0.683 122.624  0.00  0.00    +0.136 C 
ATOM     34  O   LIG A   1      -8.754  -1.254 123.049  0.00  0.00    -0.251 OA
ENDBRANCH  31  32
ENDBRANCH   3  31
BRANCH  17  35
ATOM     35  O   LIG A   1      -8.455   5.427 130.462  0.00  0.00    -0.461 OA
BRANCH  35  36
ATOM     36  C   LIG A   1      -9.573   5.508 129.694  0.00  0.00    +0.304 C 
ATOM     37  C   LIG A   1     -10.713   4.857 130.422  0.00  0.00    +0.136 C 
ATOM     38  O   LIG A   1      -9.619   5.903 128.551  0.00  0.00    -0.251 OA
ENDBRANCH  35  36
ENDBRANCH  17  35
TORSDOF 4
ENDMDL
MODEL 9
REMARK VINA RESULT:      -8.4      3.405      6.965
REMARK  Name = NuBBE_1357
REMARK  14 active torsions:
REMARK  status: ('A' for Active; 'I' for Inactive)
REMARK    1  A    between atoms: C_1  and  C_2
REMARK    2  A    between atoms: C_2  and  C_40
REMARK    3  A    between atoms: C_3  and  O_4
REMARK    4  A    between atoms: O_4  and  C_5
REMARK    5  A    between atoms: C_5  and  C_6
REMARK    6  A    between atoms: C_10  and  C_38
REMARK    7  A    between atoms: C_14  and  C_37
REMARK    8  A    between atoms: C_19  and  C_36
REMARK    9  A    between atoms: C_21  and  O_32
REMARK   10  A    between atoms: C_23  and  C_31
REMARK   11  A    between atoms: C_26  and  C_27
REMARK   12  A    between atoms: C_26  and  C_30
REMARK   13  A    between atoms: O_32  and  C_33
REMARK   14  A    between atoms: C_33  and  C_34
REMARK                            x       y       z     vdW  Elec       q    Type
REMARK                         _______ _______ _______ _____ _____    ______ ____
ROOT
ATOM      1  C   LIG A   1      -8.203  -2.560 130.305  0.00  0.00    +0.015 C 
ATOM      2  C   LIG A   1      -7.175  -1.404 130.515  0.00  0.00    +0.005 C 
ATOM      3  C   LIG A   1      -6.115  -1.561 129.349  0.00  0.00    +0.182 C 
ATOM      4  C   LIG A   1      -5.822  -0.331 128.476  0.00  0.00    +0.046 C 
ATOM      5  C   LIG A   1      -6.923   0.722 128.427  0.00  0.00    +0.011 C 
ATOM      6  C   LIG A   1      -7.364   1.181 129.841  0.00  0.00    -0.025 C 
ATOM      7  C   LIG A   1      -8.029  -0.065 130.493  0.00  0.00    +0.004 C 
ATOM      8  C   LIG A   1      -8.610   0.286 131.876  0.00  0.00    +0.005 C 
ATOM      9  C   LIG A   1      -9.637   1.406 131.850  0.00  0.00    +0.008 C 
ATOM     10  C   LIG A   1      -9.234   2.703 131.103  0.00  0.00    -0.019 C 
ATOM     11  C   LIG A   1      -8.469   2.325 129.759  0.00  0.00    +0.006 C 
ATOM     12  C   LIG A   1      -8.050   3.612 129.033  0.00  0.00    +0.031 C 
ATOM     13  C   LIG A   1      -7.348   4.595 129.901  0.00  0.00    -0.026 C 
ATOM     14  C   LIG A   1      -7.431   4.683 131.239  0.00  0.00    -0.063 C 
ATOM     15  C   LIG A   1      -8.458   3.849 132.046  0.00  0.00    -0.002 C 
ATOM     16  C   LIG A   1      -7.819   3.346 133.394  0.00  0.00    +0.057 C 
ATOM     17  C   LIG A   1      -6.333   3.634 133.671  0.00  0.00    +0.184 C 
ATOM     18  C   LIG A   1      -5.708   4.964 133.117  0.00  0.00    +0.011 C 
ATOM     19  C   LIG A   1      -6.590   5.673 132.053  0.00  0.00    +0.025 C 
ATOM     20  C   LIG A   1      -5.804   6.793 131.296  0.00  0.00    +0.014 C 
ATOM     21  C   LIG A   1      -4.319   6.553 130.897  0.00  0.00    -0.034 C 
ATOM     22  C   LIG A   1      -4.194   5.860 129.528  0.00  0.00    +0.011 C 
ATOM     23  C   LIG A   1      -3.543   5.739 131.946  0.00  0.00    +0.007 C 
ATOM     24  C   LIG A   1      -4.338   4.567 132.497  0.00  0.00    +0.011 C 
ATOM     25  C   LIG A   1      -3.631   7.932 130.764  0.00  0.00    +0.011 C 
ATOM     26  C   LIG A   1      -5.446   5.974 134.274  0.00  0.00    +0.015 C 
ATOM     27  C   LIG A   1      -9.538   4.869 132.566  0.00  0.00    +0.016 C 
ATOM     28  C   LIG A   1     -10.627   3.267 130.613  0.00  0.00    +0.012 C 
ATOM     29  C   LIG A   1      -6.121   1.656 130.594  0.00  0.00    +0.012 C 
ATOM     30  C   LIG A   1      -6.541  -1.639 131.915  0.00  0.00    +0.015 C 
ENDROOT
BRANCH   3  31
ATOM     31  O   LIG A   1      -4.823  -1.997 129.869  0.00  0.00    -0.461 OA
BRANCH  31  32
ATOM     32  C   LIG A   1      -4.477  -3.306 129.709  0.00  0.00    +0.304 C 
ATOM     33  C   LIG A   1      -3.062  -3.419 129.218  0.00  0.00    +0.136 C 
ATOM     34  O   LIG A   1      -5.165  -4.269 130.015  0.00  0.00    -0.251 OA
ENDBRANCH  31  32
ENDBRANCH   3  31
BRANCH  17  35
ATOM     35  O   LIG A   1      -6.051   3.594 135.097  0.00  0.00    -0.461 OA
BRANCH  35  36
ATOM     36  C   LIG A   1      -5.273   2.581 135.559  0.00  0.00    +0.304 C 
ATOM     37  C   LIG A   1      -4.109   3.162 136.308  0.00  0.00    +0.136 C 
ATOM     38  O   LIG A   1      -5.405   1.408 135.291  0.00  0.00    -0.251 OA
ENDBRANCH  35  36
ENDBRANCH  17  35
TORSDOF 4
ENDMDL
