MODEL 1
REMARK VINA RESULT:      -6.2      0.000      0.000
REMARK  Name = NuBBE_871
REMARK  4 active torsions:
REMARK  status: ('A' for Active; 'I' for Inactive)
REMARK    1  A    between atoms: CA_9  and  CB_14
REMARK    2  A    between atoms: CB_14  and  CG_15
REMARK    3  A    between atoms: CG_15  and  CD1_16
REMARK    4  A    between atoms: CG_15  and  CD2_17
REMARK                            x       y       z     vdW  Elec       q    Type
REMARK                         _______ _______ _______ _____ _____    ______ ____
ROOT
ATOM      1  O   LEU A   2      -8.616   5.629 129.257  0.00  0.00    -0.274 OA
ATOM      2  C   LEU A   2      -9.661   5.960 129.811  0.00  0.00    +0.236 C 
ATOM      3  N   PRO A   1     -10.603   6.770 129.213  0.00  0.00    -0.288 N 
ATOM      4  CA  PRO A   1     -11.536   7.550 130.000  0.00  0.00    +0.162 C 
ATOM      5  CB  PRO A   1     -12.518   8.047 128.955  0.00  0.00    +0.033 C 
ATOM      6  CG  PRO A   1     -11.597   8.342 127.767  0.00  0.00    +0.021 C 
ATOM      7  CD  PRO A   1     -10.495   7.286 127.865  0.00  0.00    +0.109 C 
ATOM      8  CA  LEU A   2     -10.194   5.235 131.079  0.00  0.00    +0.159 C 
ATOM      9  N   LEU A   2     -11.203   5.992 131.827  0.00  0.00    -0.302 N 
ATOM     10  C   PRO A   1     -12.132   6.777 131.172  0.00  0.00    +0.234 C 
ATOM     11  O   PRO A   1     -13.224   7.015 131.676  0.00  0.00    -0.274 OA
ATOM     12  H   LEU A   2     -11.567   5.569 132.672  0.00  0.00    +0.149 HD
ENDROOT
BRANCH   8  13
ATOM     13  CB  LEU A   2     -10.751   3.873 130.614  0.00  0.00    +0.034 C 
BRANCH  13  14
ATOM     14  CG  LEU A   2     -10.026   2.627 131.158  0.00  0.00    -0.015 C 
ATOM     15  CD1 LEU A   2      -8.905   2.226 130.196  0.00  0.00    +0.007 C 
ATOM     16  CD2 LEU A   2      -9.451   2.846 132.558  0.00  0.00    +0.007 C 
ENDBRANCH  13  14
ENDBRANCH   8  13
TORSDOF 2
ENDMDL
MODEL 2
REMARK VINA RESULT:      -6.1      1.990      3.300
REMARK  Name = NuBBE_871
REMARK  4 active torsions:
REMARK  status: ('A' for Active; 'I' for Inactive)
REMARK    1  A    between atoms: CA_9  and  CB_14
REMARK    2  A    between atoms: CB_14  and  CG_15
REMARK    3  A    between atoms: CG_15  and  CD1_16
REMARK    4  A    between atoms: CG_15  and  CD2_17
REMARK                            x       y       z     vdW  Elec       q    Type
REMARK                         _______ _______ _______ _____ _____    ______ ____
ROOT
ATOM      1  O   LEU A   2     -12.387   6.683 132.165  0.00  0.00    -0.274 OA
ATOM      2  C   LEU A   2     -11.716   6.573 131.141  0.00  0.00    +0.236 C 
ATOM      3  N   PRO A   1     -11.850   7.421 130.062  0.00  0.00    -0.288 N 
ATOM      4  CA  PRO A   1     -11.464   7.011 128.728  0.00  0.00    +0.162 C 
ATOM      5  CB  PRO A   1     -11.530   8.312 127.948  0.00  0.00    +0.033 C 
ATOM      6  CG  PRO A   1     -12.764   8.985 128.556  0.00  0.00    +0.021 C 
ATOM      7  CD  PRO A   1     -12.755   8.550 130.022  0.00  0.00    +0.109 C 
ATOM      8  CA  LEU A   2     -10.424   5.711 131.083  0.00  0.00    +0.159 C 
ATOM      9  N   LEU A   2      -9.987   5.369 129.726  0.00  0.00    -0.302 N 
ATOM     10  C   PRO A   1     -10.134   6.265 128.686  0.00  0.00    +0.234 C 
ATOM     11  O   PRO A   1      -9.390   6.230 127.712  0.00  0.00    -0.274 OA
ATOM     12  H   LEU A   2      -9.160   4.791 129.638  0.00  0.00    +0.149 HD
ENDROOT
BRANCH   8  13
ATOM     13  CB  LEU A   2      -9.330   6.493 131.840  0.00  0.00    +0.034 C 
BRANCH  13  14
ATOM     14  CG  LEU A   2      -7.902   5.919 131.745  0.00  0.00    -0.015 C 
ATOM     15  CD1 LEU A   2      -6.985   6.940 131.066  0.00  0.00    +0.007 C 
ATOM     16  CD2 LEU A   2      -7.330   5.537 133.110  0.00  0.00    +0.007 C 
ENDBRANCH  13  14
ENDBRANCH   8  13
TORSDOF 2
ENDMDL
MODEL 3
REMARK VINA RESULT:      -5.6      1.948      4.588
REMARK  Name = NuBBE_871
REMARK  4 active torsions:
REMARK  status: ('A' for Active; 'I' for Inactive)
REMARK    1  A    between atoms: CA_9  and  CB_14
REMARK    2  A    between atoms: CB_14  and  CG_15
REMARK    3  A    between atoms: CG_15  and  CD1_16
REMARK    4  A    between atoms: CG_15  and  CD2_17
REMARK                            x       y       z     vdW  Elec       q    Type
REMARK                         _______ _______ _______ _____ _____    ______ ____
ROOT
ATOM      1  O   LEU A   2      -8.776   5.320 128.117  0.00  0.00    -0.274 OA
ATOM      2  C   LEU A   2      -9.314   5.633 129.176  0.00  0.00    +0.236 C 
ATOM      3  N   PRO A   1      -8.633   5.698 130.373  0.00  0.00    -0.288 N 
ATOM      4  CA  PRO A   1      -9.320   5.561 131.641  0.00  0.00    +0.162 C 
ATOM      5  CB  PRO A   1      -8.252   5.961 132.643  0.00  0.00    +0.033 C 
ATOM      6  CG  PRO A   1      -6.991   5.347 132.027  0.00  0.00    +0.021 C 
ATOM      7  CD  PRO A   1      -7.214   5.450 130.518  0.00  0.00    +0.109 C 
ATOM      8  CA  LEU A   2     -10.708   6.320 129.229  0.00  0.00    +0.159 C 
ATOM      9  N   LEU A   2     -11.364   6.253 130.538  0.00  0.00    -0.302 N 
ATOM     10  C   PRO A   1     -10.631   6.339 131.705  0.00  0.00    +0.234 C 
ATOM     11  O   PRO A   1     -11.137   6.760 132.739  0.00  0.00    -0.274 OA
ATOM     12  H   LEU A   2     -12.284   6.670 130.616  0.00  0.00    +0.149 HD
ENDROOT
BRANCH   8  13
ATOM     13  CB  LEU A   2     -10.503   7.782 128.781  0.00  0.00    +0.034 C 
BRANCH  13  14
ATOM     14  CG  LEU A   2     -11.608   8.374 127.884  0.00  0.00    -0.015 C 
ATOM     15  CD1 LEU A   2     -12.151   7.284 126.955  0.00  0.00    +0.007 C 
ATOM     16  CD2 LEU A   2     -12.754   8.986 128.689  0.00  0.00    +0.007 C 
ENDBRANCH  13  14
ENDBRANCH   8  13
TORSDOF 2
ENDMDL
MODEL 4
REMARK VINA RESULT:      -5.5      1.876      2.791
REMARK  Name = NuBBE_871
REMARK  4 active torsions:
REMARK  status: ('A' for Active; 'I' for Inactive)
REMARK    1  A    between atoms: CA_9  and  CB_14
REMARK    2  A    between atoms: CB_14  and  CG_15
REMARK    3  A    between atoms: CG_15  and  CD1_16
REMARK    4  A    between atoms: CG_15  and  CD2_17
REMARK                            x       y       z     vdW  Elec       q    Type
REMARK                         _______ _______ _______ _____ _____    ______ ____
ROOT
ATOM      1  O   LEU A   2     -11.480   3.607 130.342  0.00  0.00    -0.274 OA
ATOM      2  C   LEU A   2     -10.661   4.521 130.348  0.00  0.00    +0.236 C 
ATOM      3  N   PRO A   1     -10.944   5.786 129.878  0.00  0.00    -0.288 N 
ATOM      4  CA  PRO A   1      -9.895   6.674 129.421  0.00  0.00    +0.162 C 
ATOM      5  CB  PRO A   1     -10.624   7.997 129.265  0.00  0.00    +0.033 C 
ATOM      6  CG  PRO A   1     -11.979   7.550 128.708  0.00  0.00    +0.021 C 
ATOM      7  CD  PRO A   1     -12.236   6.194 129.367  0.00  0.00    +0.109 C 
ATOM      8  CA  LEU A   2      -9.356   4.461 131.191  0.00  0.00    +0.159 C 
ATOM      9  N   LEU A   2      -8.327   5.422 130.780  0.00  0.00    -0.302 N 
ATOM     10  C   PRO A   1      -8.671   6.682 130.331  0.00  0.00    +0.234 C 
ATOM     11  O   PRO A   1      -7.895   7.625 130.441  0.00  0.00    -0.274 OA
ATOM     12  H   LEU A   2      -7.451   5.407 131.288  0.00  0.00    +0.149 HD
ENDROOT
BRANCH   8  13
ATOM     13  CB  LEU A   2      -9.765   4.679 132.663  0.00  0.00    +0.034 C 
BRANCH  13  14
ATOM     14  CG  LEU A   2      -9.225   3.646 133.673  0.00  0.00    -0.015 C 
ATOM     15  CD1 LEU A   2      -8.787   2.382 132.927  0.00  0.00    +0.007 C 
ATOM     16  CD2 LEU A   2      -8.060   4.187 134.501  0.00  0.00    +0.007 C 
ENDBRANCH  13  14
ENDBRANCH   8  13
TORSDOF 2
ENDMDL
MODEL 5
REMARK VINA RESULT:      -5.5      1.975      4.934
REMARK  Name = NuBBE_871
REMARK  4 active torsions:
REMARK  status: ('A' for Active; 'I' for Inactive)
REMARK    1  A    between atoms: CA_9  and  CB_14
REMARK    2  A    between atoms: CB_14  and  CG_15
REMARK    3  A    between atoms: CG_15  and  CD1_16
REMARK    4  A    between atoms: CG_15  and  CD2_17
REMARK                            x       y       z     vdW  Elec       q    Type
REMARK                         _______ _______ _______ _____ _____    ______ ____
ROOT
ATOM      1  O   LEU A   2     -11.566   4.083 129.777  0.00  0.00    -0.274 OA
ATOM      2  C   LEU A   2     -10.913   4.550 130.707  0.00  0.00    +0.236 C 
ATOM      3  N   PRO A   1      -9.697   4.036 131.103  0.00  0.00    -0.288 N 
ATOM      4  CA  PRO A   1      -9.196   4.232 132.448  0.00  0.00    +0.162 C 
ATOM      5  CB  PRO A   1      -7.761   3.748 132.342  0.00  0.00    +0.033 C 
ATOM      6  CG  PRO A   1      -7.900   2.543 131.407  0.00  0.00    +0.021 C 
ATOM      7  CD  PRO A   1      -9.032   2.927 130.453  0.00  0.00    +0.109 C 
ATOM      8  CA  LEU A   2     -11.205   5.957 131.302  0.00  0.00    +0.159 C 
ATOM      9  N   LEU A   2     -10.623   6.183 132.629  0.00  0.00    -0.302 N 
ATOM     10  C   PRO A   1      -9.392   5.654 132.964  0.00  0.00    +0.234 C 
ATOM     11  O   PRO A   1      -8.687   6.186 133.815  0.00  0.00    -0.274 OA
ATOM     12  H   LEU A   2     -10.802   7.079 133.066  0.00  0.00    +0.149 HD
ENDROOT
BRANCH   8  13
ATOM     13  CB  LEU A   2     -10.683   6.990 130.281  0.00  0.00    +0.034 C 
BRANCH  13  14
ATOM     14  CG  LEU A   2     -11.738   7.944 129.688  0.00  0.00    -0.015 C 
ATOM     15  CD1 LEU A   2     -11.234   8.499 128.353  0.00  0.00    +0.007 C 
ATOM     16  CD2 LEU A   2     -13.095   7.268 129.487  0.00  0.00    +0.007 C 
ENDBRANCH  13  14
ENDBRANCH   8  13
TORSDOF 2
ENDMDL
MODEL 6
REMARK VINA RESULT:      -5.5      1.799      5.139
REMARK  Name = NuBBE_871
REMARK  4 active torsions:
REMARK  status: ('A' for Active; 'I' for Inactive)
REMARK    1  A    between atoms: CA_9  and  CB_14
REMARK    2  A    between atoms: CB_14  and  CG_15
REMARK    3  A    between atoms: CG_15  and  CD1_16
REMARK    4  A    between atoms: CG_15  and  CD2_17
REMARK                            x       y       z     vdW  Elec       q    Type
REMARK                         _______ _______ _______ _____ _____    ______ ____
ROOT
ATOM      1  O   LEU A   2     -10.570   6.543 132.785  0.00  0.00    -0.274 OA
ATOM      2  C   LEU A   2     -10.136   6.196 131.690  0.00  0.00    +0.236 C 
ATOM      3  N   PRO A   1      -9.407   5.041 131.503  0.00  0.00    -0.288 N 
ATOM      4  CA  PRO A   1      -8.496   4.895 130.386  0.00  0.00    +0.162 C 
ATOM      5  CB  PRO A   1      -8.143   3.419 130.436  0.00  0.00    +0.033 C 
ATOM      6  CG  PRO A   1      -8.053   3.164 131.944  0.00  0.00    +0.021 C 
ATOM      7  CD  PRO A   1      -9.105   4.091 132.553  0.00  0.00    +0.109 C 
ATOM      8  CA  LEU A   2     -10.647   6.817 130.359  0.00  0.00    +0.159 C 
ATOM      9  N   LEU A   2      -9.763   6.593 129.210  0.00  0.00    -0.302 N 
ATOM     10  C   PRO A   1      -9.068   5.408 129.069  0.00  0.00    +0.234 C 
ATOM     11  O   PRO A   1      -8.732   5.001 127.963  0.00  0.00    -0.274 OA
ATOM     12  H   LEU A   2     -10.045   6.996 128.325  0.00  0.00    +0.149 HD
ENDROOT
BRANCH   8  13
ATOM     13  CB  LEU A   2     -12.052   6.231 130.103  0.00  0.00    +0.034 C 
BRANCH  13  14
ATOM     14  CG  LEU A   2     -13.117   7.228 129.604  0.00  0.00    -0.015 C 
ATOM     15  CD1 LEU A   2     -12.623   8.660 129.829  0.00  0.00    +0.007 C 
ATOM     16  CD2 LEU A   2     -13.465   7.027 128.129  0.00  0.00    +0.007 C 
ENDBRANCH  13  14
ENDBRANCH   8  13
TORSDOF 2
ENDMDL
MODEL 7
REMARK VINA RESULT:      -5.4      8.536      9.887
REMARK  Name = NuBBE_871
REMARK  4 active torsions:
REMARK  status: ('A' for Active; 'I' for Inactive)
REMARK    1  A    between atoms: CA_9  and  CB_14
REMARK    2  A    between atoms: CB_14  and  CG_15
REMARK    3  A    between atoms: CG_15  and  CD1_16
REMARK    4  A    between atoms: CG_15  and  CD2_17
REMARK                            x       y       z     vdW  Elec       q    Type
REMARK                         _______ _______ _______ _____ _____    ______ ____
ROOT
ATOM      1  O   LEU A   2      -5.194  -1.883 127.426  0.00  0.00    -0.274 OA
ATOM      2  C   LEU A   2      -6.202  -1.781 126.732  0.00  0.00    +0.236 C 
ATOM      3  N   PRO A   1      -6.237  -2.143 125.402  0.00  0.00    -0.288 N 
ATOM      4  CA  PRO A   1      -7.207  -1.573 124.490  0.00  0.00    +0.162 C 
ATOM      5  CB  PRO A   1      -7.050  -2.440 123.254  0.00  0.00    +0.033 C 
ATOM      6  CG  PRO A   1      -5.536  -2.669 123.215  0.00  0.00    +0.021 C 
ATOM      7  CD  PRO A   1      -5.119  -2.718 124.685  0.00  0.00    +0.109 C 
ATOM      8  CA  LEU A   2      -7.615  -1.571 127.346  0.00  0.00    +0.159 C 
ATOM      9  N   LEU A   2      -8.617  -1.074 126.397  0.00  0.00    -0.302 N 
ATOM     10  C   PRO A   1      -8.611  -1.485 125.079  0.00  0.00    +0.234 C 
ATOM     11  O   PRO A   1      -9.642  -1.492 124.415  0.00  0.00    -0.274 OA
ATOM     12  H   LEU A   2      -9.549  -0.904 126.755  0.00  0.00    +0.149 HD
ENDROOT
BRANCH   8  13
ATOM     13  CB  LEU A   2      -8.044  -2.924 127.952  0.00  0.00    +0.034 C 
BRANCH  13  14
ATOM     14  CG  LEU A   2      -7.990  -3.021 129.489  0.00  0.00    -0.015 C 
ATOM     15  CD1 LEU A   2      -6.772  -3.848 129.908  0.00  0.00    +0.007 C 
ATOM     16  CD2 LEU A   2      -7.940  -1.649 130.163  0.00  0.00    +0.007 C 
ENDBRANCH  13  14
ENDBRANCH   8  13
TORSDOF 2
ENDMDL
MODEL 8
REMARK VINA RESULT:      -5.3      2.055      4.922
REMARK  Name = NuBBE_871
REMARK  4 active torsions:
REMARK  status: ('A' for Active; 'I' for Inactive)
REMARK    1  A    between atoms: CA_9  and  CB_14
REMARK    2  A    between atoms: CB_14  and  CG_15
REMARK    3  A    between atoms: CG_15  and  CD1_16
REMARK    4  A    between atoms: CG_15  and  CD2_17
REMARK                            x       y       z     vdW  Elec       q    Type
REMARK                         _______ _______ _______ _____ _____    ______ ____
ROOT
ATOM      1  O   LEU A   2     -11.264   3.920 130.222  0.00  0.00    -0.274 OA
ATOM      2  C   LEU A   2     -10.298   4.662 130.377  0.00  0.00    +0.236 C 
ATOM      3  N   PRO A   1      -9.038   4.362 129.906  0.00  0.00    -0.288 N 
ATOM      4  CA  PRO A   1      -7.851   4.942 130.501  0.00  0.00    +0.162 C 
ATOM      5  CB  PRO A   1      -6.762   4.554 129.518  0.00  0.00    +0.033 C 
ATOM      6  CG  PRO A   1      -7.186   3.138 129.116  0.00  0.00    +0.021 C 
ATOM      7  CD  PRO A   1      -8.714   3.172 129.147  0.00  0.00    +0.109 C 
ATOM      8  CA  LEU A   2     -10.454   6.151 130.799  0.00  0.00    +0.159 C 
ATOM      9  N   LEU A   2      -9.227   6.761 131.322  0.00  0.00    -0.302 N 
ATOM     10  C   PRO A   1      -7.992   6.431 130.799  0.00  0.00    +0.234 C 
ATOM     11  O   PRO A   1      -7.054   7.219 130.852  0.00  0.00    -0.274 OA
ATOM     12  H   LEU A   2      -9.285   7.725 131.627  0.00  0.00    +0.149 HD
ENDROOT
BRANCH   8  13
ATOM     13  CB  LEU A   2     -10.973   6.913 129.562  0.00  0.00    +0.034 C 
BRANCH  13  14
ATOM     14  CG  LEU A   2     -12.409   7.464 129.663  0.00  0.00    -0.015 C 
ATOM     15  CD1 LEU A   2     -12.875   7.414 131.120  0.00  0.00    +0.007 C 
ATOM     16  CD2 LEU A   2     -12.530   8.892 129.130  0.00  0.00    +0.007 C 
ENDBRANCH  13  14
ENDBRANCH   8  13
TORSDOF 2
ENDMDL
MODEL 9
REMARK VINA RESULT:      -5.3      8.566     10.306
REMARK  Name = NuBBE_871
REMARK  4 active torsions:
REMARK  status: ('A' for Active; 'I' for Inactive)
REMARK    1  A    between atoms: CA_9  and  CB_14
REMARK    2  A    between atoms: CB_14  and  CG_15
REMARK    3  A    between atoms: CG_15  and  CD1_16
REMARK    4  A    between atoms: CG_15  and  CD2_17
REMARK                            x       y       z     vdW  Elec       q    Type
REMARK                         _______ _______ _______ _____ _____    ______ ____
ROOT
ATOM      1  O   LEU A   2      -5.288  -1.076 125.991  0.00  0.00    -0.274 OA
ATOM      2  C   LEU A   2      -6.307  -1.297 125.343  0.00  0.00    +0.236 C 
ATOM      3  N   PRO A   1      -7.401  -1.953 125.865  0.00  0.00    -0.288 N 
ATOM      4  CA  PRO A   1      -8.346  -2.644 125.012  0.00  0.00    +0.162 C 
ATOM      5  CB  PRO A   1      -9.483  -2.963 125.966  0.00  0.00    +0.033 C 
ATOM      6  CG  PRO A   1      -8.731  -3.318 127.252  0.00  0.00    +0.021 C 
ATOM      7  CD  PRO A   1      -7.496  -2.415 127.234  0.00  0.00    +0.109 C 
ATOM      8  CA  LEU A   2      -6.613  -0.571 124.002  0.00  0.00    +0.159 C 
ATOM      9  N   LEU A   2      -7.633  -1.228 123.179  0.00  0.00    -0.302 N 
ATOM     10  C   PRO A   1      -8.717  -1.856 123.759  0.00  0.00    +0.234 C 
ATOM     11  O   PRO A   1      -9.776  -1.977 123.153  0.00  0.00    -0.274 OA
ATOM     12  H   LEU A   2      -7.853  -0.801 122.287  0.00  0.00    +0.149 HD
ENDROOT
BRANCH   8  13
ATOM     13  CB  LEU A   2      -7.030   0.871 124.361  0.00  0.00    +0.034 C 
BRANCH  13  14
ATOM     14  CG  LEU A   2      -7.649   1.698 123.217  0.00  0.00    -0.015 C 
ATOM     15  CD1 LEU A   2      -9.060   2.143 123.613  0.00  0.00    +0.007 C 
ATOM     16  CD2 LEU A   2      -6.806   2.920 122.853  0.00  0.00    +0.007 C 
ENDBRANCH  13  14
ENDBRANCH   8  13
TORSDOF 2
ENDMDL
