MODEL 1
REMARK VINA RESULT:      -6.8      0.000      0.000
REMARK  Name = NuBBE_1102
REMARK  1 active torsions:
REMARK  status: ('A' for Active; 'I' for Inactive)
REMARK    1  A    between atoms: N_5  and  C_15
REMARK                            x       y       z     vdW  Elec       q    Type
REMARK                         _______ _______ _______ _____ _____    ______ ____
ROOT
ATOM      1  O   LIG A   1      -4.055   4.882 122.101  0.00  0.00    -0.286 OA
ATOM      2  C   LIG A   1      -5.188   4.508 121.820  0.00  0.00    +0.200 A 
ATOM      3  C   LIG A   1      -5.774   4.703 120.518  0.00  0.00    +0.085 A 
ATOM      4  C   LIG A   1      -7.048   4.257 120.273  0.00  0.00    +0.212 A 
ATOM      5  N   LIG A   1      -7.861   3.624 121.148  0.00  0.00    -0.311 N 
ATOM      6  C   LIG A   1      -7.375   3.382 122.453  0.00  0.00    +0.101 A 
ATOM      7  C   LIG A   1      -6.059   3.806 122.821  0.00  0.00    +0.050 A 
ATOM      8  C   LIG A   1      -5.534   3.584 124.114  0.00  0.00    +0.017 A 
ATOM      9  C   LIG A   1      -6.298   2.936 125.081  0.00  0.00    +0.050 A 
ATOM     10  C   LIG A   1      -7.564   2.527 124.723  0.00  0.00    +0.168 A 
ATOM     11  C   LIG A   1      -8.091   2.739 123.461  0.00  0.00    +0.190 A 
ATOM     12  O   LIG A   1      -9.359   2.237 123.373  0.00  0.00    -0.451 OA
ATOM     13  C   LIG A   1      -9.552   1.682 124.686  0.00  0.00    +0.466 C 
ATOM     14  O   LIG A   1      -8.426   1.879 125.556  0.00  0.00    -0.453 OA
ATOM     15  C   LIG A   1      -9.196   3.204 120.749  0.00  0.00    +0.152 C 
ATOM     16  O   LIG A   1      -7.418   4.533 118.998  0.00  0.00    -0.447 OA
ATOM     17  C   LIG A   1      -6.357   5.168 118.422  0.00  0.00    +0.198 A 
ATOM     18  C   LIG A   1      -5.319   5.297 119.320  0.00  0.00    +0.055 A 
ENDROOT
TORSDOF 0
ENDMDL
MODEL 2
REMARK VINA RESULT:      -6.7      3.375      6.384
REMARK  Name = NuBBE_1102
REMARK  1 active torsions:
REMARK  status: ('A' for Active; 'I' for Inactive)
REMARK    1  A    between atoms: N_5  and  C_15
REMARK                            x       y       z     vdW  Elec       q    Type
REMARK                         _______ _______ _______ _____ _____    ______ ____
ROOT
ATOM      1  O   LIG A   1     -10.215  -0.645 122.482  0.00  0.00    -0.286 OA
ATOM      2  C   LIG A   1      -9.213  -0.612 123.188  0.00  0.00    +0.200 A 
ATOM      3  C   LIG A   1      -8.647  -1.788 123.796  0.00  0.00    +0.085 A 
ATOM      4  C   LIG A   1      -7.523  -1.676 124.575  0.00  0.00    +0.212 A 
ATOM      5  N   LIG A   1      -6.849  -0.539 124.855  0.00  0.00    -0.311 N 
ATOM      6  C   LIG A   1      -7.325   0.671 124.302  0.00  0.00    +0.101 A 
ATOM      7  C   LIG A   1      -8.492   0.674 123.474  0.00  0.00    +0.050 A 
ATOM      8  C   LIG A   1      -9.002   1.860 122.901  0.00  0.00    +0.017 A 
ATOM      9  C   LIG A   1      -8.371   3.080 123.130  0.00  0.00    +0.050 A 
ATOM     10  C   LIG A   1      -7.246   3.074 123.926  0.00  0.00    +0.168 A 
ATOM     11  C   LIG A   1      -6.736   1.920 124.494  0.00  0.00    +0.190 A 
ATOM     12  O   LIG A   1      -5.620   2.194 125.234  0.00  0.00    -0.451 OA
ATOM     13  C   LIG A   1      -5.481   3.614 125.050  0.00  0.00    +0.466 C 
ATOM     14  O   LIG A   1      -6.521   4.184 124.238  0.00  0.00    -0.453 OA
ATOM     15  C   LIG A   1      -5.664  -0.569 125.701  0.00  0.00    +0.152 C 
ATOM     16  O   LIG A   1      -7.146  -2.888 125.053  0.00  0.00    -0.447 OA
ATOM     17  C   LIG A   1      -8.049  -3.787 124.568  0.00  0.00    +0.198 A 
ATOM     18  C   LIG A   1      -8.995  -3.157 123.788  0.00  0.00    +0.055 A 
ENDROOT
TORSDOF 0
ENDMDL
MODEL 3
REMARK VINA RESULT:      -6.7      5.773      9.192
REMARK  Name = NuBBE_1102
REMARK  1 active torsions:
REMARK  status: ('A' for Active; 'I' for Inactive)
REMARK    1  A    between atoms: N_5  and  C_15
REMARK                            x       y       z     vdW  Elec       q    Type
REMARK                         _______ _______ _______ _____ _____    ______ ____
ROOT
ATOM      1  O   LIG A   1      -9.627  -4.255 128.064  0.00  0.00    -0.286 OA
ATOM      2  C   LIG A   1      -8.694  -3.519 127.767  0.00  0.00    +0.200 A 
ATOM      3  C   LIG A   1      -7.762  -3.008 128.739  0.00  0.00    +0.085 A 
ATOM      4  C   LIG A   1      -6.739  -2.188 128.334  0.00  0.00    +0.212 A 
ATOM      5  N   LIG A   1      -6.486  -1.781 127.071  0.00  0.00    -0.311 N 
ATOM      6  C   LIG A   1      -7.344  -2.232 126.042  0.00  0.00    +0.101 A 
ATOM      7  C   LIG A   1      -8.447  -3.091 126.349  0.00  0.00    +0.050 A 
ATOM      8  C   LIG A   1      -9.329  -3.564 125.352  0.00  0.00    +0.017 A 
ATOM      9  C   LIG A   1      -9.145  -3.201 124.021  0.00  0.00    +0.050 A 
ATOM     10  C   LIG A   1      -8.081  -2.376 123.727  0.00  0.00    +0.168 A 
ATOM     11  C   LIG A   1      -7.211  -1.904 124.694  0.00  0.00    +0.190 A 
ATOM     12  O   LIG A   1      -6.250  -1.108 124.136  0.00  0.00    -0.451 OA
ATOM     13  C   LIG A   1      -6.598  -1.152 122.741  0.00  0.00    +0.466 C 
ATOM     14  O   LIG A   1      -7.772  -1.938 122.475  0.00  0.00    -0.453 OA
ATOM     15  C   LIG A   1      -5.359  -0.906 126.785  0.00  0.00    +0.152 C 
ATOM     16  O   LIG A   1      -5.974  -1.815 129.390  0.00  0.00    -0.447 OA
ATOM     17  C   LIG A   1      -6.523  -2.410 130.488  0.00  0.00    +0.198 A 
ATOM     18  C   LIG A   1      -7.628  -3.156 130.138  0.00  0.00    +0.055 A 
ENDROOT
TORSDOF 0
ENDMDL
MODEL 4
REMARK VINA RESULT:      -6.5      7.224      9.354
REMARK  Name = NuBBE_1102
REMARK  1 active torsions:
REMARK  status: ('A' for Active; 'I' for Inactive)
REMARK    1  A    between atoms: N_5  and  C_15
REMARK                            x       y       z     vdW  Elec       q    Type
REMARK                         _______ _______ _______ _____ _____    ______ ____
ROOT
ATOM      1  O   LIG A   1     -12.024   6.718 132.307  0.00  0.00    -0.286 OA
ATOM      2  C   LIG A   1     -11.619   6.798 131.153  0.00  0.00    +0.200 A 
ATOM      3  C   LIG A   1     -12.117   7.772 130.216  0.00  0.00    +0.085 A 
ATOM      4  C   LIG A   1     -11.617   7.804 128.939  0.00  0.00    +0.212 A 
ATOM      5  N   LIG A   1     -10.666   6.992 128.427  0.00  0.00    -0.311 N 
ATOM      6  C   LIG A   1     -10.110   6.002 129.270  0.00  0.00    +0.101 A 
ATOM      7  C   LIG A   1     -10.559   5.876 130.623  0.00  0.00    +0.050 A 
ATOM      8  C   LIG A   1     -10.032   4.902 131.500  0.00  0.00    +0.017 A 
ATOM      9  C   LIG A   1      -9.044   4.023 131.062  0.00  0.00    +0.050 A 
ATOM     10  C   LIG A   1      -8.613   4.148 129.759  0.00  0.00    +0.168 A 
ATOM     11  C   LIG A   1      -9.122   5.097 128.890  0.00  0.00    +0.190 A 
ATOM     12  O   LIG A   1      -8.523   5.004 127.665  0.00  0.00    -0.451 OA
ATOM     13  C   LIG A   1      -7.590   3.929 127.869  0.00  0.00    +0.466 C 
ATOM     14  O   LIG A   1      -7.654   3.366 129.189  0.00  0.00    -0.453 OA
ATOM     15  C   LIG A   1     -10.228   7.141 127.047  0.00  0.00    +0.152 C 
ATOM     16  O   LIG A   1     -12.208   8.786 128.215  0.00  0.00    -0.447 OA
ATOM     17  C   LIG A   1     -13.103   9.389 129.049  0.00  0.00    +0.198 A 
ATOM     18  C   LIG A   1     -13.084   8.799 130.294  0.00  0.00    +0.055 A 
ENDROOT
TORSDOF 0
ENDMDL
MODEL 5
REMARK VINA RESULT:      -6.5      4.196      5.083
REMARK  Name = NuBBE_1102
REMARK  1 active torsions:
REMARK  status: ('A' for Active; 'I' for Inactive)
REMARK    1  A    between atoms: N_5  and  C_15
REMARK                            x       y       z     vdW  Elec       q    Type
REMARK                         _______ _______ _______ _____ _____    ______ ____
ROOT
ATOM      1  O   LIG A   1      -4.822   1.725 126.108  0.00  0.00    -0.286 OA
ATOM      2  C   LIG A   1      -5.963   1.621 125.675  0.00  0.00    +0.200 A 
ATOM      3  C   LIG A   1      -6.875   2.734 125.601  0.00  0.00    +0.085 A 
ATOM      4  C   LIG A   1      -8.140   2.544 125.104  0.00  0.00    +0.212 A 
ATOM      5  N   LIG A   1      -8.661   1.382 124.652  0.00  0.00    -0.311 N 
ATOM      6  C   LIG A   1      -7.842   0.230 124.681  0.00  0.00    +0.101 A 
ATOM      7  C   LIG A   1      -6.504   0.310 125.181  0.00  0.00    +0.050 A 
ATOM      8  C   LIG A   1      -5.652  -0.816 125.228  0.00  0.00    +0.017 A 
ATOM      9  C   LIG A   1      -6.101  -2.056 124.780  0.00  0.00    +0.050 A 
ATOM     10  C   LIG A   1      -7.389  -2.130 124.297  0.00  0.00    +0.168 A 
ATOM     11  C   LIG A   1      -8.234  -1.035 124.247  0.00  0.00    +0.190 A 
ATOM     12  O   LIG A   1      -9.450  -1.383 123.727  0.00  0.00    -0.451 OA
ATOM     13  C   LIG A   1      -9.265  -2.781 123.445  0.00  0.00    +0.466 C 
ATOM     14  O   LIG A   1      -7.967  -3.269 123.823  0.00  0.00    -0.453 OA
ATOM     15  C   LIG A   1     -10.025   1.327 124.149  0.00  0.00    +0.152 C 
ATOM     16  O   LIG A   1      -8.840   3.705 125.115  0.00  0.00    -0.447 OA
ATOM     17  C   LIG A   1      -8.004   4.651 125.630  0.00  0.00    +0.198 A 
ATOM     18  C   LIG A   1      -6.780   4.101 125.945  0.00  0.00    +0.055 A 
ENDROOT
TORSDOF 0
ENDMDL
MODEL 6
REMARK VINA RESULT:      -6.4      3.564      6.005
REMARK  Name = NuBBE_1102
REMARK  1 active torsions:
REMARK  status: ('A' for Active; 'I' for Inactive)
REMARK    1  A    between atoms: N_5  and  C_15
REMARK                            x       y       z     vdW  Elec       q    Type
REMARK                         _______ _______ _______ _____ _____    ______ ____
ROOT
ATOM      1  O   LIG A   1      -5.893  -2.624 125.860  0.00  0.00    -0.286 OA
ATOM      2  C   LIG A   1      -6.633  -1.832 125.289  0.00  0.00    +0.200 A 
ATOM      3  C   LIG A   1      -7.789  -2.247 124.536  0.00  0.00    +0.085 A 
ATOM      4  C   LIG A   1      -8.574  -1.305 123.922  0.00  0.00    +0.212 A 
ATOM      5  N   LIG A   1      -8.387   0.033 123.938  0.00  0.00    -0.311 N 
ATOM      6  C   LIG A   1      -7.279   0.542 124.654  0.00  0.00    +0.101 A 
ATOM      7  C   LIG A   1      -6.389  -0.351 125.332  0.00  0.00    +0.050 A 
ATOM      8  C   LIG A   1      -5.271   0.114 126.059  0.00  0.00    +0.017 A 
ATOM      9  C   LIG A   1      -4.999   1.477 126.135  0.00  0.00    +0.050 A 
ATOM     10  C   LIG A   1      -5.858   2.335 125.482  0.00  0.00    +0.168 A 
ATOM     11  C   LIG A   1      -6.957   1.893 124.767  0.00  0.00    +0.190 A 
ATOM     12  O   LIG A   1      -7.636   2.945 124.220  0.00  0.00    -0.451 OA
ATOM     13  C   LIG A   1      -6.868   4.070 124.683  0.00  0.00    +0.466 C 
ATOM     14  O   LIG A   1      -5.725   3.691 125.468  0.00  0.00    -0.453 OA
ATOM     15  C   LIG A   1      -9.305   0.919 123.239  0.00  0.00    +0.152 C 
ATOM     16  O   LIG A   1      -9.608  -1.891 123.269  0.00  0.00    -0.447 OA
ATOM     17  C   LIG A   1      -9.475  -3.233 123.471  0.00  0.00    +0.198 A 
ATOM     18  C   LIG A   1      -8.368  -3.503 124.247  0.00  0.00    +0.055 A 
ENDROOT
TORSDOF 0
ENDMDL
MODEL 7
REMARK VINA RESULT:      -6.3      4.968      7.489
REMARK  Name = NuBBE_1102
REMARK  1 active torsions:
REMARK  status: ('A' for Active; 'I' for Inactive)
REMARK    1  A    between atoms: N_5  and  C_15
REMARK                            x       y       z     vdW  Elec       q    Type
REMARK                         _______ _______ _______ _____ _____    ______ ____
ROOT
ATOM      1  O   LIG A   1      -9.649  -2.841 124.361  0.00  0.00    -0.286 OA
ATOM      2  C   LIG A   1      -9.011  -2.056 125.053  0.00  0.00    +0.200 A 
ATOM      3  C   LIG A   1      -8.554  -0.779 124.567  0.00  0.00    +0.085 A 
ATOM      4  C   LIG A   1      -7.844   0.049 125.398  0.00  0.00    +0.212 A 
ATOM      5  N   LIG A   1      -7.504  -0.198 126.682  0.00  0.00    -0.311 N 
ATOM      6  C   LIG A   1      -7.909  -1.426 127.254  0.00  0.00    +0.101 A 
ATOM      7  C   LIG A   1      -8.654  -2.369 126.478  0.00  0.00    +0.050 A 
ATOM      8  C   LIG A   1      -9.079  -3.607 127.009  0.00  0.00    +0.017 A 
ATOM      9  C   LIG A   1      -8.779  -3.948 128.325  0.00  0.00    +0.050 A 
ATOM     10  C   LIG A   1      -8.063  -3.037 129.071  0.00  0.00    +0.168 A 
ATOM     11  C   LIG A   1      -7.640  -1.821 128.563  0.00  0.00    +0.190 A 
ATOM     12  O   LIG A   1      -6.953  -1.113 129.508  0.00  0.00    -0.451 OA
ATOM     13  C   LIG A   1      -7.012  -1.993 130.644  0.00  0.00    +0.466 C 
ATOM     14  O   LIG A   1      -7.697  -3.226 130.369  0.00  0.00    -0.453 OA
ATOM     15  C   LIG A   1      -6.745   0.778 127.450  0.00  0.00    +0.152 C 
ATOM     16  O   LIG A   1      -7.507   1.197 124.760  0.00  0.00    -0.447 OA
ATOM     17  C   LIG A   1      -8.013   1.095 123.497  0.00  0.00    +0.198 A 
ATOM     18  C   LIG A   1      -8.667  -0.107 123.330  0.00  0.00    +0.055 A 
ENDROOT
TORSDOF 0
ENDMDL
MODEL 8
REMARK VINA RESULT:      -6.3      7.568      9.444
REMARK  Name = NuBBE_1102
REMARK  1 active torsions:
REMARK  status: ('A' for Active; 'I' for Inactive)
REMARK    1  A    between atoms: N_5  and  C_15
REMARK                            x       y       z     vdW  Elec       q    Type
REMARK                         _______ _______ _______ _____ _____    ______ ____
ROOT
ATOM      1  O   LIG A   1      -9.656   6.518 127.068  0.00  0.00    -0.286 OA
ATOM      2  C   LIG A   1     -10.072   6.539 128.221  0.00  0.00    +0.200 A 
ATOM      3  C   LIG A   1     -11.108   7.438 128.661  0.00  0.00    +0.085 A 
ATOM      4  C   LIG A   1     -11.524   7.406 129.968  0.00  0.00    +0.212 A 
ATOM      5  N   LIG A   1     -11.058   6.593 130.941  0.00  0.00    -0.311 N 
ATOM      6  C   LIG A   1     -10.040   5.671 130.608  0.00  0.00    +0.101 A 
ATOM      7  C   LIG A   1      -9.527   5.617 129.273  0.00  0.00    +0.050 A 
ATOM      8  C   LIG A   1      -8.511   4.711 128.897  0.00  0.00    +0.017 A 
ATOM      9  C   LIG A   1      -7.972   3.831 129.831  0.00  0.00    +0.050 A 
ATOM     10  C   LIG A   1      -8.469   3.884 131.115  0.00  0.00    +0.168 A 
ATOM     11  C   LIG A   1      -9.463   4.767 131.498  0.00  0.00    +0.190 A 
ATOM     12  O   LIG A   1      -9.769   4.611 132.821  0.00  0.00    -0.451 OA
ATOM     13  C   LIG A   1      -8.889   3.541 133.207  0.00  0.00    +0.466 C 
ATOM     14  O   LIG A   1      -8.045   3.087 132.136  0.00  0.00    -0.453 OA
ATOM     15  C   LIG A   1     -11.596   6.669 132.291  0.00  0.00    +0.152 C 
ATOM     16  O   LIG A   1     -12.501   8.322 130.184  0.00  0.00    -0.447 OA
ATOM     17  C   LIG A   1     -12.708   8.948 128.991  0.00  0.00    +0.198 A 
ATOM     18  C   LIG A   1     -11.872   8.438 128.020  0.00  0.00    +0.055 A 
ENDROOT
TORSDOF 0
ENDMDL
MODEL 9
REMARK VINA RESULT:      -6.3      7.332      9.579
REMARK  Name = NuBBE_1102
REMARK  1 active torsions:
REMARK  status: ('A' for Active; 'I' for Inactive)
REMARK    1  A    between atoms: N_5  and  C_15
REMARK                            x       y       z     vdW  Elec       q    Type
REMARK                         _______ _______ _______ _____ _____    ______ ____
ROOT
ATOM      1  O   LIG A   1     -10.855   6.718 132.577  0.00  0.00    -0.286 OA
ATOM      2  C   LIG A   1     -10.232   6.095 131.726  0.00  0.00    +0.200 A 
ATOM      3  C   LIG A   1     -10.242   6.456 130.331  0.00  0.00    +0.085 A 
ATOM      4  C   LIG A   1      -9.519   5.712 129.432  0.00  0.00    +0.212 A 
ATOM      5  N   LIG A   1      -8.761   4.629 129.710  0.00  0.00    -0.311 N 
ATOM      6  C   LIG A   1      -8.683   4.196 131.053  0.00  0.00    +0.101 A 
ATOM      7  C   LIG A   1      -9.398   4.896 132.076  0.00  0.00    +0.050 A 
ATOM      8  C   LIG A   1      -9.349   4.498 133.431  0.00  0.00    +0.017 A 
ATOM      9  C   LIG A   1      -8.590   3.396 133.813  0.00  0.00    +0.050 A 
ATOM     10  C   LIG A   1      -7.901   2.725 132.826  0.00  0.00    +0.168 A 
ATOM     11  C   LIG A   1      -7.941   3.103 131.495  0.00  0.00    +0.190 A 
ATOM     12  O   LIG A   1      -7.172   2.272 130.730  0.00  0.00    -0.451 OA
ATOM     13  C   LIG A   1      -6.642   1.365 131.714  0.00  0.00    +0.466 C 
ATOM     14  O   LIG A   1      -7.116   1.633 133.044  0.00  0.00    -0.453 OA
ATOM     15  C   LIG A   1      -8.044   3.935 128.650  0.00  0.00    +0.152 C 
ATOM     16  O   LIG A   1      -9.655   6.208 128.178  0.00  0.00    -0.447 OA
ATOM     17  C   LIG A   1     -10.482   7.288 128.282  0.00  0.00    +0.198 A 
ATOM     18  C   LIG A   1     -10.870   7.481 129.590  0.00  0.00    +0.055 A 
ENDROOT
TORSDOF 0
ENDMDL
