MODEL 1
REMARK VINA RESULT:      -6.1      0.000      0.000
REMARK  Name = NuBBE_343
REMARK  10 active torsions:
REMARK  status: ('A' for Active; 'I' for Inactive)
REMARK    1  A    between atoms: C_2  and  O_3
REMARK    2  A    between atoms: C_2  and  C_4
REMARK    3  A    between atoms: C_4  and  C_5
REMARK    4  A    between atoms: C_5  and  C_6
REMARK    5  A    between atoms: C_8  and  O_9
REMARK    6  A    between atoms: O_9  and  C_10
REMARK    7  A    between atoms: C_11  and  O_12
REMARK    8  A    between atoms: O_12  and  C_13
REMARK    9  A    between atoms: C_14  and  O_15
REMARK   10  A    between atoms: O_15  and  C_16
REMARK                            x       y       z     vdW  Elec       q    Type
REMARK                         _______ _______ _______ _____ _____    ______ ____
ROOT
ATOM      1  C   LIG A   1      -6.229   3.697 122.647  0.00  0.00    -0.040 A 
ATOM      2  C   LIG A   1      -7.430   3.034 122.904  0.00  0.00    +0.053 A 
ATOM      3  C   LIG A   1      -8.096   3.179 124.136  0.00  0.00    +0.165 A 
ATOM      4  C   LIG A   1      -7.546   4.003 125.142  0.00  0.00    +0.203 A 
ATOM      5  C   LIG A   1      -6.301   4.619 124.906  0.00  0.00    +0.165 A 
ATOM      6  C   LIG A   1      -5.690   4.506 123.651  0.00  0.00    +0.053 A 
ENDROOT
BRANCH   3   7
ATOM      7  O   LIG A   1      -9.246   2.426 124.180  0.00  0.00    -0.491 OA
ATOM      8  C   LIG A   1      -9.588   1.626 123.057  0.00  0.00    +0.277 C 
ENDBRANCH   3   7
BRANCH   4   9
ATOM      9  O   LIG A   1      -8.199   4.062 126.345  0.00  0.00    -0.488 OA
ATOM     10  C   LIG A   1      -7.896   3.102 127.350  0.00  0.00    +0.277 C 
ENDBRANCH   4   9
BRANCH   5  11
ATOM     11  O   LIG A   1      -5.704   5.297 125.939  0.00  0.00    -0.491 OA
ATOM     12  C   LIG A   1      -4.621   4.640 126.588  0.00  0.00    +0.277 C 
ENDBRANCH   5  11
BRANCH   1  13
ATOM     13  C   LIG A   1      -5.485   3.524 121.345  0.00  0.00    +0.046 C 
BRANCH  13  14
ATOM     14  C   LIG A   1      -6.081   4.291 120.166  0.00  0.00    +0.125 C 
BRANCH  14  16
ATOM     15  O   LIG A   1      -4.552   6.143 120.552  0.00  0.00    -0.251 OA
ATOM     16  C   LIG A   1      -5.294   5.522 119.790  0.00  0.00    +0.305 C 
BRANCH  16  17
ATOM     17  O   LIG A   1      -5.411   5.857 118.490  0.00  0.00    -0.481 OA
ATOM     18  H   LIG A   1      -5.044   5.197 117.869  0.00  0.00    +0.295 HD
ENDBRANCH  16  17
ENDBRANCH  14  16
ENDBRANCH  13  14
ENDBRANCH   1  13
TORSDOF 7
ENDMDL
MODEL 2
REMARK VINA RESULT:      -6.1      0.218      3.123
REMARK  Name = NuBBE_343
REMARK  10 active torsions:
REMARK  status: ('A' for Active; 'I' for Inactive)
REMARK    1  A    between atoms: C_2  and  O_3
REMARK    2  A    between atoms: C_2  and  C_4
REMARK    3  A    between atoms: C_4  and  C_5
REMARK    4  A    between atoms: C_5  and  C_6
REMARK    5  A    between atoms: C_8  and  O_9
REMARK    6  A    between atoms: O_9  and  C_10
REMARK    7  A    between atoms: C_11  and  O_12
REMARK    8  A    between atoms: O_12  and  C_13
REMARK    9  A    between atoms: C_14  and  O_15
REMARK   10  A    between atoms: O_15  and  C_16
REMARK                            x       y       z     vdW  Elec       q    Type
REMARK                         _______ _______ _______ _____ _____    ______ ____
ROOT
ATOM      1  C   LIG A   1      -6.083   3.682 122.718  0.00  0.00    -0.040 A 
ATOM      2  C   LIG A   1      -5.663   4.443 123.810  0.00  0.00    +0.053 A 
ATOM      3  C   LIG A   1      -6.403   4.474 125.007  0.00  0.00    +0.165 A 
ATOM      4  C   LIG A   1      -7.599   3.732 125.116  0.00  0.00    +0.203 A 
ATOM      5  C   LIG A   1      -8.056   3.018 123.991  0.00  0.00    +0.165 A 
ATOM      6  C   LIG A   1      -7.271   2.955 122.834  0.00  0.00    +0.053 A 
ENDROOT
BRANCH   3   7
ATOM      7  O   LIG A   1      -5.818   5.298 125.940  0.00  0.00    -0.491 OA
ATOM      8  C   LIG A   1      -4.748   4.795 126.728  0.00  0.00    +0.277 C 
ENDBRANCH   3   7
BRANCH   4   9
ATOM      9  O   LIG A   1      -8.315   3.845 126.279  0.00  0.00    -0.488 OA
ATOM     10  C   LIG A   1      -7.981   3.016 127.386  0.00  0.00    +0.277 C 
ENDBRANCH   4   9
BRANCH   5  11
ATOM     11  O   LIG A   1      -9.291   2.420 124.057  0.00  0.00    -0.491 OA
ATOM     12  C   LIG A   1      -9.590   1.467 123.044  0.00  0.00    +0.277 C 
ENDBRANCH   5  11
BRANCH   1  13
ATOM     13  C   LIG A   1      -5.319   3.665 121.416  0.00  0.00    +0.046 C 
BRANCH  13  14
ATOM     14  C   LIG A   1      -6.080   4.246 120.226  0.00  0.00    +0.125 C 
BRANCH  14  16
ATOM     15  O   LIG A   1      -4.691   6.242 120.272  0.00  0.00    -0.251 OA
ATOM     16  C   LIG A   1      -5.444   5.489 119.654  0.00  0.00    +0.305 C 
BRANCH  16  17
ATOM     17  O   LIG A   1      -5.713   5.676 118.346  0.00  0.00    -0.481 OA
ATOM     18  H   LIG A   1      -5.407   6.533 117.990  0.00  0.00    +0.295 HD
ENDBRANCH  16  17
ENDBRANCH  14  16
ENDBRANCH  13  14
ENDBRANCH   1  13
TORSDOF 7
ENDMDL
MODEL 3
REMARK VINA RESULT:      -5.4      5.973     10.058
REMARK  Name = NuBBE_343
REMARK  10 active torsions:
REMARK  status: ('A' for Active; 'I' for Inactive)
REMARK    1  A    between atoms: C_2  and  O_3
REMARK    2  A    between atoms: C_2  and  C_4
REMARK    3  A    between atoms: C_4  and  C_5
REMARK    4  A    between atoms: C_5  and  C_6
REMARK    5  A    between atoms: C_8  and  O_9
REMARK    6  A    between atoms: O_9  and  C_10
REMARK    7  A    between atoms: C_11  and  O_12
REMARK    8  A    between atoms: O_12  and  C_13
REMARK    9  A    between atoms: C_14  and  O_15
REMARK   10  A    between atoms: O_15  and  C_16
REMARK                            x       y       z     vdW  Elec       q    Type
REMARK                         _______ _______ _______ _____ _____    ______ ____
ROOT
ATOM      1  C   LIG A   1      -8.809   6.047 131.716  0.00  0.00    -0.040 A 
ATOM      2  C   LIG A   1      -8.518   5.749 130.385  0.00  0.00    +0.053 A 
ATOM      3  C   LIG A   1      -9.522   5.761 129.398  0.00  0.00    +0.165 A 
ATOM      4  C   LIG A   1     -10.853   6.074 129.750  0.00  0.00    +0.203 A 
ATOM      5  C   LIG A   1     -11.157   6.310 131.104  0.00  0.00    +0.165 A 
ATOM      6  C   LIG A   1     -10.131   6.350 132.056  0.00  0.00    +0.053 A 
ENDROOT
BRANCH   3   7
ATOM      7  O   LIG A   1      -9.020   5.422 128.163  0.00  0.00    -0.491 OA
ATOM      8  C   LIG A   1      -8.095   4.348 128.068  0.00  0.00    +0.277 C 
ENDBRANCH   3   7
BRANCH   4   9
ATOM      9  O   LIG A   1     -11.804   6.011 128.764  0.00  0.00    -0.488 OA
ATOM     10  C   LIG A   1     -12.072   7.169 127.980  0.00  0.00    +0.277 C 
ENDBRANCH   4   9
BRANCH   5  11
ATOM     11  O   LIG A   1     -12.474   6.467 131.459  0.00  0.00    -0.491 OA
ATOM     12  C   LIG A   1     -12.952   7.803 131.549  0.00  0.00    +0.277 C 
ENDBRANCH   5  11
BRANCH   1  13
ATOM     13  C   LIG A   1      -7.751   6.004 132.793  0.00  0.00    +0.046 C 
BRANCH  13  14
ATOM     14  C   LIG A   1      -8.227   5.435 134.128  0.00  0.00    +0.125 C 
BRANCH  14  16
ATOM     15  O   LIG A   1      -7.707   3.060 134.060  0.00  0.00    -0.251 OA
ATOM     16  C   LIG A   1      -8.545   3.961 134.074  0.00  0.00    +0.305 C 
BRANCH  16  17
ATOM     17  O   LIG A   1      -9.866   3.696 134.119  0.00  0.00    -0.481 OA
ATOM     18  H   LIG A   1     -10.420   4.315 133.602  0.00  0.00    +0.295 HD
ENDBRANCH  16  17
ENDBRANCH  14  16
ENDBRANCH  13  14
ENDBRANCH   1  13
TORSDOF 7
ENDMDL
MODEL 4
REMARK VINA RESULT:      -5.3      3.287      5.971
REMARK  Name = NuBBE_343
REMARK  10 active torsions:
REMARK  status: ('A' for Active; 'I' for Inactive)
REMARK    1  A    between atoms: C_2  and  O_3
REMARK    2  A    between atoms: C_2  and  C_4
REMARK    3  A    between atoms: C_4  and  C_5
REMARK    4  A    between atoms: C_5  and  C_6
REMARK    5  A    between atoms: C_8  and  O_9
REMARK    6  A    between atoms: O_9  and  C_10
REMARK    7  A    between atoms: C_11  and  O_12
REMARK    8  A    between atoms: O_12  and  C_13
REMARK    9  A    between atoms: C_14  and  O_15
REMARK   10  A    between atoms: O_15  and  C_16
REMARK                            x       y       z     vdW  Elec       q    Type
REMARK                         _______ _______ _______ _____ _____    ______ ____
ROOT
ATOM      1  C   LIG A   1      -7.565  -0.072 124.209  0.00  0.00    -0.040 A 
ATOM      2  C   LIG A   1      -8.181   0.235 125.422  0.00  0.00    +0.053 A 
ATOM      3  C   LIG A   1      -8.623   1.541 125.709  0.00  0.00    +0.165 A 
ATOM      4  C   LIG A   1      -8.440   2.570 124.760  0.00  0.00    +0.203 A 
ATOM      5  C   LIG A   1      -7.758   2.274 123.564  0.00  0.00    +0.165 A 
ATOM      6  C   LIG A   1      -7.383   0.956 123.279  0.00  0.00    +0.053 A 
ENDROOT
BRANCH   3   7
ATOM      7  O   LIG A   1      -9.184   1.621 126.962  0.00  0.00    -0.491 OA
ATOM      8  C   LIG A   1      -8.348   1.469 128.100  0.00  0.00    +0.277 C 
ENDBRANCH   3   7
BRANCH   4   9
ATOM      9  O   LIG A   1      -8.831   3.836 125.111  0.00  0.00    -0.488 OA
ATOM     10  C   LIG A   1      -7.926   4.673 125.824  0.00  0.00    +0.277 C 
ENDBRANCH   4   9
BRANCH   5  11
ATOM     11  O   LIG A   1      -7.454   3.309 122.714  0.00  0.00    -0.491 OA
ATOM     12  C   LIG A   1      -6.096   3.732 122.690  0.00  0.00    +0.277 C 
ENDBRANCH   5  11
BRANCH   1  13
ATOM     13  C   LIG A   1      -7.054  -1.459 123.901  0.00  0.00    +0.046 C 
BRANCH  13  14
ATOM     14  C   LIG A   1      -8.012  -2.320 123.081  0.00  0.00    +0.125 C 
BRANCH  14  16
ATOM     15  O   LIG A   1      -8.519  -3.741 124.989  0.00  0.00    -0.251 OA
ATOM     16  C   LIG A   1      -8.868  -3.234 123.923  0.00  0.00    +0.305 C 
BRANCH  16  17
ATOM     17  O   LIG A   1     -10.115  -3.398 123.437  0.00  0.00    -0.481 OA
ATOM     18  H   LIG A   1     -10.779  -3.653 124.107  0.00  0.00    +0.295 HD
ENDBRANCH  16  17
ENDBRANCH  14  16
ENDBRANCH  13  14
ENDBRANCH   1  13
TORSDOF 7
ENDMDL
MODEL 5
REMARK VINA RESULT:      -5.0      6.675      7.679
REMARK  Name = NuBBE_343
REMARK  10 active torsions:
REMARK  status: ('A' for Active; 'I' for Inactive)
REMARK    1  A    between atoms: C_2  and  O_3
REMARK    2  A    between atoms: C_2  and  C_4
REMARK    3  A    between atoms: C_4  and  C_5
REMARK    4  A    between atoms: C_5  and  C_6
REMARK    5  A    between atoms: C_8  and  O_9
REMARK    6  A    between atoms: O_9  and  C_10
REMARK    7  A    between atoms: C_11  and  O_12
REMARK    8  A    between atoms: O_12  and  C_13
REMARK    9  A    between atoms: C_14  and  O_15
REMARK   10  A    between atoms: O_15  and  C_16
REMARK                            x       y       z     vdW  Elec       q    Type
REMARK                         _______ _______ _______ _____ _____    ______ ____
ROOT
ATOM      1  C   LIG A   1      -9.979   6.614 129.974  0.00  0.00    -0.040 A 
ATOM      2  C   LIG A   1     -10.098   5.228 129.881  0.00  0.00    +0.053 A 
ATOM      3  C   LIG A   1      -9.134   4.371 130.446  0.00  0.00    +0.165 A 
ATOM      4  C   LIG A   1      -8.017   4.914 131.117  0.00  0.00    +0.203 A 
ATOM      5  C   LIG A   1      -7.864   6.314 131.153  0.00  0.00    +0.165 A 
ATOM      6  C   LIG A   1      -8.867   7.142 130.636  0.00  0.00    +0.053 A 
ENDROOT
BRANCH   3   7
ATOM      7  O   LIG A   1      -9.439   3.049 130.222  0.00  0.00    -0.491 OA
ATOM      8  C   LIG A   1      -8.811   2.372 129.143  0.00  0.00    +0.277 C 
ENDBRANCH   3   7
BRANCH   4   9
ATOM      9  O   LIG A   1      -7.075   4.041 131.596  0.00  0.00    -0.488 OA
ATOM     10  C   LIG A   1      -7.205   3.530 132.918  0.00  0.00    +0.277 C 
ENDBRANCH   4   9
BRANCH   5  11
ATOM     11  O   LIG A   1      -6.704   6.829 131.677  0.00  0.00    -0.491 OA
ATOM     12  C   LIG A   1      -5.645   7.072 130.758  0.00  0.00    +0.277 C 
ENDBRANCH   5  11
BRANCH   1  13
ATOM     13  C   LIG A   1     -10.986   7.546 129.344  0.00  0.00    +0.046 C 
BRANCH  13  14
ATOM     14  C   LIG A   1     -10.494   8.253 128.082  0.00  0.00    +0.125 C 
BRANCH  14  16
ATOM     15  O   LIG A   1     -10.742   8.021 125.674  0.00  0.00    -0.251 OA
ATOM     16  C   LIG A   1     -11.074   7.684 126.810  0.00  0.00    +0.305 C 
BRANCH  16  17
ATOM     17  O   LIG A   1     -11.960   6.691 127.023  0.00  0.00    -0.481 OA
ATOM     18  H   LIG A   1     -11.653   6.003 127.646  0.00  0.00    +0.295 HD
ENDBRANCH  16  17
ENDBRANCH  14  16
ENDBRANCH  13  14
ENDBRANCH   1  13
TORSDOF 7
ENDMDL
MODEL 6
REMARK VINA RESULT:      -4.9      3.689      6.063
REMARK  Name = NuBBE_343
REMARK  10 active torsions:
REMARK  status: ('A' for Active; 'I' for Inactive)
REMARK    1  A    between atoms: C_2  and  O_3
REMARK    2  A    between atoms: C_2  and  C_4
REMARK    3  A    between atoms: C_4  and  C_5
REMARK    4  A    between atoms: C_5  and  C_6
REMARK    5  A    between atoms: C_8  and  O_9
REMARK    6  A    between atoms: O_9  and  C_10
REMARK    7  A    between atoms: C_11  and  O_12
REMARK    8  A    between atoms: O_12  and  C_13
REMARK    9  A    between atoms: C_14  and  O_15
REMARK   10  A    between atoms: O_15  and  C_16
REMARK                            x       y       z     vdW  Elec       q    Type
REMARK                         _______ _______ _______ _____ _____    ______ ____
ROOT
ATOM      1  C   LIG A   1      -6.825   0.817 124.665  0.00  0.00    -0.040 A 
ATOM      2  C   LIG A   1      -6.172  -0.392 124.909  0.00  0.00    +0.053 A 
ATOM      3  C   LIG A   1      -6.681  -1.609 124.418  0.00  0.00    +0.165 A 
ATOM      4  C   LIG A   1      -7.878  -1.622 123.669  0.00  0.00    +0.203 A 
ATOM      5  C   LIG A   1      -8.571  -0.410 123.481  0.00  0.00    +0.165 A 
ATOM      6  C   LIG A   1      -8.013   0.793 123.927  0.00  0.00    +0.053 A 
ENDROOT
BRANCH   3   7
ATOM      7  O   LIG A   1      -5.892  -2.673 124.789  0.00  0.00    -0.491 OA
ATOM      8  C   LIG A   1      -4.938  -3.176 123.865  0.00  0.00    +0.277 C 
ENDBRANCH   3   7
BRANCH   4   9
ATOM      9  O   LIG A   1      -8.365  -2.839 123.268  0.00  0.00    -0.488 OA
ATOM     10  C   LIG A   1      -9.279  -3.535 124.107  0.00  0.00    +0.277 C 
ENDBRANCH   4   9
BRANCH   5  11
ATOM     11  O   LIG A   1      -9.805  -0.452 122.881  0.00  0.00    -0.491 OA
ATOM     12  C   LIG A   1     -10.373   0.797 122.507  0.00  0.00    +0.277 C 
ENDBRANCH   5  11
BRANCH   1  13
ATOM     13  C   LIG A   1      -6.312   2.127 125.214  0.00  0.00    +0.046 C 
BRANCH  13  14
ATOM     14  C   LIG A   1      -6.628   3.345 124.348  0.00  0.00    +0.125 C 
BRANCH  14  16
ATOM     15  O   LIG A   1      -8.779   4.000 125.274  0.00  0.00    -0.251 OA
ATOM     16  C   LIG A   1      -7.619   4.290 124.981  0.00  0.00    +0.305 C 
BRANCH  16  17
ATOM     17  O   LIG A   1      -7.095   5.496 125.279  0.00  0.00    -0.481 OA
ATOM     18  H   LIG A   1      -7.196   5.759 126.215  0.00  0.00    +0.295 HD
ENDBRANCH  16  17
ENDBRANCH  14  16
ENDBRANCH  13  14
ENDBRANCH   1  13
TORSDOF 7
ENDMDL
MODEL 7
REMARK VINA RESULT:      -4.9      4.063      6.357
REMARK  Name = NuBBE_343
REMARK  10 active torsions:
REMARK  status: ('A' for Active; 'I' for Inactive)
REMARK    1  A    between atoms: C_2  and  O_3
REMARK    2  A    between atoms: C_2  and  C_4
REMARK    3  A    between atoms: C_4  and  C_5
REMARK    4  A    between atoms: C_5  and  C_6
REMARK    5  A    between atoms: C_8  and  O_9
REMARK    6  A    between atoms: O_9  and  C_10
REMARK    7  A    between atoms: C_11  and  O_12
REMARK    8  A    between atoms: O_12  and  C_13
REMARK    9  A    between atoms: C_14  and  O_15
REMARK   10  A    between atoms: O_15  and  C_16
REMARK                            x       y       z     vdW  Elec       q    Type
REMARK                         _______ _______ _______ _____ _____    ______ ____
ROOT
ATOM      1  C   LIG A   1      -6.784  -1.388 124.092  0.00  0.00    -0.040 A 
ATOM      2  C   LIG A   1      -7.291  -0.283 123.408  0.00  0.00    +0.053 A 
ATOM      3  C   LIG A   1      -7.089   1.027 123.884  0.00  0.00    +0.165 A 
ATOM      4  C   LIG A   1      -6.367   1.239 125.078  0.00  0.00    +0.203 A 
ATOM      5  C   LIG A   1      -5.912   0.120 125.802  0.00  0.00    +0.165 A 
ATOM      6  C   LIG A   1      -6.074  -1.167 125.276  0.00  0.00    +0.053 A 
ENDROOT
BRANCH   3   7
ATOM      7  O   LIG A   1      -7.688   1.958 123.067  0.00  0.00    -0.491 OA
ATOM      8  C   LIG A   1      -9.097   2.123 123.129  0.00  0.00    +0.277 C 
ENDBRANCH   3   7
BRANCH   4   9
ATOM      9  O   LIG A   1      -6.251   2.528 125.531  0.00  0.00    -0.488 OA
ATOM     10  C   LIG A   1      -7.297   3.086 126.318  0.00  0.00    +0.277 C 
ENDBRANCH   4   9
BRANCH   5  11
ATOM     11  O   LIG A   1      -5.341   0.328 127.033  0.00  0.00    -0.491 OA
ATOM     12  C   LIG A   1      -5.553  -0.683 128.011  0.00  0.00    +0.277 C 
ENDBRANCH   5  11
BRANCH   1  13
ATOM     13  C   LIG A   1      -7.022  -2.801 123.615  0.00  0.00    +0.046 C 
BRANCH  13  14
ATOM     14  C   LIG A   1      -7.912  -3.639 124.529  0.00  0.00    +0.125 C 
BRANCH  14  16
ATOM     15  O   LIG A   1      -9.809  -2.503 125.544  0.00  0.00    -0.251 OA
ATOM     16  C   LIG A   1      -9.335  -3.141 124.604  0.00  0.00    +0.305 C 
BRANCH  16  17
ATOM     17  O   LIG A   1     -10.049  -3.392 123.488  0.00  0.00    -0.481 OA
ATOM     18  H   LIG A   1     -10.652  -4.158 123.560  0.00  0.00    +0.295 HD
ENDBRANCH  16  17
ENDBRANCH  14  16
ENDBRANCH  13  14
ENDBRANCH   1  13
TORSDOF 7
ENDMDL
MODEL 8
REMARK VINA RESULT:      -4.9      5.675      8.738
REMARK  Name = NuBBE_343
REMARK  10 active torsions:
REMARK  status: ('A' for Active; 'I' for Inactive)
REMARK    1  A    between atoms: C_2  and  O_3
REMARK    2  A    between atoms: C_2  and  C_4
REMARK    3  A    between atoms: C_4  and  C_5
REMARK    4  A    between atoms: C_5  and  C_6
REMARK    5  A    between atoms: C_8  and  O_9
REMARK    6  A    between atoms: O_9  and  C_10
REMARK    7  A    between atoms: C_11  and  O_12
REMARK    8  A    between atoms: O_12  and  C_13
REMARK    9  A    between atoms: C_14  and  O_15
REMARK   10  A    between atoms: O_15  and  C_16
REMARK                            x       y       z     vdW  Elec       q    Type
REMARK                         _______ _______ _______ _____ _____    ______ ____
ROOT
ATOM      1  C   LIG A   1      -8.278  -2.720 127.745  0.00  0.00    -0.040 A 
ATOM      2  C   LIG A   1      -8.934  -2.978 126.542  0.00  0.00    +0.053 A 
ATOM      3  C   LIG A   1      -9.042  -1.993 125.542  0.00  0.00    +0.165 A 
ATOM      4  C   LIG A   1      -8.486  -0.713 125.751  0.00  0.00    +0.203 A 
ATOM      5  C   LIG A   1      -7.882  -0.432 126.992  0.00  0.00    +0.165 A 
ATOM      6  C   LIG A   1      -7.735  -1.447 127.945  0.00  0.00    +0.053 A 
ENDROOT
BRANCH   3   7
ATOM      7  O   LIG A   1      -9.740  -2.455 124.451  0.00  0.00    -0.491 OA
ATOM      8  C   LIG A   1      -9.024  -3.044 123.375  0.00  0.00    +0.277 C 
ENDBRANCH   3   7
BRANCH   4   9
ATOM      9  O   LIG A   1      -8.671   0.230 124.774  0.00  0.00    -0.488 OA
ATOM     10  C   LIG A   1      -9.843   1.037 124.797  0.00  0.00    +0.277 C 
ENDBRANCH   4   9
BRANCH   5  11
ATOM     11  O   LIG A   1      -7.476   0.855 127.243  0.00  0.00    -0.491 OA
ATOM     12  C   LIG A   1      -8.263   1.602 128.163  0.00  0.00    +0.277 C 
ENDBRANCH   5  11
BRANCH   1  13
ATOM     13  C   LIG A   1      -8.184  -3.754 128.841  0.00  0.00    +0.046 C 
BRANCH  13  14
ATOM     14  C   LIG A   1      -7.333  -3.335 130.038  0.00  0.00    +0.125 C 
BRANCH  14  16
ATOM     15  O   LIG A   1      -5.750  -5.079 130.645  0.00  0.00    -0.251 OA
ATOM     16  C   LIG A   1      -5.984  -4.010 130.082  0.00  0.00    +0.305 C 
BRANCH  16  17
ATOM     17  O   LIG A   1      -5.040  -3.366 129.367  0.00  0.00    -0.481 OA
ATOM     18  H   LIG A   1      -5.323  -3.103 128.469  0.00  0.00    +0.295 HD
ENDBRANCH  16  17
ENDBRANCH  14  16
ENDBRANCH  13  14
ENDBRANCH   1  13
TORSDOF 7
ENDMDL
MODEL 9
REMARK VINA RESULT:      -4.9      5.613      9.282
REMARK  Name = NuBBE_343
REMARK  10 active torsions:
REMARK  status: ('A' for Active; 'I' for Inactive)
REMARK    1  A    between atoms: C_2  and  O_3
REMARK    2  A    between atoms: C_2  and  C_4
REMARK    3  A    between atoms: C_4  and  C_5
REMARK    4  A    between atoms: C_5  and  C_6
REMARK    5  A    between atoms: C_8  and  O_9
REMARK    6  A    between atoms: O_9  and  C_10
REMARK    7  A    between atoms: C_11  and  O_12
REMARK    8  A    between atoms: O_12  and  C_13
REMARK    9  A    between atoms: C_14  and  O_15
REMARK   10  A    between atoms: O_15  and  C_16
REMARK                            x       y       z     vdW  Elec       q    Type
REMARK                         _______ _______ _______ _____ _____    ______ ____
ROOT
ATOM      1  C   LIG A   1      -8.114  -2.684 127.340  0.00  0.00    -0.040 A 
ATOM      2  C   LIG A   1      -6.896  -2.031 127.155  0.00  0.00    +0.053 A 
ATOM      3  C   LIG A   1      -6.604  -1.354 125.955  0.00  0.00    +0.165 A 
ATOM      4  C   LIG A   1      -7.552  -1.334 124.909  0.00  0.00    +0.203 A 
ATOM      5  C   LIG A   1      -8.754  -2.049 125.071  0.00  0.00    +0.165 A 
ATOM      6  C   LIG A   1      -9.044  -2.663 126.296  0.00  0.00    +0.053 A 
ENDROOT
BRANCH   3   7
ATOM      7  O   LIG A   1      -5.346  -0.799 125.982  0.00  0.00    -0.491 OA
ATOM      8  C   LIG A   1      -5.199   0.551 126.398  0.00  0.00    +0.277 C 
ENDBRANCH   3   7
BRANCH   4   9
ATOM      9  O   LIG A   1      -7.196  -0.715 123.739  0.00  0.00    -0.488 OA
ATOM     10  C   LIG A   1      -7.548   0.649 123.536  0.00  0.00    +0.277 C 
ENDBRANCH   4   9
BRANCH   5  11
ATOM     11  O   LIG A   1      -9.603  -2.148 123.997  0.00  0.00    -0.491 OA
ATOM     12  C   LIG A   1      -9.620  -3.395 123.313  0.00  0.00    +0.277 C 
ENDBRANCH   5  11
BRANCH   1  13
ATOM     13  C   LIG A   1      -8.429  -3.444 128.606  0.00  0.00    +0.046 C 
BRANCH  13  14
ATOM     14  C   LIG A   1      -7.260  -3.563 129.582  0.00  0.00    +0.125 C 
BRANCH  14  16
ATOM     15  O   LIG A   1      -7.180  -3.210 131.987  0.00  0.00    -0.251 OA
ATOM     16  C   LIG A   1      -7.468  -2.796 130.865  0.00  0.00    +0.305 C 
BRANCH  16  17
ATOM     17  O   LIG A   1      -7.942  -1.548 130.672  0.00  0.00    -0.481 OA
ATOM     18  H   LIG A   1      -7.253  -0.878 130.492  0.00  0.00    +0.295 HD
ENDBRANCH  16  17
ENDBRANCH  14  16
ENDBRANCH  13  14
ENDBRANCH   1  13
TORSDOF 7
ENDMDL
