MODEL 1
REMARK VINA RESULT:      -8.3      0.000      0.000
REMARK  Name = NuBBE_1099
REMARK  12 active torsions:
REMARK  status: ('A' for Active; 'I' for Inactive)
REMARK    1  A    between atoms: C_5  and  C_6
REMARK    2  A    between atoms: C_8  and  O_10
REMARK    3  A    between atoms: O_10  and  C_11
REMARK    4  A    between atoms: C_11  and  C_12
REMARK    5  A    between atoms: C_14  and  O_16
REMARK    6  A    between atoms: O_16  and  C_17
REMARK    7  A    between atoms: C_17  and  C_18
REMARK    8  A    between atoms: C_20  and  C_21
REMARK    9  A    between atoms: C_26  and  C_27
REMARK   10  A    between atoms: C_33  and  C_35
REMARK   11  A    between atoms: C_41  and  C_42
REMARK   12  A    between atoms: C_41  and  C_43
REMARK                            x       y       z     vdW  Elec       q    Type
REMARK                         _______ _______ _______ _____ _____    ______ ____
ROOT
ATOM      1  O   LIG A   1      -8.040   7.552 130.502  0.00  0.00    -0.292 OA
ATOM      2  C   LIG A   1      -7.698   6.411 130.796  0.00  0.00    +0.162 C 
ATOM      3  C   LIG A   1      -8.724   5.332 130.843  0.00  0.00    +0.043 C 
ATOM      4  C   LIG A   1      -8.368   4.037 130.871  0.00  0.00    -0.016 C 
ATOM      5  C   LIG A   1      -6.938   3.487 130.722  0.00  0.00    -0.003 C 
ATOM      6  C   LIG A   1      -6.592   2.736 132.027  0.00  0.00    +0.016 C 
ATOM      7  C   LIG A   1      -6.027   4.714 130.330  0.00  0.00    +0.056 C 
ATOM      8  C   LIG A   1      -4.574   4.317 130.043  0.00  0.00    +0.222 C 
ATOM      9  C   LIG A   1      -4.558   3.365 128.796  0.00  0.00    +0.226 C 
ATOM     10  C   LIG A   1      -5.434   2.072 128.964  0.00  0.00    +0.044 C 
ATOM     11  C   LIG A   1      -4.605   1.096 129.835  0.00  0.00    +0.018 C 
ATOM     12  C   LIG A   1      -6.886   2.474 129.518  0.00  0.00    +0.012 C 
ATOM     13  C   LIG A   1      -7.805   1.221 129.660  0.00  0.00    +0.006 C 
ATOM     14  C   LIG A   1      -8.048   0.541 128.300  0.00  0.00    +0.010 C 
ATOM     15  C   LIG A   1      -6.731   0.138 127.609  0.00  0.00    +0.007 C 
ATOM     16  C   LIG A   1      -6.120  -1.052 128.355  0.00  0.00    +0.014 C 
ATOM     17  C   LIG A   1      -5.792   1.371 127.608  0.00  0.00    +0.111 C 
ATOM     18  O   LIG A   1      -6.227   2.383 126.644  0.00  0.00    -0.363 OA
ATOM     19  C   LIG A   1      -5.186   1.505 126.247  0.00  0.00    +0.153 C 
ATOM     20  C   LIG A   1      -5.673   0.401 125.353  0.00  0.00    +0.043 C 
ATOM     21  C   LIG A   1      -6.938  -0.181 126.056  0.00  0.00    +0.033 C 
ATOM     22  C   LIG A   1      -6.269   6.011 131.181  0.00  0.00    +0.035 C 
ATOM     23  C   LIG A   1      -5.278   7.131 130.810  0.00  0.00    +0.019 C 
ATOM     24  C   LIG A   1      -6.262   5.901 132.714  0.00  0.00    +0.019 C 
ENDROOT
BRANCH  21  25
ATOM     25  C   LIG A   1      -7.231  -1.608 125.616  0.00  0.00    -0.006 A 
ATOM     26  C   LIG A   1      -6.471  -2.476 124.847  0.00  0.00    +0.198 A 
ATOM     27  O   LIG A   1      -7.084  -3.665 124.656  0.00  0.00    -0.471 OA
ATOM     28  C   LIG A   1      -8.289  -3.579 125.261  0.00  0.00    +0.195 A 
ATOM     29  C   LIG A   1      -8.434  -2.349 125.861  0.00  0.00    +0.045 A 
ENDBRANCH  21  25
BRANCH   8  30
ATOM     30  O   LIG A   1      -4.052   3.754 131.260  0.00  0.00    -0.457 OA
BRANCH  30  31
ATOM     31  C   LIG A   1      -2.892   4.241 131.756  0.00  0.00    +0.304 C 
ATOM     32  C   LIG A   1      -2.520   3.511 133.012  0.00  0.00    +0.136 C 
ATOM     33  O   LIG A   1      -2.245   5.173 131.276  0.00  0.00    -0.251 OA
ENDBRANCH  30  31
ENDBRANCH   8  30
BRANCH   9  34
ATOM     34  O   LIG A   1      -3.168   3.056 128.521  0.00  0.00    -0.457 OA
BRANCH  34  35
ATOM     35  C   LIG A   1      -2.558   3.856 127.599  0.00  0.00    +0.304 C 
ATOM     36  C   LIG A   1      -1.819   3.040 126.587  0.00  0.00    +0.136 C 
ATOM     37  O   LIG A   1      -2.581   5.079 127.599  0.00  0.00    -0.251 OA
ENDBRANCH  34  35
ENDBRANCH   9  34
TORSDOF 5
ENDMDL
MODEL 2
REMARK VINA RESULT:      -8.1      1.876      2.459
REMARK  Name = NuBBE_1099
REMARK  12 active torsions:
REMARK  status: ('A' for Active; 'I' for Inactive)
REMARK    1  A    between atoms: C_5  and  C_6
REMARK    2  A    between atoms: C_8  and  O_10
REMARK    3  A    between atoms: O_10  and  C_11
REMARK    4  A    between atoms: C_11  and  C_12
REMARK    5  A    between atoms: C_14  and  O_16
REMARK    6  A    between atoms: O_16  and  C_17
REMARK    7  A    between atoms: C_17  and  C_18
REMARK    8  A    between atoms: C_20  and  C_21
REMARK    9  A    between atoms: C_26  and  C_27
REMARK   10  A    between atoms: C_33  and  C_35
REMARK   11  A    between atoms: C_41  and  C_42
REMARK   12  A    between atoms: C_41  and  C_43
REMARK                            x       y       z     vdW  Elec       q    Type
REMARK                         _______ _______ _______ _____ _____    ______ ____
ROOT
ATOM      1  O   LIG A   1      -9.366   5.725 132.702  0.00  0.00    -0.292 OA
ATOM      2  C   LIG A   1      -8.474   4.966 132.341  0.00  0.00    +0.162 C 
ATOM      3  C   LIG A   1      -8.579   3.514 132.660  0.00  0.00    +0.043 C 
ATOM      4  C   LIG A   1      -7.795   2.611 132.047  0.00  0.00    -0.016 C 
ATOM      5  C   LIG A   1      -6.825   2.892 130.886  0.00  0.00    -0.003 C 
ATOM      6  C   LIG A   1      -5.402   2.541 131.375  0.00  0.00    +0.016 C 
ATOM      7  C   LIG A   1      -7.087   4.381 130.436  0.00  0.00    +0.056 C 
ATOM      8  C   LIG A   1      -6.265   4.793 129.209  0.00  0.00    +0.222 C 
ATOM      9  C   LIG A   1      -6.704   3.902 127.995  0.00  0.00    +0.226 C 
ATOM     10  C   LIG A   1      -6.547   2.358 128.242  0.00  0.00    +0.044 C 
ATOM     11  C   LIG A   1      -5.043   2.039 128.050  0.00  0.00    +0.018 C 
ATOM     12  C   LIG A   1      -7.188   1.971 129.662  0.00  0.00    +0.012 C 
ATOM     13  C   LIG A   1      -7.090   0.437 129.927  0.00  0.00    +0.006 C 
ATOM     14  C   LIG A   1      -7.876  -0.370 128.877  0.00  0.00    +0.010 C 
ATOM     15  C   LIG A   1      -7.408  -0.066 127.442  0.00  0.00    +0.007 C 
ATOM     16  C   LIG A   1      -6.027  -0.691 127.225  0.00  0.00    +0.014 C 
ATOM     17  C   LIG A   1      -7.388   1.473 127.259  0.00  0.00    +0.111 C 
ATOM     18  O   LIG A   1      -8.740   2.024 127.153  0.00  0.00    -0.363 OA
ATOM     19  C   LIG A   1      -8.027   1.803 125.947  0.00  0.00    +0.153 C 
ATOM     20  C   LIG A   1      -8.452   0.544 125.248  0.00  0.00    +0.043 C 
ATOM     21  C   LIG A   1      -8.461  -0.564 126.346  0.00  0.00    +0.033 C 
ATOM     22  C   LIG A   1      -7.201   5.413 131.613  0.00  0.00    +0.035 C 
ATOM     23  C   LIG A   1      -7.357   6.856 131.095  0.00  0.00    +0.019 C 
ATOM     24  C   LIG A   1      -6.095   5.441 132.680  0.00  0.00    +0.019 C 
ENDROOT
BRANCH  21  25
ATOM     25  C   LIG A   1      -8.322  -1.958 125.752  0.00  0.00    -0.006 A 
ATOM     26  C   LIG A   1      -8.635  -3.194 126.298  0.00  0.00    +0.198 A 
ATOM     27  O   LIG A   1      -8.349  -4.214 125.459  0.00  0.00    -0.471 OA
ATOM     28  C   LIG A   1      -7.791  -3.663 124.359  0.00  0.00    +0.195 A 
ATOM     29  C   LIG A   1      -7.747  -2.293 124.481  0.00  0.00    +0.045 A 
ENDBRANCH  21  25
BRANCH   8  30
ATOM     30  O   LIG A   1      -4.880   4.687 129.588  0.00  0.00    -0.457 OA
BRANCH  30  31
ATOM     31  C   LIG A   1      -4.097   5.787 129.506  0.00  0.00    +0.304 C 
ATOM     32  C   LIG A   1      -2.789   5.544 130.197  0.00  0.00    +0.136 C 
ATOM     33  O   LIG A   1      -4.417   6.852 128.975  0.00  0.00    -0.251 OA
ENDBRANCH  30  31
ENDBRANCH   8  30
BRANCH   9  34
ATOM     34  O   LIG A   1      -5.947   4.356 126.844  0.00  0.00    -0.457 OA
BRANCH  34  35
ATOM     35  C   LIG A   1      -6.688   4.845 125.809  0.00  0.00    +0.304 C 
ATOM     36  C   LIG A   1      -5.961   4.690 124.510  0.00  0.00    +0.136 C 
ATOM     37  O   LIG A   1      -7.789   5.367 125.911  0.00  0.00    -0.251 OA
ENDBRANCH  34  35
ENDBRANCH   9  34
TORSDOF 5
ENDMDL
MODEL 3
REMARK VINA RESULT:      -8.0      3.149      8.405
REMARK  Name = NuBBE_1099
REMARK  12 active torsions:
REMARK  status: ('A' for Active; 'I' for Inactive)
REMARK    1  A    between atoms: C_5  and  C_6
REMARK    2  A    between atoms: C_8  and  O_10
REMARK    3  A    between atoms: O_10  and  C_11
REMARK    4  A    between atoms: C_11  and  C_12
REMARK    5  A    between atoms: C_14  and  O_16
REMARK    6  A    between atoms: O_16  and  C_17
REMARK    7  A    between atoms: C_17  and  C_18
REMARK    8  A    between atoms: C_20  and  C_21
REMARK    9  A    between atoms: C_26  and  C_27
REMARK   10  A    between atoms: C_33  and  C_35
REMARK   11  A    between atoms: C_41  and  C_42
REMARK   12  A    between atoms: C_41  and  C_43
REMARK                            x       y       z     vdW  Elec       q    Type
REMARK                         _______ _______ _______ _____ _____    ______ ____
ROOT
ATOM      1  O   LIG A   1      -5.504  -1.041 128.896  0.00  0.00    -0.292 OA
ATOM      2  C   LIG A   1      -5.443  -0.480 129.985  0.00  0.00    +0.162 C 
ATOM      3  C   LIG A   1      -4.133  -0.396 130.689  0.00  0.00    +0.043 C 
ATOM      4  C   LIG A   1      -3.952   0.445 131.721  0.00  0.00    -0.016 C 
ATOM      5  C   LIG A   1      -4.960   1.496 132.221  0.00  0.00    -0.003 C 
ATOM      6  C   LIG A   1      -5.325   1.133 133.677  0.00  0.00    +0.016 C 
ATOM      7  C   LIG A   1      -6.133   1.525 131.167  0.00  0.00    +0.056 C 
ATOM      8  C   LIG A   1      -7.183   2.603 131.464  0.00  0.00    +0.222 C 
ATOM      9  C   LIG A   1      -6.492   4.008 131.365  0.00  0.00    +0.226 C 
ATOM     10  C   LIG A   1      -5.263   4.189 132.327  0.00  0.00    +0.044 C 
ATOM     11  C   LIG A   1      -5.850   4.474 133.732  0.00  0.00    +0.018 C 
ATOM     12  C   LIG A   1      -4.288   2.920 132.200  0.00  0.00    +0.012 C 
ATOM     13  C   LIG A   1      -3.031   3.079 133.109  0.00  0.00    +0.006 C 
ATOM     14  C   LIG A   1      -2.186   4.300 132.700  0.00  0.00    +0.010 C 
ATOM     15  C   LIG A   1      -3.005   5.604 132.721  0.00  0.00    +0.007 C 
ATOM     16  C   LIG A   1      -3.283   5.995 134.176  0.00  0.00    +0.014 C 
ATOM     17  C   LIG A   1      -4.311   5.365 131.921  0.00  0.00    +0.111 C 
ATOM     18  O   LIG A   1      -4.060   5.306 130.480  0.00  0.00    -0.363 OA
ATOM     19  C   LIG A   1      -4.530   6.534 131.012  0.00  0.00    +0.153 C 
ATOM     20  C   LIG A   1      -3.433   7.543 131.192  0.00  0.00    +0.043 C 
ATOM     21  C   LIG A   1      -2.280   6.784 131.921  0.00  0.00    +0.033 C 
ATOM     22  C   LIG A   1      -6.651   0.113 130.720  0.00  0.00    +0.035 C 
ATOM     23  C   LIG A   1      -7.859   0.221 129.769  0.00  0.00    +0.019 C 
ATOM     24  C   LIG A   1      -7.027  -0.912 131.802  0.00  0.00    +0.019 C 
ENDROOT
BRANCH  21  25
ATOM     25  C   LIG A   1      -1.351   7.733 132.663  0.00  0.00    -0.006 A 
ATOM     26  C   LIG A   1      -0.062   7.531 133.133  0.00  0.00    +0.198 A 
ATOM     27  O   LIG A   1       0.432   8.620 133.763  0.00  0.00    -0.471 OA
ATOM     28  C   LIG A   1      -0.552   9.545 133.762  0.00  0.00    +0.195 A 
ATOM     29  C   LIG A   1      -1.662   9.061 133.107  0.00  0.00    +0.045 A 
ENDBRANCH  21  25
BRANCH   8  30
ATOM     30  O   LIG A   1      -7.752   2.281 132.746  0.00  0.00    -0.457 OA
BRANCH  30  31
ATOM     31  C   LIG A   1      -9.038   2.621 132.990  0.00  0.00    +0.304 C 
ATOM     32  C   LIG A   1      -9.953   1.898 132.048  0.00  0.00    +0.136 C 
ATOM     33  O   LIG A   1      -9.412   3.435 133.836  0.00  0.00    -0.251 OA
ENDBRANCH  30  31
ENDBRANCH   8  30
BRANCH   9  34
ATOM     34  O   LIG A   1      -7.523   5.001 131.597  0.00  0.00    -0.457 OA
BRANCH  34  35
ATOM     35  C   LIG A   1      -7.957   5.669 130.489  0.00  0.00    +0.304 C 
ATOM     36  C   LIG A   1      -8.792   6.851 130.869  0.00  0.00    +0.136 C 
ATOM     37  O   LIG A   1      -7.725   5.345 129.332  0.00  0.00    -0.251 OA
ENDBRANCH  34  35
ENDBRANCH   9  34
TORSDOF 5
ENDMDL
MODEL 4
REMARK VINA RESULT:      -7.9      1.415      1.575
REMARK  Name = NuBBE_1099
REMARK  12 active torsions:
REMARK  status: ('A' for Active; 'I' for Inactive)
REMARK    1  A    between atoms: C_5  and  C_6
REMARK    2  A    between atoms: C_8  and  O_10
REMARK    3  A    between atoms: O_10  and  C_11
REMARK    4  A    between atoms: C_11  and  C_12
REMARK    5  A    between atoms: C_14  and  O_16
REMARK    6  A    between atoms: O_16  and  C_17
REMARK    7  A    between atoms: C_17  and  C_18
REMARK    8  A    between atoms: C_20  and  C_21
REMARK    9  A    between atoms: C_26  and  C_27
REMARK   10  A    between atoms: C_33  and  C_35
REMARK   11  A    between atoms: C_41  and  C_42
REMARK   12  A    between atoms: C_41  and  C_43
REMARK                            x       y       z     vdW  Elec       q    Type
REMARK                         _______ _______ _______ _____ _____    ______ ____
ROOT
ATOM      1  O   LIG A   1     -10.376   6.295 130.927  0.00  0.00    -0.292 OA
ATOM      2  C   LIG A   1      -9.622   5.341 131.088  0.00  0.00    +0.162 C 
ATOM      3  C   LIG A   1     -10.178   3.959 131.049  0.00  0.00    +0.043 C 
ATOM      4  C   LIG A   1      -9.372   2.890 130.927  0.00  0.00    -0.016 C 
ATOM      5  C   LIG A   1      -7.853   2.924 130.679  0.00  0.00    -0.003 C 
ATOM      6  C   LIG A   1      -7.171   2.242 131.885  0.00  0.00    +0.016 C 
ATOM      7  C   LIG A   1      -7.481   4.431 130.395  0.00  0.00    +0.056 C 
ATOM      8  C   LIG A   1      -6.006   4.628 130.025  0.00  0.00    +0.222 C 
ATOM      9  C   LIG A   1      -5.726   3.864 128.683  0.00  0.00    +0.226 C 
ATOM     10  C   LIG A   1      -6.057   2.329 128.737  0.00  0.00    +0.044 C 
ATOM     11  C   LIG A   1      -4.873   1.656 129.474  0.00  0.00    +0.018 C 
ATOM     12  C   LIG A   1      -7.515   2.114 129.372  0.00  0.00    +0.012 C 
ATOM     13  C   LIG A   1      -7.901   0.603 129.405  0.00  0.00    +0.006 C 
ATOM     14  C   LIG A   1      -7.968   0.005 127.987  0.00  0.00    +0.010 C 
ATOM     15  C   LIG A   1      -6.644   0.182 127.219  0.00  0.00    +0.007 C 
ATOM     16  C   LIG A   1      -5.593  -0.759 127.816  0.00  0.00    +0.014 C 
ATOM     17  C   LIG A   1      -6.223   1.669 127.324  0.00  0.00    +0.111 C 
ATOM     18  O   LIG A   1      -7.060   2.530 126.487  0.00  0.00    -0.363 OA
ATOM     19  C   LIG A   1      -5.800   2.139 125.968  0.00  0.00    +0.153 C 
ATOM     20  C   LIG A   1      -5.907   1.017 124.976  0.00  0.00    +0.043 C 
ATOM     21  C   LIG A   1      -6.823  -0.052 125.648  0.00  0.00    +0.033 C 
ATOM     22  C   LIG A   1      -8.123   5.465 131.386  0.00  0.00    +0.035 C 
ATOM     23  C   LIG A   1      -7.637   6.901 131.109  0.00  0.00    +0.019 C 
ATOM     24  C   LIG A   1      -7.976   5.229 132.897  0.00  0.00    +0.019 C 
ENDROOT
BRANCH  21  25
ATOM     25  C   LIG A   1      -6.603  -1.441 125.066  0.00  0.00    -0.006 A 
ATOM     26  C   LIG A   1      -5.514  -1.956 124.379  0.00  0.00    +0.198 A 
ATOM     27  O   LIG A   1      -5.703  -3.240 124.004  0.00  0.00    -0.471 OA
ATOM     28  C   LIG A   1      -6.950  -3.577 124.398  0.00  0.00    +0.195 A 
ATOM     29  C   LIG A   1      -7.546  -2.521 125.049  0.00  0.00    +0.045 A 
ENDBRANCH  21  25
BRANCH   8  30
ATOM     30  O   LIG A   1      -5.236   4.191 131.159  0.00  0.00    -0.457 OA
BRANCH  30  31
ATOM     31  C   LIG A   1      -4.277   5.011 131.648  0.00  0.00    +0.304 C 
ATOM     32  C   LIG A   1      -2.935   4.351 131.555  0.00  0.00    +0.136 C 
ATOM     33  O   LIG A   1      -4.473   6.126 132.136  0.00  0.00    -0.251 OA
ENDBRANCH  30  31
ENDBRANCH   8  30
BRANCH   9  34
ATOM     34  O   LIG A   1      -4.341   4.117 128.336  0.00  0.00    -0.457 OA
BRANCH  34  35
ATOM     35  C   LIG A   1      -4.106   5.279 127.661  0.00  0.00    +0.304 C 
ATOM     36  C   LIG A   1      -2.786   5.866 128.048  0.00  0.00    +0.136 C 
ATOM     37  O   LIG A   1      -4.872   5.800 126.861  0.00  0.00    -0.251 OA
ENDBRANCH  34  35
ENDBRANCH   9  34
TORSDOF 5
ENDMDL
MODEL 5
REMARK VINA RESULT:      -7.8      3.346      8.127
REMARK  Name = NuBBE_1099
REMARK  12 active torsions:
REMARK  status: ('A' for Active; 'I' for Inactive)
REMARK    1  A    between atoms: C_5  and  C_6
REMARK    2  A    between atoms: C_8  and  O_10
REMARK    3  A    between atoms: O_10  and  C_11
REMARK    4  A    between atoms: C_11  and  C_12
REMARK    5  A    between atoms: C_14  and  O_16
REMARK    6  A    between atoms: O_16  and  C_17
REMARK    7  A    between atoms: C_17  and  C_18
REMARK    8  A    between atoms: C_20  and  C_21
REMARK    9  A    between atoms: C_26  and  C_27
REMARK   10  A    between atoms: C_33  and  C_35
REMARK   11  A    between atoms: C_41  and  C_42
REMARK   12  A    between atoms: C_41  and  C_43
REMARK                            x       y       z     vdW  Elec       q    Type
REMARK                         _______ _______ _______ _____ _____    ______ ____
ROOT
ATOM      1  O   LIG A   1      -8.335   0.410 131.822  0.00  0.00    -0.292 OA
ATOM      2  C   LIG A   1      -8.231   1.622 131.988  0.00  0.00    +0.162 C 
ATOM      3  C   LIG A   1      -7.881   2.145 133.337  0.00  0.00    +0.043 C 
ATOM      4  C   LIG A   1      -7.473   3.415 133.505  0.00  0.00    -0.016 C 
ATOM      5  C   LIG A   1      -7.182   4.428 132.384  0.00  0.00    -0.003 C 
ATOM      6  C   LIG A   1      -8.160   5.610 132.562  0.00  0.00    +0.016 C 
ATOM      7  C   LIG A   1      -7.256   3.626 131.027  0.00  0.00    +0.056 C 
ATOM      8  C   LIG A   1      -6.887   4.475 129.805  0.00  0.00    +0.222 C 
ATOM      9  C   LIG A   1      -5.391   4.925 129.947  0.00  0.00    +0.226 C 
ATOM     10  C   LIG A   1      -5.085   5.731 131.261  0.00  0.00    +0.044 C 
ATOM     11  C   LIG A   1      -5.591   7.173 131.014  0.00  0.00    +0.018 C 
ATOM     12  C   LIG A   1      -5.706   4.958 132.524  0.00  0.00    +0.012 C 
ATOM     13  C   LIG A   1      -5.387   5.704 133.856  0.00  0.00    +0.006 C 
ATOM     14  C   LIG A   1      -3.871   5.779 134.114  0.00  0.00    +0.010 C 
ATOM     15  C   LIG A   1      -3.118   6.456 132.953  0.00  0.00    +0.007 C 
ATOM     16  C   LIG A   1      -3.428   7.955 132.965  0.00  0.00    +0.014 C 
ATOM     17  C   LIG A   1      -3.563   5.778 131.633  0.00  0.00    +0.111 C 
ATOM     18  O   LIG A   1      -2.991   4.438 131.492  0.00  0.00    -0.363 OA
ATOM     19  C   LIG A   1      -2.345   5.499 130.809  0.00  0.00    +0.153 C 
ATOM     20  C   LIG A   1      -1.116   5.982 131.524  0.00  0.00    +0.043 C 
ATOM     21  C   LIG A   1      -1.545   6.177 133.011  0.00  0.00    +0.033 C 
ATOM     22  C   LIG A   1      -8.492   2.667 130.897  0.00  0.00    +0.035 C 
ATOM     23  C   LIG A   1      -8.551   1.996 129.512  0.00  0.00    +0.019 C 
ATOM     24  C   LIG A   1      -9.895   3.227 131.180  0.00  0.00    +0.019 C 
ENDROOT
BRANCH  21  25
ATOM     25  C   LIG A   1      -0.636   7.153 133.745  0.00  0.00    -0.006 A 
ATOM     26  C   LIG A   1       0.014   8.286 133.279  0.00  0.00    +0.198 A 
ATOM     27  O   LIG A   1       0.752   8.886 134.239  0.00  0.00    -0.471 OA
ATOM     28  C   LIG A   1       0.637   8.123 135.347  0.00  0.00    +0.195 A 
ATOM     29  C   LIG A   1      -0.195   7.053 135.106  0.00  0.00    +0.045 A 
ENDBRANCH  21  25
BRANCH   8  30
ATOM     30  O   LIG A   1      -7.852   5.541 129.738  0.00  0.00    -0.457 OA
BRANCH  30  31
ATOM     31  C   LIG A   1      -8.748   5.545 128.725  0.00  0.00    +0.304 C 
ATOM     32  C   LIG A   1      -9.974   6.310 129.121  0.00  0.00    +0.136 C 
ATOM     33  O   LIG A   1      -8.603   4.974 127.642  0.00  0.00    -0.251 OA
ENDBRANCH  30  31
ENDBRANCH   8  30
BRANCH   9  34
ATOM     34  O   LIG A   1      -5.062   5.677 128.751  0.00  0.00    -0.457 OA
BRANCH  34  35
ATOM     35  C   LIG A   1      -4.854   4.932 127.627  0.00  0.00    +0.304 C 
ATOM     36  C   LIG A   1      -3.775   3.920 127.848  0.00  0.00    +0.136 C 
ATOM     37  O   LIG A   1      -5.443   5.076 126.565  0.00  0.00    -0.251 OA
ENDBRANCH  34  35
ENDBRANCH   9  34
TORSDOF 5
ENDMDL
MODEL 6
REMARK VINA RESULT:      -7.8      3.949      5.797
REMARK  Name = NuBBE_1099
REMARK  12 active torsions:
REMARK  status: ('A' for Active; 'I' for Inactive)
REMARK    1  A    between atoms: C_5  and  C_6
REMARK    2  A    between atoms: C_8  and  O_10
REMARK    3  A    between atoms: O_10  and  C_11
REMARK    4  A    between atoms: C_11  and  C_12
REMARK    5  A    between atoms: C_14  and  O_16
REMARK    6  A    between atoms: O_16  and  C_17
REMARK    7  A    between atoms: C_17  and  C_18
REMARK    8  A    between atoms: C_20  and  C_21
REMARK    9  A    between atoms: C_26  and  C_27
REMARK   10  A    between atoms: C_33  and  C_35
REMARK   11  A    between atoms: C_41  and  C_42
REMARK   12  A    between atoms: C_41  and  C_43
REMARK                            x       y       z     vdW  Elec       q    Type
REMARK                         _______ _______ _______ _____ _____    ______ ____
ROOT
ATOM      1  O   LIG A   1      -7.790  -2.517 136.218  0.00  0.00    -0.292 OA
ATOM      2  C   LIG A   1      -7.040  -2.773 135.281  0.00  0.00    +0.162 C 
ATOM      3  C   LIG A   1      -7.355  -3.925 134.390  0.00  0.00    +0.043 C 
ATOM      4  C   LIG A   1      -6.746  -4.069 133.201  0.00  0.00    -0.016 C 
ATOM      5  C   LIG A   1      -5.790  -3.057 132.545  0.00  0.00    -0.003 C 
ATOM      6  C   LIG A   1      -4.421  -3.752 132.379  0.00  0.00    +0.016 C 
ATOM      7  C   LIG A   1      -5.838  -1.756 133.435  0.00  0.00    +0.056 C 
ATOM      8  C   LIG A   1      -5.011  -0.601 132.858  0.00  0.00    +0.222 C 
ATOM      9  C   LIG A   1      -5.631  -0.189 131.476  0.00  0.00    +0.226 C 
ATOM     10  C   LIG A   1      -5.704  -1.360 130.431  0.00  0.00    +0.044 C 
ATOM     11  C   LIG A   1      -4.277  -1.511 129.849  0.00  0.00    +0.018 C 
ATOM     12  C   LIG A   1      -6.340  -2.661 131.123  0.00  0.00    +0.012 C 
ATOM     13  C   LIG A   1      -6.470  -3.837 130.106  0.00  0.00    +0.006 C 
ATOM     14  C   LIG A   1      -7.412  -3.477 128.942  0.00  0.00    +0.010 C 
ATOM     15  C   LIG A   1      -6.960  -2.204 128.202  0.00  0.00    +0.007 C 
ATOM     16  C   LIG A   1      -5.701  -2.520 127.389  0.00  0.00    +0.014 C 
ATOM     17  C   LIG A   1      -6.710  -1.097 129.258  0.00  0.00    +0.111 C 
ATOM     18  O   LIG A   1      -7.964  -0.579 129.807  0.00  0.00    -0.363 OA
ATOM     19  C   LIG A   1      -7.343   0.170 128.776  0.00  0.00    +0.153 C 
ATOM     20  C   LIG A   1      -7.985  -0.050 127.436  0.00  0.00    +0.043 C 
ATOM     21  C   LIG A   1      -8.120  -1.596 127.284  0.00  0.00    +0.033 C 
ATOM     22  C   LIG A   1      -5.744  -2.013 134.980  0.00  0.00    +0.035 C 
ATOM     23  C   LIG A   1      -5.696  -0.695 135.777  0.00  0.00    +0.019 C 
ATOM     24  C   LIG A   1      -4.606  -2.896 135.514  0.00  0.00    +0.019 C 
ENDROOT
BRANCH  21  25
ATOM     25  C   LIG A   1      -8.222  -2.021 125.826  0.00  0.00    -0.006 A 
ATOM     26  C   LIG A   1      -7.904  -1.322 124.671  0.00  0.00    +0.198 A 
ATOM     27  O   LIG A   1      -8.152  -2.038 123.552  0.00  0.00    -0.471 OA
ATOM     28  C   LIG A   1      -8.688  -3.210 123.956  0.00  0.00    +0.195 A 
ATOM     29  C   LIG A   1      -8.756  -3.256 125.330  0.00  0.00    +0.045 A 
ENDBRANCH  21  25
BRANCH   8  30
ATOM     30  O   LIG A   1      -3.646  -1.053 132.814  0.00  0.00    -0.457 OA
BRANCH  30  31
ATOM     31  C   LIG A   1      -2.699  -0.326 133.452  0.00  0.00    +0.304 C 
ATOM     32  C   LIG A   1      -1.606  -1.223 133.949  0.00  0.00    +0.136 C 
ATOM     33  O   LIG A   1      -2.738   0.892 133.635  0.00  0.00    -0.251 OA
ENDBRANCH  30  31
ENDBRANCH   8  30
BRANCH   9  34
ATOM     34  O   LIG A   1      -4.860   0.938 130.988  0.00  0.00    -0.457 OA
BRANCH  34  35
ATOM     35  C   LIG A   1      -5.364   2.170 131.287  0.00  0.00    +0.304 C 
ATOM     36  C   LIG A   1      -4.269   3.183 131.405  0.00  0.00    +0.136 C 
ATOM     37  O   LIG A   1      -6.547   2.426 131.463  0.00  0.00    -0.251 OA
ENDBRANCH  34  35
ENDBRANCH   9  34
TORSDOF 5
ENDMDL
MODEL 7
REMARK VINA RESULT:      -7.6      2.751      7.151
REMARK  Name = NuBBE_1099
REMARK  12 active torsions:
REMARK  status: ('A' for Active; 'I' for Inactive)
REMARK    1  A    between atoms: C_5  and  C_6
REMARK    2  A    between atoms: C_8  and  O_10
REMARK    3  A    between atoms: O_10  and  C_11
REMARK    4  A    between atoms: C_11  and  C_12
REMARK    5  A    between atoms: C_14  and  O_16
REMARK    6  A    between atoms: O_16  and  C_17
REMARK    7  A    between atoms: C_17  and  C_18
REMARK    8  A    between atoms: C_20  and  C_21
REMARK    9  A    between atoms: C_26  and  C_27
REMARK   10  A    between atoms: C_33  and  C_35
REMARK   11  A    between atoms: C_41  and  C_42
REMARK   12  A    between atoms: C_41  and  C_43
REMARK                            x       y       z     vdW  Elec       q    Type
REMARK                         _______ _______ _______ _____ _____    ______ ____
ROOT
ATOM      1  O   LIG A   1      -3.801  -1.906 133.728  0.00  0.00    -0.292 OA
ATOM      2  C   LIG A   1      -4.795  -1.751 133.026  0.00  0.00    +0.162 C 
ATOM      3  C   LIG A   1      -6.115  -1.511 133.675  0.00  0.00    +0.043 C 
ATOM      4  C   LIG A   1      -7.161  -1.051 132.968  0.00  0.00    -0.016 C 
ATOM      5  C   LIG A   1      -7.132  -0.592 131.500  0.00  0.00    -0.003 C 
ATOM      6  C   LIG A   1      -8.082  -1.515 130.706  0.00  0.00    +0.016 C 
ATOM      7  C   LIG A   1      -5.615  -0.573 131.069  0.00  0.00    +0.056 C 
ATOM      8  C   LIG A   1      -5.398  -0.036 129.649  0.00  0.00    +0.222 C 
ATOM      9  C   LIG A   1      -5.866   1.461 129.610  0.00  0.00    +0.226 C 
ATOM     10  C   LIG A   1      -7.364   1.678 130.034  0.00  0.00    +0.044 C 
ATOM     11  C   LIG A   1      -8.223   1.281 128.808  0.00  0.00    +0.018 C 
ATOM     12  C   LIG A   1      -7.656   0.890 131.402  0.00  0.00    +0.012 C 
ATOM     13  C   LIG A   1      -9.123   1.113 131.881  0.00  0.00    +0.006 C 
ATOM     14  C   LIG A   1      -9.399   2.597 132.184  0.00  0.00    +0.010 C 
ATOM     15  C   LIG A   1      -9.112   3.501 130.971  0.00  0.00    +0.007 C 
ATOM     16  C   LIG A   1     -10.198   3.276 129.914  0.00  0.00    +0.014 C 
ATOM     17  C   LIG A   1      -7.698   3.155 130.438  0.00  0.00    +0.111 C 
ATOM     18  O   LIG A   1      -6.648   3.661 131.322  0.00  0.00    -0.363 OA
ATOM     19  C   LIG A   1      -6.965   4.432 130.175  0.00  0.00    +0.153 C 
ATOM     20  C   LIG A   1      -7.843   5.608 130.494  0.00  0.00    +0.043 C 
ATOM     21  C   LIG A   1      -8.996   5.042 131.380  0.00  0.00    +0.033 C 
ATOM     22  C   LIG A   1      -4.794  -1.841 131.496  0.00  0.00    +0.035 C 
ATOM     23  C   LIG A   1      -3.352  -1.798 130.956  0.00  0.00    +0.019 C 
ATOM     24  C   LIG A   1      -5.354  -3.232 131.157  0.00  0.00    +0.019 C 
ENDROOT
BRANCH  21  25
ATOM     25  C   LIG A   1     -10.235   5.925 131.337  0.00  0.00    -0.006 A 
ATOM     26  C   LIG A   1     -11.295   6.014 132.226  0.00  0.00    +0.198 A 
ATOM     27  O   LIG A   1     -12.224   6.912 131.829  0.00  0.00    -0.471 OA
ATOM     28  C   LIG A   1     -11.809   7.395 130.638  0.00  0.00    +0.195 A 
ATOM     29  C   LIG A   1     -10.605   6.829 130.287  0.00  0.00    +0.045 A 
ENDBRANCH  21  25
BRANCH   8  30
ATOM     30  O   LIG A   1      -6.097  -0.927 128.761  0.00  0.00    -0.457 OA
BRANCH  30  31
ATOM     31  C   LIG A   1      -5.394  -1.569 127.799  0.00  0.00    +0.304 C 
ATOM     32  C   LIG A   1      -5.531  -0.850 126.491  0.00  0.00    +0.136 C 
ATOM     33  O   LIG A   1      -4.760  -2.614 127.956  0.00  0.00    -0.251 OA
ENDBRANCH  30  31
ENDBRANCH   8  30
BRANCH   9  34
ATOM     34  O   LIG A   1      -5.597   1.951 128.271  0.00  0.00    -0.457 OA
BRANCH  34  35
ATOM     35  C   LIG A   1      -4.395   2.576 128.104  0.00  0.00    +0.304 C 
ATOM     36  C   LIG A   1      -3.973   2.549 126.669  0.00  0.00    +0.136 C 
ATOM     37  O   LIG A   1      -3.727   3.074 128.999  0.00  0.00    -0.251 OA
ENDBRANCH  34  35
ENDBRANCH   9  34
TORSDOF 5
ENDMDL
MODEL 8
REMARK VINA RESULT:      -7.5      1.901      4.544
REMARK  Name = NuBBE_1099
REMARK  12 active torsions:
REMARK  status: ('A' for Active; 'I' for Inactive)
REMARK    1  A    between atoms: C_5  and  C_6
REMARK    2  A    between atoms: C_8  and  O_10
REMARK    3  A    between atoms: O_10  and  C_11
REMARK    4  A    between atoms: C_11  and  C_12
REMARK    5  A    between atoms: C_14  and  O_16
REMARK    6  A    between atoms: O_16  and  C_17
REMARK    7  A    between atoms: C_17  and  C_18
REMARK    8  A    between atoms: C_20  and  C_21
REMARK    9  A    between atoms: C_26  and  C_27
REMARK   10  A    between atoms: C_33  and  C_35
REMARK   11  A    between atoms: C_41  and  C_42
REMARK   12  A    between atoms: C_41  and  C_43
REMARK                            x       y       z     vdW  Elec       q    Type
REMARK                         _______ _______ _______ _____ _____    ______ ____
ROOT
ATOM      1  O   LIG A   1      -3.337   4.986 132.701  0.00  0.00    -0.292 OA
ATOM      2  C   LIG A   1      -3.811   4.999 131.569  0.00  0.00    +0.162 C 
ATOM      3  C   LIG A   1      -2.977   4.536 130.425  0.00  0.00    +0.043 C 
ATOM      4  C   LIG A   1      -3.530   4.257 129.232  0.00  0.00    -0.016 C 
ATOM      5  C   LIG A   1      -5.035   4.233 128.915  0.00  0.00    -0.003 C 
ATOM      6  C   LIG A   1      -5.299   5.307 127.836  0.00  0.00    +0.016 C 
ATOM      7  C   LIG A   1      -5.785   4.393 130.293  0.00  0.00    +0.056 C 
ATOM      8  C   LIG A   1      -7.309   4.288 130.167  0.00  0.00    +0.222 C 
ATOM      9  C   LIG A   1      -7.665   2.847 129.658  0.00  0.00    +0.226 C 
ATOM     10  C   LIG A   1      -6.994   2.464 128.290  0.00  0.00    +0.044 C 
ATOM     11  C   LIG A   1      -7.830   3.159 127.187  0.00  0.00    +0.018 C 
ATOM     12  C   LIG A   1      -5.429   2.821 128.339  0.00  0.00    +0.012 C 
ATOM     13  C   LIG A   1      -4.715   2.417 127.013  0.00  0.00    +0.006 C 
ATOM     14  C   LIG A   1      -4.791   0.899 126.769  0.00  0.00    +0.010 C 
ATOM     15  C   LIG A   1      -6.244   0.387 126.747  0.00  0.00    +0.007 C 
ATOM     16  C   LIG A   1      -6.920   0.861 125.457  0.00  0.00    +0.014 C 
ATOM     17  C   LIG A   1      -6.961   0.922 128.013  0.00  0.00    +0.111 C 
ATOM     18  O   LIG A   1      -6.518   0.225 129.221  0.00  0.00    -0.363 OA
ATOM     19  C   LIG A   1      -7.734  -0.201 128.630  0.00  0.00    +0.153 C 
ATOM     20  C   LIG A   1      -7.572  -1.451 127.813  0.00  0.00    +0.043 C 
ATOM     21  C   LIG A   1      -6.326  -1.202 126.908  0.00  0.00    +0.033 C 
ATOM     22  C   LIG A   1      -5.212   5.518 131.226  0.00  0.00    +0.035 C 
ATOM     23  C   LIG A   1      -6.053   5.683 132.507  0.00  0.00    +0.019 C 
ATOM     24  C   LIG A   1      -5.007   6.926 130.645  0.00  0.00    +0.019 C 
ENDROOT
BRANCH  21  25
ATOM     25  C   LIG A   1      -6.337  -2.082 125.666  0.00  0.00    -0.006 A 
ATOM     26  C   LIG A   1      -7.321  -2.932 125.186  0.00  0.00    +0.198 A 
ATOM     27  O   LIG A   1      -6.948  -3.562 124.050  0.00  0.00    -0.471 OA
ATOM     28  C   LIG A   1      -5.682  -3.169 123.791  0.00  0.00    +0.195 A 
ATOM     29  C   LIG A   1      -5.257  -2.269 124.741  0.00  0.00    +0.045 A 
ENDBRANCH  21  25
BRANCH   8  30
ATOM     30  O   LIG A   1      -7.727   5.367 129.311  0.00  0.00    -0.457 OA
BRANCH  30  31
ATOM     31  C   LIG A   1      -8.921   5.957 129.546  0.00  0.00    +0.304 C 
ATOM     32  C   LIG A   1      -8.867   6.749 130.818  0.00  0.00    +0.136 C 
ATOM     33  O   LIG A   1      -9.927   5.838 128.843  0.00  0.00    -0.251 OA
ENDBRANCH  30  31
ENDBRANCH   8  30
BRANCH   9  34
ATOM     34  O   LIG A   1      -9.112   2.766 129.603  0.00  0.00    -0.457 OA
BRANCH  34  35
ATOM     35  C   LIG A   1      -9.743   2.670 130.809  0.00  0.00    +0.304 C 
ATOM     36  C   LIG A   1      -9.267   1.472 131.568  0.00  0.00    +0.136 C 
ATOM     37  O   LIG A   1     -10.602   3.436 131.221  0.00  0.00    -0.251 OA
ENDBRANCH  34  35
ENDBRANCH   9  34
TORSDOF 5
ENDMDL
MODEL 9
REMARK VINA RESULT:      -7.5      3.287      5.027
REMARK  Name = NuBBE_1099
REMARK  12 active torsions:
REMARK  status: ('A' for Active; 'I' for Inactive)
REMARK    1  A    between atoms: C_5  and  C_6
REMARK    2  A    between atoms: C_8  and  O_10
REMARK    3  A    between atoms: O_10  and  C_11
REMARK    4  A    between atoms: C_11  and  C_12
REMARK    5  A    between atoms: C_14  and  O_16
REMARK    6  A    between atoms: O_16  and  C_17
REMARK    7  A    between atoms: C_17  and  C_18
REMARK    8  A    between atoms: C_20  and  C_21
REMARK    9  A    between atoms: C_26  and  C_27
REMARK   10  A    between atoms: C_33  and  C_35
REMARK   11  A    between atoms: C_41  and  C_42
REMARK   12  A    between atoms: C_41  and  C_43
REMARK                            x       y       z     vdW  Elec       q    Type
REMARK                         _______ _______ _______ _____ _____    ______ ____
ROOT
ATOM      1  O   LIG A   1      -3.405   3.198 132.243  0.00  0.00    -0.292 OA
ATOM      2  C   LIG A   1      -4.424   2.533 132.085  0.00  0.00    +0.162 C 
ATOM      3  C   LIG A   1      -5.542   3.094 131.278  0.00  0.00    +0.043 C 
ATOM      4  C   LIG A   1      -6.540   2.310 130.835  0.00  0.00    -0.016 C 
ATOM      5  C   LIG A   1      -6.611   0.777 130.959  0.00  0.00    -0.003 C 
ATOM      6  C   LIG A   1      -7.856   0.438 131.808  0.00  0.00    +0.016 C 
ATOM      7  C   LIG A   1      -5.209   0.309 131.511  0.00  0.00    +0.056 C 
ATOM      8  C   LIG A   1      -5.075  -1.216 131.598  0.00  0.00    +0.222 C 
ATOM      9  C   LIG A   1      -5.175  -1.806 130.148  0.00  0.00    +0.226 C 
ATOM     10  C   LIG A   1      -6.503  -1.435 129.394  0.00  0.00    +0.044 C 
ATOM     11  C   LIG A   1      -7.597  -2.379 129.953  0.00  0.00    +0.018 C 
ATOM     12  C   LIG A   1      -6.777   0.141 129.528  0.00  0.00    +0.012 C 
ATOM     13  C   LIG A   1      -8.066   0.559 128.756  0.00  0.00    +0.006 C 
ATOM     14  C   LIG A   1      -7.937   0.282 127.247  0.00  0.00    +0.010 C 
ATOM     15  C   LIG A   1      -7.619  -1.196 126.954  0.00  0.00    +0.007 C 
ATOM     16  C   LIG A   1      -8.865  -2.040 127.237  0.00  0.00    +0.014 C 
ATOM     17  C   LIG A   1      -6.418  -1.613 127.839  0.00  0.00    +0.111 C 
ATOM     18  O   LIG A   1      -5.162  -1.036 127.357  0.00  0.00    -0.363 OA
ATOM     19  C   LIG A   1      -5.447  -2.376 126.993  0.00  0.00    +0.153 C 
ATOM     20  C   LIG A   1      -5.967  -2.495 125.590  0.00  0.00    +0.043 C 
ATOM     21  C   LIG A   1      -7.084  -1.413 125.463  0.00  0.00    +0.033 C 
ATOM     22  C   LIG A   1      -4.661   1.155 132.714  0.00  0.00    +0.035 C 
ATOM     23  C   LIG A   1      -3.340   0.580 133.263  0.00  0.00    +0.019 C 
ATOM     24  C   LIG A   1      -5.576   1.398 133.924  0.00  0.00    +0.019 C 
ENDROOT
BRANCH  21  25
ATOM     25  C   LIG A   1      -8.072  -1.739 124.352  0.00  0.00    -0.006 A 
ATOM     26  C   LIG A   1      -8.965  -0.915 123.685  0.00  0.00    +0.198 A 
ATOM     27  O   LIG A   1      -9.693  -1.584 122.764  0.00  0.00    -0.471 OA
ATOM     28  C   LIG A   1      -9.321  -2.880 122.846  0.00  0.00    +0.195 A 
ATOM     29  C   LIG A   1      -8.337  -3.034 123.797  0.00  0.00    +0.045 A 
ENDBRANCH  21  25
BRANCH   8  30
ATOM     30  O   LIG A   1      -6.083  -1.665 132.522  0.00  0.00    -0.457 OA
BRANCH  30  31
ATOM     31  C   LIG A   1      -5.732  -2.540 133.492  0.00  0.00    +0.304 C 
ATOM     32  C   LIG A   1      -6.574  -3.777 133.403  0.00  0.00    +0.136 C 
ATOM     33  O   LIG A   1      -4.873  -2.343 134.354  0.00  0.00    -0.251 OA
ENDBRANCH  30  31
ENDBRANCH   8  30
BRANCH   9  34
ATOM     34  O   LIG A   1      -4.990  -3.240 130.264  0.00  0.00    -0.457 OA
BRANCH  34  35
ATOM     35  C   LIG A   1      -3.705  -3.653 130.461  0.00  0.00    +0.304 C 
ATOM     36  C   LIG A   1      -2.933  -3.634 129.179  0.00  0.00    +0.136 C 
ATOM     37  O   LIG A   1      -3.235  -4.017 131.530  0.00  0.00    -0.251 OA
ENDBRANCH  34  35
ENDBRANCH   9  34
TORSDOF 5
ENDMDL
