MODEL 1
REMARK VINA RESULT:     -10.7      0.000      0.000
REMARK  Name = NuBBE_496
REMARK  8 active torsions:
REMARK  status: ('A' for Active; 'I' for Inactive)
REMARK    1  A    between atoms: C_1  and  C_2
REMARK    2  A    between atoms: C_3  and  C_4
REMARK    3  A    between atoms: C_6  and  C_8
REMARK    4  A    between atoms: C_8  and  C_9
REMARK    5  A    between atoms: C_25  and  C_27
REMARK    6  A    between atoms: C_29  and  C_32
REMARK    7  A    between atoms: C_33  and  O_35
REMARK    8  A    between atoms: C_39  and  O_40
REMARK                            x       y       z     vdW  Elec       q    Type
REMARK                         _______ _______ _______ _____ _____    ______ ____
ROOT
ATOM      1  C   LIG A   1      -3.486   5.385 129.127  0.00  0.00    +0.041 C 
ATOM      2  C   LIG A   1      -4.948   5.021 129.181  0.00  0.00    -0.045 C 
ATOM      3  C   LIG A   1      -5.739   5.200 130.267  0.00  0.00    -0.065 C 
ATOM      4  C   LIG A   1      -5.270   5.664 131.616  0.00  0.00    +0.039 C 
ATOM      5  C   LIG A   1      -7.201   4.873 130.076  0.00  0.00    +0.058 C 
ATOM      6  C   LIG A   1      -8.258   4.937 131.187  0.00  0.00    +0.086 C 
ATOM      7  N   LIG A   1      -9.335   4.188 130.569  0.00  0.00    -0.311 N 
ATOM      8  C   LIG A   1      -7.376   3.461 129.465  0.00  0.00    +0.122 C 
ATOM      9  C   LIG A   1      -6.727   3.453 128.064  0.00  0.00    +0.067 C 
ATOM     10  C   LIG A   1      -7.636   3.450 126.849  0.00  0.00    -0.023 C 
ATOM     11  C   LIG A   1      -8.110   2.289 126.369  0.00  0.00    -0.030 C 
ATOM     12  C   LIG A   1      -8.631   2.051 124.992  0.00  0.00    +0.034 C 
ATOM     13  C   LIG A   1      -7.567   1.398 124.075  0.00  0.00    +0.013 C 
ATOM     14  C   LIG A   1      -6.410   2.341 123.731  0.00  0.00    +0.012 C 
ATOM     15  C   LIG A   1      -7.119  -0.015 124.430  0.00  0.00    -0.017 C 
ATOM     16  C   LIG A   1      -6.348  -0.569 125.395  0.00  0.00    -0.009 C 
ATOM     17  C   LIG A   1      -5.664   0.149 126.541  0.00  0.00    +0.187 C 
ATOM     18  O   LIG A   1      -5.066   1.207 126.347  0.00  0.00    -0.290 OA
ATOM     19  C   LIG A   1      -6.028  -2.044 125.330  0.00  0.00    +0.047 C 
ATOM     20  C   LIG A   1      -5.552   4.485 127.883  0.00  0.00    +0.148 C 
ATOM     21  C   LIG A   1      -6.737   2.302 130.291  0.00  0.00    +0.150 C 
ATOM     22  C   LIG A   1      -6.819   0.878 129.722  0.00  0.00    +0.078 C 
ATOM     23  C   LIG A   1      -5.486   0.369 129.156  0.00  0.00    +0.047 C 
ATOM     24  C   LIG A   1      -5.646  -0.556 127.930  0.00  0.00    +0.185 C 
ATOM     25  O   LIG A   1      -6.208   2.481 131.391  0.00  0.00    -0.296 OA
ATOM     26  C   LIG A   1      -8.885   3.294 129.613  0.00  0.00    +0.228 C 
ATOM     27  O   LIG A   1      -9.588   2.432 129.112  0.00  0.00    -0.275 OA
ATOM     28  H   LIG A   1     -10.263   4.092 130.968  0.00  0.00    +0.149 HD
ENDROOT
BRANCH  20  29
ATOM     29  O   LIG A   1      -4.501   3.901 127.105  0.00  0.00    -0.387 OA
ATOM     30  H   LIG A   1      -4.427   4.355 126.241  0.00  0.00    +0.210 HD
ENDBRANCH  20  29
BRANCH  24  31
ATOM     31  O   LIG A   1      -4.533  -1.459 127.926  0.00  0.00    -0.384 OA
ATOM     32  H   LIG A   1      -4.188  -1.478 127.013  0.00  0.00    +0.210 HD
ENDBRANCH  24  31
BRANCH   6  33
ATOM     33  C   LIG A   1      -8.664   6.380 131.527  0.00  0.00    +0.060 C 
BRANCH  33  34
ATOM     34  C   LIG A   1     -10.105   6.681 131.253  0.00  0.00    -0.021 A 
ATOM     35  C   LIG A   1     -11.170   6.398 132.084  0.00  0.00    +0.087 A 
ATOM     36  N   LIG A   1     -12.314   6.859 131.490  0.00  0.00    -0.360 N 
ATOM     37  C   LIG A   1     -12.020   7.440 130.279  0.00  0.00    +0.047 A 
ATOM     38  C   LIG A   1     -12.866   8.044 129.340  0.00  0.00    +0.026 A 
ATOM     39  C   LIG A   1     -12.281   8.561 128.180  0.00  0.00    +0.002 A 
ATOM     40  C   LIG A   1     -10.907   8.480 127.972  0.00  0.00    +0.001 A 
ATOM     41  C   LIG A   1     -10.076   7.878 128.924  0.00  0.00    +0.010 A 
ATOM     42  C   LIG A   1     -10.640   7.344 130.101  0.00  0.00    +0.003 A 
ATOM     43  H   LIG A   1     -13.242   6.794 131.883  0.00  0.00    +0.165 HD
ENDBRANCH  33  34
ENDBRANCH   6  33
TORSDOF 4
ENDMDL
MODEL 2
REMARK VINA RESULT:     -10.4      3.081      7.477
REMARK  Name = NuBBE_496
REMARK  8 active torsions:
REMARK  status: ('A' for Active; 'I' for Inactive)
REMARK    1  A    between atoms: C_1  and  C_2
REMARK    2  A    between atoms: C_3  and  C_4
REMARK    3  A    between atoms: C_6  and  C_8
REMARK    4  A    between atoms: C_8  and  C_9
REMARK    5  A    between atoms: C_25  and  C_27
REMARK    6  A    between atoms: C_29  and  C_32
REMARK    7  A    between atoms: C_33  and  O_35
REMARK    8  A    between atoms: C_39  and  O_40
REMARK                            x       y       z     vdW  Elec       q    Type
REMARK                         _______ _______ _______ _____ _____    ______ ____
ROOT
ATOM      1  C   LIG A   1      -3.946   6.055 127.376  0.00  0.00    +0.041 C 
ATOM      2  C   LIG A   1      -4.891   4.881 127.365  0.00  0.00    -0.045 C 
ATOM      3  C   LIG A   1      -5.709   4.569 126.330  0.00  0.00    -0.065 C 
ATOM      4  C   LIG A   1      -5.901   5.400 125.095  0.00  0.00    +0.039 C 
ATOM      5  C   LIG A   1      -6.495   3.289 126.476  0.00  0.00    +0.058 C 
ATOM      6  C   LIG A   1      -7.528   2.781 125.460  0.00  0.00    +0.086 C 
ATOM      7  N   LIG A   1      -8.208   1.778 126.256  0.00  0.00    -0.311 N 
ATOM      8  C   LIG A   1      -7.244   3.251 127.831  0.00  0.00    +0.122 C 
ATOM      9  C   LIG A   1      -6.198   3.269 128.967  0.00  0.00    +0.067 C 
ATOM     10  C   LIG A   1      -5.949   1.985 129.738  0.00  0.00    -0.023 C 
ATOM     11  C   LIG A   1      -6.725   1.673 130.788  0.00  0.00    -0.030 C 
ATOM     12  C   LIG A   1      -6.382   0.728 131.888  0.00  0.00    +0.034 C 
ATOM     13  C   LIG A   1      -5.869   1.467 133.149  0.00  0.00    +0.013 C 
ATOM     14  C   LIG A   1      -4.493   2.110 132.950  0.00  0.00    +0.012 C 
ATOM     15  C   LIG A   1      -6.862   2.364 133.879  0.00  0.00    -0.017 C 
ATOM     16  C   LIG A   1      -7.432   3.568 133.639  0.00  0.00    -0.009 C 
ATOM     17  C   LIG A   1      -7.237   4.443 132.418  0.00  0.00    +0.187 C 
ATOM     18  O   LIG A   1      -6.112   4.623 131.951  0.00  0.00    -0.290 OA
ATOM     19  C   LIG A   1      -8.299   4.200 134.703  0.00  0.00    +0.047 C 
ATOM     20  C   LIG A   1      -4.839   3.969 128.592  0.00  0.00    +0.148 C 
ATOM     21  C   LIG A   1      -8.227   4.438 128.074  0.00  0.00    +0.150 C 
ATOM     22  C   LIG A   1      -8.965   4.503 129.419  0.00  0.00    +0.078 C 
ATOM     23  C   LIG A   1      -8.420   5.583 130.364  0.00  0.00    +0.047 C 
ATOM     24  C   LIG A   1      -8.483   5.191 131.855  0.00  0.00    +0.185 C 
ATOM     25  O   LIG A   1      -8.459   5.296 127.218  0.00  0.00    -0.296 OA
ATOM     26  C   LIG A   1      -8.121   2.022 127.615  0.00  0.00    +0.228 C 
ATOM     27  O   LIG A   1      -8.777   1.423 128.452  0.00  0.00    -0.275 OA
ATOM     28  H   LIG A   1      -8.911   1.143 125.891  0.00  0.00    +0.149 HD
ENDROOT
BRANCH  20  29
ATOM     29  O   LIG A   1      -4.358   4.736 129.702  0.00  0.00    -0.387 OA
ATOM     30  H   LIG A   1      -4.072   4.141 130.425  0.00  0.00    +0.210 HD
ENDBRANCH  20  29
BRANCH  24  31
ATOM     31  O   LIG A   1      -8.620   6.400 132.612  0.00  0.00    -0.384 OA
ATOM     32  H   LIG A   1      -8.236   6.229 133.492  0.00  0.00    +0.210 HD
ENDBRANCH  24  31
BRANCH   6  33
ATOM     33  C   LIG A   1      -6.871   2.191 124.203  0.00  0.00    +0.060 C 
BRANCH  33  34
ATOM     34  C   LIG A   1      -7.485   2.667 122.922  0.00  0.00    -0.021 A 
ATOM     35  C   LIG A   1      -8.809   2.537 122.555  0.00  0.00    +0.087 A 
ATOM     36  N   LIG A   1      -8.976   3.128 121.331  0.00  0.00    -0.360 N 
ATOM     37  C   LIG A   1      -7.782   3.645 120.885  0.00  0.00    +0.047 A 
ATOM     38  C   LIG A   1      -7.484   4.333 119.704  0.00  0.00    +0.026 A 
ATOM     39  C   LIG A   1      -6.163   4.750 119.513  0.00  0.00    +0.002 A 
ATOM     40  C   LIG A   1      -5.184   4.491 120.468  0.00  0.00    +0.001 A 
ATOM     41  C   LIG A   1      -5.502   3.806 121.647  0.00  0.00    +0.010 A 
ATOM     42  C   LIG A   1      -6.826   3.370 121.863  0.00  0.00    +0.003 A 
ATOM     43  H   LIG A   1      -9.849   3.188 120.827  0.00  0.00    +0.165 HD
ENDBRANCH  33  34
ENDBRANCH   6  33
TORSDOF 4
ENDMDL
MODEL 3
REMARK VINA RESULT:     -10.3      2.557      4.190
REMARK  Name = NuBBE_496
REMARK  8 active torsions:
REMARK  status: ('A' for Active; 'I' for Inactive)
REMARK    1  A    between atoms: C_1  and  C_2
REMARK    2  A    between atoms: C_3  and  C_4
REMARK    3  A    between atoms: C_6  and  C_8
REMARK    4  A    between atoms: C_8  and  C_9
REMARK    5  A    between atoms: C_25  and  C_27
REMARK    6  A    between atoms: C_29  and  C_32
REMARK    7  A    between atoms: C_33  and  O_35
REMARK    8  A    between atoms: C_39  and  O_40
REMARK                            x       y       z     vdW  Elec       q    Type
REMARK                         _______ _______ _______ _____ _____    ______ ____
ROOT
ATOM      1  C   LIG A   1      -5.920   3.959 127.996  0.00  0.00    +0.041 C 
ATOM      2  C   LIG A   1      -6.973   3.249 128.807  0.00  0.00    -0.045 C 
ATOM      3  C   LIG A   1      -7.969   3.875 129.480  0.00  0.00    -0.065 C 
ATOM      4  C   LIG A   1      -8.112   5.362 129.633  0.00  0.00    +0.039 C 
ATOM      5  C   LIG A   1      -8.986   2.974 130.139  0.00  0.00    +0.058 C 
ATOM      6  C   LIG A   1     -10.153   3.467 131.006  0.00  0.00    +0.086 C 
ATOM      7  N   LIG A   1     -10.540   2.229 131.653  0.00  0.00    -0.311 N 
ATOM      8  C   LIG A   1      -8.290   1.901 131.012  0.00  0.00    +0.122 C 
ATOM      9  C   LIG A   1      -7.426   1.009 130.093  0.00  0.00    +0.067 C 
ATOM     10  C   LIG A   1      -7.912  -0.397 129.790  0.00  0.00    -0.023 C 
ATOM     11  C   LIG A   1      -7.621  -1.402 130.631  0.00  0.00    -0.030 C 
ATOM     12  C   LIG A   1      -7.627  -2.856 130.303  0.00  0.00    +0.034 C 
ATOM     13  C   LIG A   1      -6.205  -3.389 129.999  0.00  0.00    +0.013 C 
ATOM     14  C   LIG A   1      -5.630  -2.851 128.684  0.00  0.00    +0.012 C 
ATOM     15  C   LIG A   1      -5.204  -3.387 131.149  0.00  0.00    -0.017 C 
ATOM     16  C   LIG A   1      -4.500  -2.442 131.815  0.00  0.00    -0.009 C 
ATOM     17  C   LIG A   1      -4.545  -0.945 131.591  0.00  0.00    +0.187 C 
ATOM     18  O   LIG A   1      -4.529  -0.483 130.449  0.00  0.00    -0.290 OA
ATOM     19  C   LIG A   1      -3.481  -2.869 132.846  0.00  0.00    +0.047 C 
ATOM     20  C   LIG A   1      -6.918   1.721 128.784  0.00  0.00    +0.148 C 
ATOM     21  C   LIG A   1      -7.362   2.464 132.134  0.00  0.00    +0.150 C 
ATOM     22  C   LIG A   1      -6.592   1.462 133.006  0.00  0.00    +0.078 C 
ATOM     23  C   LIG A   1      -5.095   1.388 132.674  0.00  0.00    +0.047 C 
ATOM     24  C   LIG A   1      -4.491  -0.022 132.845  0.00  0.00    +0.185 C 
ATOM     25  O   LIG A   1      -7.257   3.671 132.366  0.00  0.00    -0.296 OA
ATOM     26  C   LIG A   1      -9.502   1.316 131.729  0.00  0.00    +0.228 C 
ATOM     27  O   LIG A   1      -9.547   0.298 132.400  0.00  0.00    -0.275 OA
ATOM     28  H   LIG A   1     -11.358   2.128 132.245  0.00  0.00    +0.149 HD
ENDROOT
BRANCH  20  29
ATOM     29  O   LIG A   1      -5.572   1.324 128.500  0.00  0.00    -0.387 OA
ATOM     30  H   LIG A   1      -5.565   0.472 128.016  0.00  0.00    +0.210 HD
ENDBRANCH  20  29
BRANCH  24  31
ATOM     31  O   LIG A   1      -3.108   0.142 133.183  0.00  0.00    -0.384 OA
ATOM     32  H   LIG A   1      -3.062   0.227 134.155  0.00  0.00    +0.210 HD
ENDBRANCH  24  31
BRANCH   6  33
ATOM     33  C   LIG A   1     -11.289   4.074 130.167  0.00  0.00    +0.060 C 
BRANCH  33  34
ATOM     34  C   LIG A   1     -11.630   5.482 130.546  0.00  0.00    -0.021 A 
ATOM     35  C   LIG A   1     -11.442   6.063 131.784  0.00  0.00    +0.087 A 
ATOM     36  N   LIG A   1     -11.850   7.368 131.713  0.00  0.00    -0.360 N 
ATOM     37  C   LIG A   1     -12.305   7.657 130.448  0.00  0.00    +0.047 A 
ATOM     38  C   LIG A   1     -12.806   8.853 129.923  0.00  0.00    +0.026 A 
ATOM     39  C   LIG A   1     -13.199   8.857 128.581  0.00  0.00    +0.002 A 
ATOM     40  C   LIG A   1     -13.089   7.711 127.798  0.00  0.00    +0.001 A 
ATOM     41  C   LIG A   1     -12.580   6.525 128.339  0.00  0.00    +0.010 A 
ATOM     42  C   LIG A   1     -12.181   6.492 129.692  0.00  0.00    +0.003 A 
ATOM     43  H   LIG A   1     -11.814   8.032 132.474  0.00  0.00    +0.165 HD
ENDBRANCH  33  34
ENDBRANCH   6  33
TORSDOF 4
ENDMDL
MODEL 4
REMARK VINA RESULT:      -9.9      3.246      7.701
REMARK  Name = NuBBE_496
REMARK  8 active torsions:
REMARK  status: ('A' for Active; 'I' for Inactive)
REMARK    1  A    between atoms: C_1  and  C_2
REMARK    2  A    between atoms: C_3  and  C_4
REMARK    3  A    between atoms: C_6  and  C_8
REMARK    4  A    between atoms: C_8  and  C_9
REMARK    5  A    between atoms: C_25  and  C_27
REMARK    6  A    between atoms: C_29  and  C_32
REMARK    7  A    between atoms: C_33  and  O_35
REMARK    8  A    between atoms: C_39  and  O_40
REMARK                            x       y       z     vdW  Elec       q    Type
REMARK                         _______ _______ _______ _____ _____    ______ ____
ROOT
ATOM      1  C   LIG A   1      -2.832   3.436 126.407  0.00  0.00    +0.041 C 
ATOM      2  C   LIG A   1      -4.228   2.867 126.453  0.00  0.00    -0.045 C 
ATOM      3  C   LIG A   1      -5.181   3.109 125.520  0.00  0.00    -0.065 C 
ATOM      4  C   LIG A   1      -5.050   4.069 124.373  0.00  0.00    +0.039 C 
ATOM      5  C   LIG A   1      -6.477   2.353 125.693  0.00  0.00    +0.058 C 
ATOM      6  C   LIG A   1      -7.711   2.526 124.796  0.00  0.00    +0.086 C 
ATOM      7  N   LIG A   1      -8.722   1.884 125.614  0.00  0.00    -0.311 N 
ATOM      8  C   LIG A   1      -7.026   2.520 127.131  0.00  0.00    +0.122 C 
ATOM      9  C   LIG A   1      -6.010   1.902 128.116  0.00  0.00    +0.067 C 
ATOM     10  C   LIG A   1      -6.354   0.575 128.768  0.00  0.00    -0.023 C 
ATOM     11  C   LIG A   1      -7.088   0.552 129.892  0.00  0.00    -0.030 C 
ATOM     12  C   LIG A   1      -7.155  -0.564 130.878  0.00  0.00    +0.034 C 
ATOM     13  C   LIG A   1      -6.238  -0.314 132.101  0.00  0.00    +0.013 C 
ATOM     14  C   LIG A   1      -4.746  -0.390 131.758  0.00  0.00    +0.012 C 
ATOM     15  C   LIG A   1      -6.597   0.856 133.009  0.00  0.00    -0.017 C 
ATOM     16  C   LIG A   1      -6.524   2.205 132.921  0.00  0.00    -0.009 C 
ATOM     17  C   LIG A   1      -6.034   3.016 131.738  0.00  0.00    +0.187 C 
ATOM     18  O   LIG A   1      -5.011   2.689 131.137  0.00  0.00    -0.290 OA
ATOM     19  C   LIG A   1      -6.874   3.045 134.126  0.00  0.00    +0.047 C 
ATOM     20  C   LIG A   1      -4.521   1.905 127.604  0.00  0.00    +0.148 C 
ATOM     21  C   LIG A   1      -7.278   3.995 127.574  0.00  0.00    +0.150 C 
ATOM     22  C   LIG A   1      -7.768   4.247 129.007  0.00  0.00    +0.078 C 
ATOM     23  C   LIG A   1      -6.684   4.815 129.933  0.00  0.00    +0.047 C 
ATOM     24  C   LIG A   1      -6.799   4.329 131.394  0.00  0.00    +0.185 C 
ATOM     25  O   LIG A   1      -7.134   4.953 126.809  0.00  0.00    -0.296 OA
ATOM     26  C   LIG A   1      -8.407   1.896 126.961  0.00  0.00    +0.228 C 
ATOM     27  O   LIG A   1      -9.196   1.590 127.841  0.00  0.00    -0.275 OA
ATOM     28  H   LIG A   1      -9.674   1.711 125.309  0.00  0.00    +0.149 HD
ENDROOT
BRANCH  20  29
ATOM     29  O   LIG A   1      -3.631   2.213 128.684  0.00  0.00    -0.387 OA
ATOM     30  H   LIG A   1      -4.142   2.401 129.499  0.00  0.00    +0.210 HD
ENDBRANCH  20  29
BRANCH  24  31
ATOM     31  O   LIG A   1      -6.261   5.358 132.233  0.00  0.00    -0.384 OA
ATOM     32  H   LIG A   1      -7.008   5.925 132.501  0.00  0.00    +0.210 HD
ENDBRANCH  24  31
BRANCH   6  33
ATOM     33  C   LIG A   1      -7.540   1.845 123.428  0.00  0.00    +0.060 C 
BRANCH  33  34
ATOM     34  C   LIG A   1      -8.046   0.436 123.390  0.00  0.00    -0.021 A 
ATOM     35  C   LIG A   1      -9.268   0.020 122.902  0.00  0.00    +0.087 A 
ATOM     36  N   LIG A   1      -9.336  -1.343 123.015  0.00  0.00    -0.360 N 
ATOM     37  C   LIG A   1      -8.178  -1.832 123.570  0.00  0.00    +0.047 A 
ATOM     38  C   LIG A   1      -7.806  -3.150 123.863  0.00  0.00    +0.026 A 
ATOM     39  C   LIG A   1      -6.546  -3.356 124.433  0.00  0.00    +0.002 A 
ATOM     40  C   LIG A   1      -5.693  -2.287 124.694  0.00  0.00    +0.001 A 
ATOM     41  C   LIG A   1      -6.079  -0.976 124.390  0.00  0.00    +0.010 A 
ATOM     42  C   LIG A   1      -7.347  -0.740 123.818  0.00  0.00    +0.003 A 
ATOM     43  H   LIG A   1     -10.117  -1.913 122.724  0.00  0.00    +0.165 HD
ENDBRANCH  33  34
ENDBRANCH   6  33
TORSDOF 4
ENDMDL
MODEL 5
REMARK VINA RESULT:      -9.9      2.495      3.623
REMARK  Name = NuBBE_496
REMARK  8 active torsions:
REMARK  status: ('A' for Active; 'I' for Inactive)
REMARK    1  A    between atoms: C_1  and  C_2
REMARK    2  A    between atoms: C_3  and  C_4
REMARK    3  A    between atoms: C_6  and  C_8
REMARK    4  A    between atoms: C_8  and  C_9
REMARK    5  A    between atoms: C_25  and  C_27
REMARK    6  A    between atoms: C_29  and  C_32
REMARK    7  A    between atoms: C_33  and  O_35
REMARK    8  A    between atoms: C_39  and  O_40
REMARK                            x       y       z     vdW  Elec       q    Type
REMARK                         _______ _______ _______ _____ _____    ______ ____
ROOT
ATOM      1  C   LIG A   1      -3.135   3.747 128.469  0.00  0.00    +0.041 C 
ATOM      2  C   LIG A   1      -4.415   3.492 129.223  0.00  0.00    -0.045 C 
ATOM      3  C   LIG A   1      -4.985   4.375 130.079  0.00  0.00    -0.065 C 
ATOM      4  C   LIG A   1      -4.381   5.680 130.510  0.00  0.00    +0.039 C 
ATOM      5  C   LIG A   1      -6.325   3.971 130.645  0.00  0.00    +0.058 C 
ATOM      6  C   LIG A   1      -7.113   4.785 131.681  0.00  0.00    +0.086 C 
ATOM      7  N   LIG A   1      -8.071   3.790 132.123  0.00  0.00    -0.311 N 
ATOM      8  C   LIG A   1      -6.263   2.546 131.248  0.00  0.00    +0.122 C 
ATOM      9  C   LIG A   1      -5.934   1.551 130.114  0.00  0.00    +0.067 C 
ATOM     10  C   LIG A   1      -7.043   0.649 129.603  0.00  0.00    -0.023 C 
ATOM     11  C   LIG A   1      -7.299  -0.515 130.220  0.00  0.00    -0.030 C 
ATOM     12  C   LIG A   1      -8.015  -1.685 129.635  0.00  0.00    +0.034 C 
ATOM     13  C   LIG A   1      -7.034  -2.768 129.123  0.00  0.00    +0.013 C 
ATOM     14  C   LIG A   1      -6.246  -2.328 127.885  0.00  0.00    +0.012 C 
ATOM     15  C   LIG A   1      -6.182  -3.482 130.167  0.00  0.00    -0.017 C 
ATOM     16  C   LIG A   1      -5.116  -3.151 130.932  0.00  0.00    -0.009 C 
ATOM     17  C   LIG A   1      -4.414  -1.810 130.988  0.00  0.00    +0.187 C 
ATOM     18  O   LIG A   1      -4.153  -1.197 129.952  0.00  0.00    -0.290 OA
ATOM     19  C   LIG A   1      -4.457  -4.213 131.780  0.00  0.00    +0.047 C 
ATOM     20  C   LIG A   1      -5.119   2.169 128.918  0.00  0.00    +0.148 C 
ATOM     21  C   LIG A   1      -5.197   2.352 132.372  0.00  0.00    +0.150 C 
ATOM     22  C   LIG A   1      -5.035   0.952 132.981  0.00  0.00    +0.078 C 
ATOM     23  C   LIG A   1      -3.762   0.228 132.518  0.00  0.00    +0.047 C 
ATOM     24  C   LIG A   1      -3.934  -1.300 132.380  0.00  0.00    +0.185 C 
ATOM     25  O   LIG A   1      -4.516   3.282 132.810  0.00  0.00    -0.296 OA
ATOM     26  C   LIG A   1      -7.618   2.494 131.946  0.00  0.00    +0.228 C 
ATOM     27  O   LIG A   1      -8.170   1.515 132.422  0.00  0.00    -0.275 OA
ATOM     28  H   LIG A   1      -8.842   3.984 132.753  0.00  0.00    +0.149 HD
ENDROOT
BRANCH  20  29
ATOM     29  O   LIG A   1      -4.137   1.234 128.456  0.00  0.00    -0.387 OA
ATOM     30  H   LIG A   1      -3.791   1.511 127.583  0.00  0.00    +0.210 HD
ENDBRANCH  20  29
BRANCH  24  31
ATOM     31  O   LIG A   1      -2.656  -1.899 132.626  0.00  0.00    -0.384 OA
ATOM     32  H   LIG A   1      -2.780  -2.865 132.571  0.00  0.00    +0.210 HD
ENDBRANCH  24  31
BRANCH   6  33
ATOM     33  C   LIG A   1      -7.789   6.020 131.064  0.00  0.00    +0.060 C 
BRANCH  33  34
ATOM     34  C   LIG A   1      -9.229   6.172 131.446  0.00  0.00    -0.021 A 
ATOM     35  C   LIG A   1      -9.815   5.724 132.613  0.00  0.00    +0.087 A 
ATOM     36  N   LIG A   1     -11.136   6.087 132.597  0.00  0.00    -0.360 N 
ATOM     37  C   LIG A   1     -11.429   6.767 131.439  0.00  0.00    +0.047 A 
ATOM     38  C   LIG A   1     -12.636   7.325 131.003  0.00  0.00    +0.026 A 
ATOM     39  C   LIG A   1     -12.641   7.970 129.762  0.00  0.00    +0.002 A 
ATOM     40  C   LIG A   1     -11.483   8.056 128.994  0.00  0.00    +0.001 A 
ATOM     41  C   LIG A   1     -10.283   7.497 129.448  0.00  0.00    +0.010 A 
ATOM     42  C   LIG A   1     -10.252   6.836 130.694  0.00  0.00    +0.003 A 
ATOM     43  H   LIG A   1     -11.801   5.896 133.332  0.00  0.00    +0.165 HD
ENDBRANCH  33  34
ENDBRANCH   6  33
TORSDOF 4
ENDMDL
MODEL 6
REMARK VINA RESULT:      -9.9      3.696      8.659
REMARK  Name = NuBBE_496
REMARK  8 active torsions:
REMARK  status: ('A' for Active; 'I' for Inactive)
REMARK    1  A    between atoms: C_1  and  C_2
REMARK    2  A    between atoms: C_3  and  C_4
REMARK    3  A    between atoms: C_6  and  C_8
REMARK    4  A    between atoms: C_8  and  C_9
REMARK    5  A    between atoms: C_25  and  C_27
REMARK    6  A    between atoms: C_29  and  C_32
REMARK    7  A    between atoms: C_33  and  O_35
REMARK    8  A    between atoms: C_39  and  O_40
REMARK                            x       y       z     vdW  Elec       q    Type
REMARK                         _______ _______ _______ _____ _____    ______ ____
ROOT
ATOM      1  C   LIG A   1      -6.822  -2.871 133.070  0.00  0.00    +0.041 C 
ATOM      2  C   LIG A   1      -7.143  -2.081 131.827  0.00  0.00    -0.045 C 
ATOM      3  C   LIG A   1      -6.907  -2.515 130.565  0.00  0.00    -0.065 C 
ATOM      4  C   LIG A   1      -6.181  -3.778 130.203  0.00  0.00    +0.039 C 
ATOM      5  C   LIG A   1      -7.406  -1.619 129.457  0.00  0.00    +0.058 C 
ATOM      6  C   LIG A   1      -7.187  -1.880 127.961  0.00  0.00    +0.086 C 
ATOM      7  N   LIG A   1      -7.516  -0.578 127.415  0.00  0.00    -0.311 N 
ATOM      8  C   LIG A   1      -6.921  -0.162 129.664  0.00  0.00    +0.122 C 
ATOM      9  C   LIG A   1      -7.526   0.370 130.981  0.00  0.00    +0.067 C 
ATOM     10  C   LIG A   1      -8.655   1.381 130.898  0.00  0.00    -0.023 C 
ATOM     11  C   LIG A   1      -8.377   2.689 130.782  0.00  0.00    -0.030 C 
ATOM     12  C   LIG A   1      -9.292   3.819 131.114  0.00  0.00    +0.034 C 
ATOM     13  C   LIG A   1      -8.996   4.412 132.514  0.00  0.00    +0.013 C 
ATOM     14  C   LIG A   1      -9.365   3.462 133.658  0.00  0.00    +0.012 C 
ATOM     15  C   LIG A   1      -7.651   5.104 132.703  0.00  0.00    -0.017 C 
ATOM     16  C   LIG A   1      -6.364   4.698 132.815  0.00  0.00    -0.009 C 
ATOM     17  C   LIG A   1      -5.846   3.277 132.742  0.00  0.00    +0.187 C 
ATOM     18  O   LIG A   1      -6.427   2.368 133.337  0.00  0.00    -0.290 OA
ATOM     19  C   LIG A   1      -5.294   5.716 133.132  0.00  0.00    +0.047 C 
ATOM     20  C   LIG A   1      -7.845  -0.741 132.049  0.00  0.00    +0.148 C 
ATOM     21  C   LIG A   1      -5.373   0.010 129.749  0.00  0.00    +0.150 C 
ATOM     22  C   LIG A   1      -4.815   1.417 130.010  0.00  0.00    +0.078 C 
ATOM     23  C   LIG A   1      -4.285   1.609 131.438  0.00  0.00    +0.047 C 
ATOM     24  C   LIG A   1      -4.502   3.033 131.993  0.00  0.00    +0.185 C 
ATOM     25  O   LIG A   1      -4.588  -0.926 129.578  0.00  0.00    -0.296 OA
ATOM     26  C   LIG A   1      -7.335   0.446 128.328  0.00  0.00    +0.228 C 
ATOM     27  O   LIG A   1      -7.362   1.629 128.029  0.00  0.00    -0.275 OA
ATOM     28  H   LIG A   1      -7.581  -0.377 126.422  0.00  0.00    +0.149 HD
ENDROOT
BRANCH  20  29
ATOM     29  O   LIG A   1      -7.512  -0.272 133.361  0.00  0.00    -0.387 OA
ATOM     30  H   LIG A   1      -8.329  -0.094 133.873  0.00  0.00    +0.210 HD
ENDBRANCH  20  29
BRANCH  24  31
ATOM     31  O   LIG A   1      -3.449   3.293 132.930  0.00  0.00    -0.384 OA
ATOM     32  H   LIG A   1      -3.192   4.227 132.816  0.00  0.00    +0.210 HD
ENDBRANCH  24  31
BRANCH   6  33
ATOM     33  C   LIG A   1      -8.100  -2.993 127.421  0.00  0.00    +0.060 C 
BRANCH  33  34
ATOM     34  C   LIG A   1      -8.351  -2.904 125.947  0.00  0.00    -0.021 A 
ATOM     35  C   LIG A   1      -9.584  -2.912 125.327  0.00  0.00    +0.087 A 
ATOM     36  N   LIG A   1      -9.388  -2.781 123.978  0.00  0.00    -0.360 N 
ATOM     37  C   LIG A   1      -8.044  -2.686 123.699  0.00  0.00    +0.047 A 
ATOM     38  C   LIG A   1      -7.387  -2.535 122.473  0.00  0.00    +0.026 A 
ATOM     39  C   LIG A   1      -5.991  -2.465 122.490  0.00  0.00    +0.002 A 
ATOM     40  C   LIG A   1      -5.284  -2.538 123.687  0.00  0.00    +0.001 A 
ATOM     41  C   LIG A   1      -5.958  -2.683 124.905  0.00  0.00    +0.010 A 
ATOM     42  C   LIG A   1      -7.366  -2.762 124.916  0.00  0.00    +0.003 A 
ATOM     43  H   LIG A   1     -10.120  -2.746 123.283  0.00  0.00    +0.165 HD
ENDBRANCH  33  34
ENDBRANCH   6  33
TORSDOF 4
ENDMDL
MODEL 7
REMARK VINA RESULT:      -9.7      3.094      7.600
REMARK  Name = NuBBE_496
REMARK  8 active torsions:
REMARK  status: ('A' for Active; 'I' for Inactive)
REMARK    1  A    between atoms: C_1  and  C_2
REMARK    2  A    between atoms: C_3  and  C_4
REMARK    3  A    between atoms: C_6  and  C_8
REMARK    4  A    between atoms: C_8  and  C_9
REMARK    5  A    between atoms: C_25  and  C_27
REMARK    6  A    between atoms: C_29  and  C_32
REMARK    7  A    between atoms: C_33  and  O_35
REMARK    8  A    between atoms: C_39  and  O_40
REMARK                            x       y       z     vdW  Elec       q    Type
REMARK                         _______ _______ _______ _____ _____    ______ ____
ROOT
ATOM      1  C   LIG A   1      -6.392  -1.671 127.110  0.00  0.00    +0.041 C 
ATOM      2  C   LIG A   1      -6.988  -0.307 126.876  0.00  0.00    -0.045 C 
ATOM      3  C   LIG A   1      -6.907   0.371 125.704  0.00  0.00    -0.065 C 
ATOM      4  C   LIG A   1      -6.113  -0.062 124.505  0.00  0.00    +0.039 C 
ATOM      5  C   LIG A   1      -7.667   1.673 125.644  0.00  0.00    +0.058 C 
ATOM      6  C   LIG A   1      -7.657   2.631 124.445  0.00  0.00    +0.086 C 
ATOM      7  N   LIG A   1      -8.207   3.825 125.057  0.00  0.00    -0.311 N 
ATOM      8  C   LIG A   1      -7.317   2.575 126.854  0.00  0.00    +0.122 C 
ATOM      9  C   LIG A   1      -7.762   1.853 128.144  0.00  0.00    +0.067 C 
ATOM     10  C   LIG A   1      -8.993   2.366 128.868  0.00  0.00    -0.023 C 
ATOM     11  C   LIG A   1      -8.880   3.366 129.757  0.00  0.00    -0.030 C 
ATOM     12  C   LIG A   1      -9.849   3.697 130.841  0.00  0.00    +0.034 C 
ATOM     13  C   LIG A   1      -9.404   3.124 132.210  0.00  0.00    +0.013 C 
ATOM     14  C   LIG A   1      -9.484   1.596 132.277  0.00  0.00    +0.012 C 
ATOM     15  C   LIG A   1      -8.129   3.697 132.819  0.00  0.00    -0.017 C 
ATOM     16  C   LIG A   1      -6.804   3.591 132.561  0.00  0.00    -0.009 C 
ATOM     17  C   LIG A   1      -6.153   2.805 131.442  0.00  0.00    +0.187 C 
ATOM     18  O   LIG A   1      -6.532   1.664 131.177  0.00  0.00    -0.290 OA
ATOM     19  C   LIG A   1      -5.814   4.234 133.503  0.00  0.00    +0.047 C 
ATOM     20  C   LIG A   1      -7.788   0.283 128.039  0.00  0.00    +0.148 C 
ATOM     21  C   LIG A   1      -5.802   2.919 127.001  0.00  0.00    +0.150 C 
ATOM     22  C   LIG A   1      -5.366   3.762 128.209  0.00  0.00    +0.078 C 
ATOM     23  C   LIG A   1      -4.643   2.949 129.292  0.00  0.00    +0.047 C 
ATOM     24  C   LIG A   1      -4.924   3.443 130.728  0.00  0.00    +0.185 C 
ATOM     25  O   LIG A   1      -4.957   2.575 126.171  0.00  0.00    -0.296 OA
ATOM     26  C   LIG A   1      -7.998   3.870 126.425  0.00  0.00    +0.228 C 
ATOM     27  O   LIG A   1      -8.200   4.863 127.106  0.00  0.00    -0.275 OA
ATOM     28  H   LIG A   1      -8.448   4.667 124.545  0.00  0.00    +0.149 HD
ENDROOT
BRANCH  20  29
ATOM     29  O   LIG A   1      -7.307  -0.300 129.255  0.00  0.00    -0.387 OA
ATOM     30  H   LIG A   1      -7.408  -1.274 129.227  0.00  0.00    +0.210 HD
ENDBRANCH  20  29
BRANCH  24  31
ATOM     31  O   LIG A   1      -3.772   3.131 131.522  0.00  0.00    -0.384 OA
ATOM     32  H   LIG A   1      -3.364   3.981 131.775  0.00  0.00    +0.210 HD
ENDBRANCH  24  31
BRANCH   6  33
ATOM     33  C   LIG A   1      -8.518   2.118 123.279  0.00  0.00    +0.060 C 
BRANCH  33  34
ATOM     34  C   LIG A   1      -8.329   2.887 122.008  0.00  0.00    -0.021 A 
ATOM     35  C   LIG A   1      -9.311   3.199 121.089  0.00  0.00    +0.087 A 
ATOM     36  N   LIG A   1      -8.743   3.937 120.085  0.00  0.00    -0.360 N 
ATOM     37  C   LIG A   1      -7.402   4.116 120.327  0.00  0.00    +0.047 A 
ATOM     38  C   LIG A   1      -6.436   4.803 119.583  0.00  0.00    +0.026 A 
ATOM     39  C   LIG A   1      -5.129   4.823 120.079  0.00  0.00    +0.002 A 
ATOM     40  C   LIG A   1      -4.805   4.185 121.273  0.00  0.00    +0.001 A 
ATOM     41  C   LIG A   1      -5.785   3.508 122.007  0.00  0.00    +0.010 A 
ATOM     42  C   LIG A   1      -7.111   3.468 121.527  0.00  0.00    +0.003 A 
ATOM     43  H   LIG A   1      -9.235   4.308 119.285  0.00  0.00    +0.165 HD
ENDBRANCH  33  34
ENDBRANCH   6  33
TORSDOF 4
ENDMDL
MODEL 8
REMARK VINA RESULT:      -9.7      3.021      4.264
REMARK  Name = NuBBE_496
REMARK  8 active torsions:
REMARK  status: ('A' for Active; 'I' for Inactive)
REMARK    1  A    between atoms: C_1  and  C_2
REMARK    2  A    between atoms: C_3  and  C_4
REMARK    3  A    between atoms: C_6  and  C_8
REMARK    4  A    between atoms: C_8  and  C_9
REMARK    5  A    between atoms: C_25  and  C_27
REMARK    6  A    between atoms: C_29  and  C_32
REMARK    7  A    between atoms: C_33  and  O_35
REMARK    8  A    between atoms: C_39  and  O_40
REMARK                            x       y       z     vdW  Elec       q    Type
REMARK                         _______ _______ _______ _____ _____    ______ ____
ROOT
ATOM      1  C   LIG A   1      -3.042   3.047 128.473  0.00  0.00    +0.041 C 
ATOM      2  C   LIG A   1      -4.046   2.876 129.584  0.00  0.00    -0.045 C 
ATOM      3  C   LIG A   1      -4.053   3.608 130.725  0.00  0.00    -0.065 C 
ATOM      4  C   LIG A   1      -3.004   4.605 131.123  0.00  0.00    +0.039 C 
ATOM      5  C   LIG A   1      -5.210   3.355 131.661  0.00  0.00    +0.058 C 
ATOM      6  C   LIG A   1      -5.379   4.020 133.034  0.00  0.00    +0.086 C 
ATOM      7  N   LIG A   1      -6.394   3.164 133.618  0.00  0.00    -0.311 N 
ATOM      8  C   LIG A   1      -5.369   1.842 131.949  0.00  0.00    +0.122 C 
ATOM      9  C   LIG A   1      -5.698   1.125 130.622  0.00  0.00    +0.067 C 
ATOM     10  C   LIG A   1      -7.117   0.633 130.402  0.00  0.00    -0.023 C 
ATOM     11  C   LIG A   1      -7.487  -0.573 130.863  0.00  0.00    -0.030 C 
ATOM     12  C   LIG A   1      -8.647  -1.381 130.388  0.00  0.00    +0.034 C 
ATOM     13  C   LIG A   1      -8.217  -2.474 129.379  0.00  0.00    +0.013 C 
ATOM     14  C   LIG A   1      -7.758  -1.903 128.033  0.00  0.00    +0.012 C 
ATOM     15  C   LIG A   1      -7.322  -3.591 129.906  0.00  0.00    -0.017 C 
ATOM     16  C   LIG A   1      -6.024  -3.693 130.277  0.00  0.00    -0.009 C 
ATOM     17  C   LIG A   1      -4.992  -2.585 130.301  0.00  0.00    +0.187 C 
ATOM     18  O   LIG A   1      -4.902  -1.794 129.361  0.00  0.00    -0.290 OA
ATOM     19  C   LIG A   1      -5.463  -5.050 130.634  0.00  0.00    +0.047 C 
ATOM     20  C   LIG A   1      -5.151   1.849 129.335  0.00  0.00    +0.148 C 
ATOM     21  C   LIG A   1      -4.109   1.152 132.560  0.00  0.00    +0.150 C 
ATOM     22  C   LIG A   1      -4.168  -0.360 132.821  0.00  0.00    +0.078 C 
ATOM     23  C   LIG A   1      -3.357  -1.186 131.813  0.00  0.00    +0.047 C 
ATOM     24  C   LIG A   1      -3.985  -2.558 131.489  0.00  0.00    +0.185 C 
ATOM     25  O   LIG A   1      -3.093   1.778 132.872  0.00  0.00    -0.296 OA
ATOM     26  C   LIG A   1      -6.400   1.893 133.071  0.00  0.00    +0.228 C 
ATOM     27  O   LIG A   1      -7.031   0.960 133.542  0.00  0.00    -0.275 OA
ATOM     28  H   LIG A   1      -6.847   3.344 134.508  0.00  0.00    +0.149 HD
ENDROOT
BRANCH  20  29
ATOM     29  O   LIG A   1      -4.664   0.882 128.398  0.00  0.00    -0.387 OA
ATOM     30  H   LIG A   1      -5.260   0.105 128.373  0.00  0.00    +0.210 HD
ENDBRANCH  20  29
BRANCH  24  31
ATOM     31  O   LIG A   1      -2.915  -3.450 131.150  0.00  0.00    -0.384 OA
ATOM     32  H   LIG A   1      -2.120  -2.900 131.015  0.00  0.00    +0.210 HD
ENDBRANCH  24  31
BRANCH   6  33
ATOM     33  C   LIG A   1      -5.836   5.484 132.924  0.00  0.00    +0.060 C 
BRANCH  33  34
ATOM     34  C   LIG A   1      -7.324   5.652 132.934  0.00  0.00    -0.021 A 
ATOM     35  C   LIG A   1      -8.113   5.878 134.044  0.00  0.00    +0.087 A 
ATOM     36  N   LIG A   1      -9.412   6.007 133.630  0.00  0.00    -0.360 N 
ATOM     37  C   LIG A   1      -9.492   5.869 132.264  0.00  0.00    +0.047 A 
ATOM     38  C   LIG A   1     -10.604   5.933 131.416  0.00  0.00    +0.026 A 
ATOM     39  C   LIG A   1     -10.385   5.755 130.047  0.00  0.00    +0.002 A 
ATOM     40  C   LIG A   1      -9.105   5.528 129.548  0.00  0.00    +0.001 A 
ATOM     41  C   LIG A   1      -8.004   5.473 130.411  0.00  0.00    +0.010 A 
ATOM     42  C   LIG A   1      -8.197   5.645 131.797  0.00  0.00    +0.003 A 
ATOM     43  H   LIG A   1     -10.201   6.188 134.234  0.00  0.00    +0.165 HD
ENDBRANCH  33  34
ENDBRANCH   6  33
TORSDOF 4
ENDMDL
MODEL 9
REMARK VINA RESULT:      -9.4      3.757      8.433
REMARK  Name = NuBBE_496
REMARK  8 active torsions:
REMARK  status: ('A' for Active; 'I' for Inactive)
REMARK    1  A    between atoms: C_1  and  C_2
REMARK    2  A    between atoms: C_3  and  C_4
REMARK    3  A    between atoms: C_6  and  C_8
REMARK    4  A    between atoms: C_8  and  C_9
REMARK    5  A    between atoms: C_25  and  C_27
REMARK    6  A    between atoms: C_29  and  C_32
REMARK    7  A    between atoms: C_33  and  O_35
REMARK    8  A    between atoms: C_39  and  O_40
REMARK                            x       y       z     vdW  Elec       q    Type
REMARK                         _______ _______ _______ _____ _____    ______ ____
ROOT
ATOM      1  C   LIG A   1      -7.892   4.278 127.918  0.00  0.00    +0.041 C 
ATOM      2  C   LIG A   1      -7.189   3.126 128.590  0.00  0.00    -0.045 C 
ATOM      3  C   LIG A   1      -7.484   1.821 128.373  0.00  0.00    -0.065 C 
ATOM      4  C   LIG A   1      -8.626   1.316 127.539  0.00  0.00    +0.039 C 
ATOM      5  C   LIG A   1      -6.587   0.821 129.061  0.00  0.00    +0.058 C 
ATOM      6  C   LIG A   1      -6.780  -0.701 129.010  0.00  0.00    +0.086 C 
ATOM      7  N   LIG A   1      -5.918  -1.113 130.101  0.00  0.00    -0.311 N 
ATOM      8  C   LIG A   1      -6.463   1.137 130.572  0.00  0.00    +0.122 C 
ATOM      9  C   LIG A   1      -5.796   2.522 130.727  0.00  0.00    +0.067 C 
ATOM     10  C   LIG A   1      -4.354   2.578 131.197  0.00  0.00    -0.023 C 
ATOM     11  C   LIG A   1      -4.076   2.568 132.510  0.00  0.00    -0.030 C 
ATOM     12  C   LIG A   1      -2.813   3.039 133.148  0.00  0.00    +0.034 C 
ATOM     13  C   LIG A   1      -2.950   4.474 133.716  0.00  0.00    +0.013 C 
ATOM     14  C   LIG A   1      -3.079   5.542 132.626  0.00  0.00    +0.012 C 
ATOM     15  C   LIG A   1      -3.916   4.668 134.880  0.00  0.00    -0.017 C 
ATOM     16  C   LIG A   1      -5.262   4.689 135.024  0.00  0.00    -0.009 C 
ATOM     17  C   LIG A   1      -6.298   4.466 133.942  0.00  0.00    +0.187 C 
ATOM     18  O   LIG A   1      -6.176   5.000 132.839  0.00  0.00    -0.290 OA
ATOM     19  C   LIG A   1      -5.856   5.051 136.364  0.00  0.00    +0.047 C 
ATOM     20  C   LIG A   1      -6.029   3.498 129.514  0.00  0.00    +0.148 C 
ATOM     21  C   LIG A   1      -7.815   1.173 131.351  0.00  0.00    +0.150 C 
ATOM     22  C   LIG A   1      -7.780   1.536 132.843  0.00  0.00    +0.078 C 
ATOM     23  C   LIG A   1      -8.294   2.952 133.138  0.00  0.00    +0.047 C 
ATOM     24  C   LIG A   1      -7.568   3.642 134.313  0.00  0.00    +0.185 C 
ATOM     25  O   LIG A   1      -8.893   0.885 130.826  0.00  0.00    -0.296 OA
ATOM     26  C   LIG A   1      -5.741  -0.119 131.048  0.00  0.00    +0.228 C 
ATOM     27  O   LIG A   1      -5.221  -0.309 132.135  0.00  0.00    -0.275 OA
ATOM     28  H   LIG A   1      -5.704  -2.079 130.322  0.00  0.00    +0.149 HD
ENDROOT
BRANCH  20  29
ATOM     29  O   LIG A   1      -6.243   4.831 129.990  0.00  0.00    -0.387 OA
ATOM     30  H   LIG A   1      -6.793   4.816 130.801  0.00  0.00    +0.210 HD
ENDBRANCH  20  29
BRANCH  24  31
ATOM     31  O   LIG A   1      -8.496   4.555 134.914  0.00  0.00    -0.384 OA
ATOM     32  H   LIG A   1      -8.400   5.406 134.446  0.00  0.00    +0.210 HD
ENDBRANCH  24  31
BRANCH   6  33
ATOM     33  C   LIG A   1      -6.351  -1.300 127.661  0.00  0.00    +0.060 C 
BRANCH  33  34
ATOM     34  C   LIG A   1      -7.412  -2.129 127.005  0.00  0.00    -0.021 A 
ATOM     35  C   LIG A   1      -8.314  -2.955 127.645  0.00  0.00    +0.087 A 
ATOM     36  N   LIG A   1      -9.136  -3.508 126.700  0.00  0.00    -0.360 N 
ATOM     37  C   LIG A   1      -8.790  -3.060 125.447  0.00  0.00    +0.047 A 
ATOM     38  C   LIG A   1      -9.352  -3.352 124.199  0.00  0.00    +0.026 A 
ATOM     39  C   LIG A   1      -8.787  -2.741 123.075  0.00  0.00    +0.002 A 
ATOM     40  C   LIG A   1      -7.708  -1.870 123.198  0.00  0.00    +0.001 A 
ATOM     41  C   LIG A   1      -7.162  -1.586 124.456  0.00  0.00    +0.010 A 
ATOM     42  C   LIG A   1      -7.709  -2.193 125.605  0.00  0.00    +0.003 A 
ATOM     43  H   LIG A   1      -9.896  -4.146 126.890  0.00  0.00    +0.165 HD
ENDBRANCH  33  34
ENDBRANCH   6  33
TORSDOF 4
ENDMDL
