MODEL 1
REMARK VINA RESULT:      -7.7      0.000      0.000
REMARK  Name = NuBBE_2243
REMARK  9 active torsions:
REMARK  status: ('A' for Active; 'I' for Inactive)
REMARK    1  A    between atoms: C_1  and  C_2
REMARK    2  A    between atoms: C_2  and  C_3
REMARK    3  A    between atoms: C_11  and  O_12
REMARK    4  A    between atoms: C_14  and  C_15
REMARK    5  A    between atoms: C_16  and  O_18
REMARK    6  A    between atoms: O_18  and  C_19
REMARK    7  A    between atoms: C_19  and  C_20
REMARK    8  A    between atoms: C_23  and  C_24
REMARK    9  A    between atoms: C_23  and  C_25
REMARK                            x       y       z     vdW  Elec       q    Type
REMARK                         _______ _______ _______ _____ _____    ______ ____
ROOT
ATOM      1  C   LIG A   1      -9.014  -2.353 125.623  0.00  0.00    +0.014 C 
ATOM      2  C   LIG A   1      -7.745  -1.550 125.253  0.00  0.00    +0.001 C 
ATOM      3  C   LIG A   1      -6.474  -2.262 125.771  0.00  0.00    +0.014 C 
ATOM      4  C   LIG A   1      -7.713  -1.623 123.697  0.00  0.00    +0.010 C 
ATOM      5  C   LIG A   1      -6.721  -0.666 123.079  0.00  0.00    +0.003 C 
ATOM      6  C   LIG A   1      -7.167   0.763 123.311  0.00  0.00    +0.039 C 
ATOM      7  C   LIG A   1      -7.399   1.074 124.780  0.00  0.00    +0.117 C 
ATOM      8  O   LIG A   1      -8.773   0.713 125.112  0.00  0.00    -0.355 OA
ATOM      9  C   LIG A   1      -7.792  -0.068 125.789  0.00  0.00    +0.133 C 
ATOM     10  C   LIG A   1      -7.553   0.212 127.265  0.00  0.00    +0.022 C 
ATOM     11  C   LIG A   1      -6.981   1.518 127.625  0.00  0.00    +0.122 C 
ATOM     12  C   LIG A   1      -6.679   2.521 126.788  0.00  0.00    -0.015 C 
ATOM     13  C   LIG A   1      -7.011   2.515 125.306  0.00  0.00    +0.062 C 
ATOM     14  C   LIG A   1      -8.275   3.384 125.177  0.00  0.00    +0.022 C 
ATOM     15  C   LIG A   1      -5.823   3.173 124.451  0.00  0.00    +0.190 C 
ATOM     16  C   LIG A   1      -4.875   4.182 125.129  0.00  0.00    +0.056 C 
ATOM     17  C   LIG A   1      -4.636   4.012 126.634  0.00  0.00    -0.007 C 
ATOM     18  C   LIG A   1      -4.080   5.352 127.177  0.00  0.00    +0.016 C 
ATOM     19  C   LIG A   1      -6.013   3.787 127.300  0.00  0.00    +0.046 C 
ATOM     20  C   LIG A   1      -7.820  -0.650 128.269  0.00  0.00    +0.019 C 
ENDROOT
BRANCH  11  21
ATOM     21  O   LIG A   1      -6.794   1.738 128.982  0.00  0.00    -0.506 OA
ATOM     22  H   LIG A   1      -7.409   1.129 129.431  0.00  0.00    +0.292 HD
ENDBRANCH  11  21
BRANCH  17  23
ATOM     23  C   LIG A   1      -3.674   2.857 126.911  0.00  0.00    -0.028 C 
ATOM     24  C   LIG A   1      -2.335   2.907 126.910  0.00  0.00    +0.004 C 
ENDBRANCH  17  23
BRANCH  15  25
ATOM     25  O   LIG A   1      -6.356   3.742 123.188  0.00  0.00    -0.461 OA
BRANCH  25  26
ATOM     26  C   LIG A   1      -5.561   4.084 122.127  0.00  0.00    +0.304 C 
ATOM     27  C   LIG A   1      -5.731   3.102 121.007  0.00  0.00    +0.136 C 
ATOM     28  O   LIG A   1      -4.917   5.143 121.979  0.00  0.00    -0.251 OA
ENDBRANCH  25  26
ENDBRANCH  15  25
TORSDOF 4
ENDMDL
MODEL 2
REMARK VINA RESULT:      -7.6      2.065      3.349
REMARK  Name = NuBBE_2243
REMARK  9 active torsions:
REMARK  status: ('A' for Active; 'I' for Inactive)
REMARK    1  A    between atoms: C_1  and  C_2
REMARK    2  A    between atoms: C_2  and  C_3
REMARK    3  A    between atoms: C_11  and  O_12
REMARK    4  A    between atoms: C_14  and  C_15
REMARK    5  A    between atoms: C_16  and  O_18
REMARK    6  A    between atoms: O_18  and  C_19
REMARK    7  A    between atoms: C_19  and  C_20
REMARK    8  A    between atoms: C_23  and  C_24
REMARK    9  A    between atoms: C_23  and  C_25
REMARK                            x       y       z     vdW  Elec       q    Type
REMARK                         _______ _______ _______ _____ _____    ______ ____
ROOT
ATOM      1  C   LIG A   1      -9.550  -3.406 123.647  0.00  0.00    +0.014 C 
ATOM      2  C   LIG A   1      -8.239  -2.721 124.102  0.00  0.00    +0.001 C 
ATOM      3  C   LIG A   1      -7.117  -3.766 124.306  0.00  0.00    +0.014 C 
ATOM      4  C   LIG A   1      -7.842  -1.850 122.874  0.00  0.00    +0.010 C 
ATOM      5  C   LIG A   1      -6.745  -0.858 123.180  0.00  0.00    +0.003 C 
ATOM      6  C   LIG A   1      -7.251   0.190 124.150  0.00  0.00    +0.039 C 
ATOM      7  C   LIG A   1      -7.825  -0.415 125.420  0.00  0.00    +0.117 C 
ATOM      8  O   LIG A   1      -9.233  -0.714 125.188  0.00  0.00    -0.355 OA
ATOM      9  C   LIG A   1      -8.429  -1.868 125.415  0.00  0.00    +0.133 C 
ATOM     10  C   LIG A   1      -8.547  -2.564 126.761  0.00  0.00    +0.022 C 
ATOM     11  C   LIG A   1      -8.092  -1.828 127.950  0.00  0.00    +0.122 C 
ATOM     12  C   LIG A   1      -7.614  -0.575 127.984  0.00  0.00    -0.015 C 
ATOM     13  C   LIG A   1      -7.589   0.353 126.783  0.00  0.00    +0.062 C 
ATOM     14  C   LIG A   1      -8.798   1.287 126.975  0.00  0.00    +0.022 C 
ATOM     15  C   LIG A   1      -6.242   1.225 126.763  0.00  0.00    +0.190 C 
ATOM     16  C   LIG A   1      -5.492   1.486 128.084  0.00  0.00    +0.056 C 
ATOM     17  C   LIG A   1      -5.611   0.418 129.177  0.00  0.00    -0.007 C 
ATOM     18  C   LIG A   1      -5.215   1.074 130.522  0.00  0.00    +0.016 C 
ATOM     19  C   LIG A   1      -7.103   0.026 129.282  0.00  0.00    +0.046 C 
ATOM     20  C   LIG A   1      -9.031  -3.811 126.947  0.00  0.00    +0.019 C 
ENDROOT
BRANCH  11  21
ATOM     21  O   LIG A   1      -8.232  -2.494 129.159  0.00  0.00    -0.506 OA
ATOM     22  H   LIG A   1      -7.733  -1.965 129.807  0.00  0.00    +0.292 HD
ENDBRANCH  11  21
BRANCH  17  23
ATOM     23  C   LIG A   1      -4.727  -0.789 128.864  0.00  0.00    -0.028 C 
ATOM     24  C   LIG A   1      -4.568  -1.886 129.617  0.00  0.00    +0.004 C 
ENDBRANCH  17  23
BRANCH  15  25
ATOM     25  O   LIG A   1      -6.470   2.504 126.043  0.00  0.00    -0.461 OA
BRANCH  25  26
ATOM     26  C   LIG A   1      -5.489   3.156 125.346  0.00  0.00    +0.304 C 
ATOM     27  C   LIG A   1      -6.022   3.661 124.039  0.00  0.00    +0.136 C 
ATOM     28  O   LIG A   1      -4.358   3.482 125.764  0.00  0.00    -0.251 OA
ENDBRANCH  25  26
ENDBRANCH  15  25
TORSDOF 4
ENDMDL
MODEL 3
REMARK VINA RESULT:      -7.4      1.820      6.453
REMARK  Name = NuBBE_2243
REMARK  9 active torsions:
REMARK  status: ('A' for Active; 'I' for Inactive)
REMARK    1  A    between atoms: C_1  and  C_2
REMARK    2  A    between atoms: C_2  and  C_3
REMARK    3  A    between atoms: C_11  and  O_12
REMARK    4  A    between atoms: C_14  and  C_15
REMARK    5  A    between atoms: C_16  and  O_18
REMARK    6  A    between atoms: O_18  and  C_19
REMARK    7  A    between atoms: C_19  and  C_20
REMARK    8  A    between atoms: C_23  and  C_24
REMARK    9  A    between atoms: C_23  and  C_25
REMARK                            x       y       z     vdW  Elec       q    Type
REMARK                         _______ _______ _______ _____ _____    ______ ____
ROOT
ATOM      1  C   LIG A   1      -4.856   4.535 127.461  0.00  0.00    +0.014 C 
ATOM      2  C   LIG A   1      -4.781   3.012 127.198  0.00  0.00    +0.001 C 
ATOM      3  C   LIG A   1      -3.486   2.651 126.433  0.00  0.00    +0.014 C 
ATOM      4  C   LIG A   1      -4.657   2.405 128.628  0.00  0.00    +0.010 C 
ATOM      5  C   LIG A   1      -4.857   0.908 128.656  0.00  0.00    +0.003 C 
ATOM      6  C   LIG A   1      -6.292   0.572 128.302  0.00  0.00    +0.039 C 
ATOM      7  C   LIG A   1      -6.723   1.166 126.972  0.00  0.00    +0.117 C 
ATOM      8  O   LIG A   1      -7.220   2.516 127.214  0.00  0.00    -0.355 OA
ATOM      9  C   LIG A   1      -6.040   2.471 126.418  0.00  0.00    +0.133 C 
ATOM     10  C   LIG A   1      -6.177   2.734 124.926  0.00  0.00    +0.022 C 
ATOM     11  C   LIG A   1      -6.933   1.755 124.130  0.00  0.00    +0.122 C 
ATOM     12  C   LIG A   1      -7.559   0.660 124.587  0.00  0.00    -0.015 C 
ATOM     13  C   LIG A   1      -7.699   0.320 126.060  0.00  0.00    +0.062 C 
ATOM     14  C   LIG A   1      -9.130   0.747 126.433  0.00  0.00    +0.022 C 
ATOM     15  C   LIG A   1      -7.536  -1.260 126.299  0.00  0.00    +0.190 C 
ATOM     16  C   LIG A   1      -7.843  -2.233 125.145  0.00  0.00    +0.056 C 
ATOM     17  C   LIG A   1      -7.612  -1.720 123.718  0.00  0.00    -0.007 C 
ATOM     18  C   LIG A   1      -8.410  -2.631 122.754  0.00  0.00    +0.016 C 
ATOM     19  C   LIG A   1      -8.233  -0.306 123.628  0.00  0.00    +0.046 C 
ATOM     20  C   LIG A   1      -5.651   3.793 124.276  0.00  0.00    +0.019 C 
ENDROOT
BRANCH  11  21
ATOM     21  O   LIG A   1      -7.047   2.041 122.778  0.00  0.00    -0.506 OA
ATOM     22  H   LIG A   1      -7.708   1.414 122.434  0.00  0.00    +0.292 HD
ENDBRANCH  11  21
BRANCH  17  23
ATOM     23  C   LIG A   1      -6.124  -1.710 123.372  0.00  0.00    -0.028 C 
ATOM     24  C   LIG A   1      -5.258  -2.724 123.515  0.00  0.00    +0.004 C 
ENDBRANCH  17  23
BRANCH  15  25
ATOM     25  O   LIG A   1      -8.270  -1.670 127.523  0.00  0.00    -0.461 OA
BRANCH  25  26
ATOM     26  C   LIG A   1      -7.904  -2.743 128.290  0.00  0.00    +0.304 C 
ATOM     27  C   LIG A   1      -8.924  -3.836 128.181  0.00  0.00    +0.136 C 
ATOM     28  O   LIG A   1      -6.808  -2.923 128.861  0.00  0.00    -0.251 OA
ENDBRANCH  25  26
ENDBRANCH  15  25
TORSDOF 4
ENDMDL
MODEL 4
REMARK VINA RESULT:      -7.3      2.373      5.014
REMARK  Name = NuBBE_2243
REMARK  9 active torsions:
REMARK  status: ('A' for Active; 'I' for Inactive)
REMARK    1  A    between atoms: C_1  and  C_2
REMARK    2  A    between atoms: C_2  and  C_3
REMARK    3  A    between atoms: C_11  and  O_12
REMARK    4  A    between atoms: C_14  and  C_15
REMARK    5  A    between atoms: C_16  and  O_18
REMARK    6  A    between atoms: O_18  and  C_19
REMARK    7  A    between atoms: C_19  and  C_20
REMARK    8  A    between atoms: C_23  and  C_24
REMARK    9  A    between atoms: C_23  and  C_25
REMARK                            x       y       z     vdW  Elec       q    Type
REMARK                         _______ _______ _______ _____ _____    ______ ____
ROOT
ATOM      1  C   LIG A   1      -5.595  -2.808 128.452  0.00  0.00    +0.014 C 
ATOM      2  C   LIG A   1      -6.733  -1.841 128.049  0.00  0.00    +0.001 C 
ATOM      3  C   LIG A   1      -8.022  -2.623 127.706  0.00  0.00    +0.014 C 
ATOM      4  C   LIG A   1      -7.010  -1.046 129.359  0.00  0.00    +0.010 C 
ATOM      5  C   LIG A   1      -7.888   0.165 129.144  0.00  0.00    +0.003 C 
ATOM      6  C   LIG A   1      -7.154   1.194 128.309  0.00  0.00    +0.039 C 
ATOM      7  C   LIG A   1      -6.651   0.630 126.991  0.00  0.00    +0.117 C 
ATOM      8  O   LIG A   1      -5.334   0.044 127.218  0.00  0.00    -0.355 OA
ATOM      9  C   LIG A   1      -6.331  -0.904 126.846  0.00  0.00    +0.133 C 
ATOM     10  C   LIG A   1      -6.289  -1.463 125.432  0.00  0.00    +0.022 C 
ATOM     11  C   LIG A   1      -6.547  -0.530 124.324  0.00  0.00    +0.122 C 
ATOM     12  C   LIG A   1      -6.780   0.787 124.422  0.00  0.00    -0.015 C 
ATOM     13  C   LIG A   1      -6.680   1.570 125.719  0.00  0.00    +0.062 C 
ATOM     14  C   LIG A   1      -5.310   2.269 125.659  0.00  0.00    +0.022 C 
ATOM     15  C   LIG A   1      -7.839   2.676 125.809  0.00  0.00    +0.190 C 
ATOM     16  C   LIG A   1      -8.470   3.215 124.511  0.00  0.00    +0.056 C 
ATOM     17  C   LIG A   1      -8.509   2.267 123.306  0.00  0.00    -0.007 C 
ATOM     18  C   LIG A   1      -8.717   3.126 122.036  0.00  0.00    +0.016 C 
ATOM     19  C   LIG A   1      -7.114   1.610 123.189  0.00  0.00    +0.046 C 
ATOM     20  C   LIG A   1      -6.041  -2.752 125.116  0.00  0.00    +0.019 C 
ENDROOT
BRANCH  11  21
ATOM     21  O   LIG A   1      -6.485  -1.078 123.052  0.00  0.00    -0.506 OA
ATOM     22  H   LIG A   1      -5.997  -1.915 123.152  0.00  0.00    +0.292 HD
ENDBRANCH  11  21
BRANCH  17  23
ATOM     23  C   LIG A   1      -9.616   1.225 123.463  0.00  0.00    -0.028 C 
ATOM     24  C   LIG A   1     -10.167   0.485 122.491  0.00  0.00    +0.004 C 
ENDBRANCH  17  23
BRANCH  15  25
ATOM     25  O   LIG A   1      -7.405   3.803 126.673  0.00  0.00    -0.461 OA
BRANCH  25  26
ATOM     26  C   LIG A   1      -8.282   4.661 127.280  0.00  0.00    +0.304 C 
ATOM     27  C   LIG A   1      -8.238   4.489 128.769  0.00  0.00    +0.136 C 
ATOM     28  O   LIG A   1      -8.907   5.601 126.746  0.00  0.00    -0.251 OA
ENDBRANCH  25  26
ENDBRANCH  15  25
TORSDOF 4
ENDMDL
MODEL 5
REMARK VINA RESULT:      -7.3      2.664      4.778
REMARK  Name = NuBBE_2243
REMARK  9 active torsions:
REMARK  status: ('A' for Active; 'I' for Inactive)
REMARK    1  A    between atoms: C_1  and  C_2
REMARK    2  A    between atoms: C_2  and  C_3
REMARK    3  A    between atoms: C_11  and  O_12
REMARK    4  A    between atoms: C_14  and  C_15
REMARK    5  A    between atoms: C_16  and  O_18
REMARK    6  A    between atoms: O_18  and  C_19
REMARK    7  A    between atoms: C_19  and  C_20
REMARK    8  A    between atoms: C_23  and  C_24
REMARK    9  A    between atoms: C_23  and  C_25
REMARK                            x       y       z     vdW  Elec       q    Type
REMARK                         _______ _______ _______ _____ _____    ______ ____
ROOT
ATOM      1  C   LIG A   1      -6.952  -1.825 131.378  0.00  0.00    +0.014 C 
ATOM      2  C   LIG A   1      -6.241  -1.369 130.081  0.00  0.00    +0.001 C 
ATOM      3  C   LIG A   1      -5.226  -0.241 130.380  0.00  0.00    +0.014 C 
ATOM      4  C   LIG A   1      -5.424  -2.625 129.657  0.00  0.00    +0.010 C 
ATOM      5  C   LIG A   1      -4.868  -2.525 128.256  0.00  0.00    +0.003 C 
ATOM      6  C   LIG A   1      -5.999  -2.539 127.248  0.00  0.00    +0.039 C 
ATOM      7  C   LIG A   1      -7.035  -1.459 127.514  0.00  0.00    +0.117 C 
ATOM      8  O   LIG A   1      -8.018  -1.991 128.452  0.00  0.00    -0.355 OA
ATOM      9  C   LIG A   1      -7.257  -0.902 128.969  0.00  0.00    +0.133 C 
ATOM     10  C   LIG A   1      -7.940   0.452 129.086  0.00  0.00    +0.022 C 
ATOM     11  C   LIG A   1      -8.335   1.123 127.838  0.00  0.00    +0.122 C 
ATOM     12  C   LIG A   1      -8.195   0.649 126.592  0.00  0.00    -0.015 C 
ATOM     13  C   LIG A   1      -7.711  -0.753 126.270  0.00  0.00    +0.062 C 
ATOM     14  C   LIG A   1      -8.987  -1.553 125.951  0.00  0.00    +0.022 C 
ATOM     15  C   LIG A   1      -6.751  -0.745 124.983  0.00  0.00    +0.190 C 
ATOM     16  C   LIG A   1      -6.885   0.391 123.950  0.00  0.00    +0.056 C 
ATOM     17  C   LIG A   1      -7.363   1.753 124.468  0.00  0.00    -0.007 C 
ATOM     18  C   LIG A   1      -7.876   2.565 123.254  0.00  0.00    +0.016 C 
ATOM     19  C   LIG A   1      -8.577   1.498 125.391  0.00  0.00    +0.046 C 
ATOM     20  C   LIG A   1      -8.204   1.087 130.247  0.00  0.00    +0.019 C 
ENDROOT
BRANCH  11  21
ATOM     21  O   LIG A   1      -8.968   2.348 127.991  0.00  0.00    -0.506 OA
ATOM     22  H   LIG A   1      -9.921   2.160 127.914  0.00  0.00    +0.292 HD
ENDBRANCH  11  21
BRANCH  17  23
ATOM     23  C   LIG A   1      -6.240   2.489 125.197  0.00  0.00    -0.028 C 
ATOM     24  C   LIG A   1      -5.637   3.622 124.810  0.00  0.00    +0.004 C 
ENDBRANCH  17  23
BRANCH  15  25
ATOM     25  O   LIG A   1      -6.798  -2.064 124.302  0.00  0.00    -0.461 OA
BRANCH  25  26
ATOM     26  C   LIG A   1      -5.925  -2.426 123.313  0.00  0.00    +0.304 C 
ATOM     27  C   LIG A   1      -4.922  -3.411 123.835  0.00  0.00    +0.136 C 
ATOM     28  O   LIG A   1      -6.012  -2.162 122.095  0.00  0.00    -0.251 OA
ENDBRANCH  25  26
ENDBRANCH  15  25
TORSDOF 4
ENDMDL
MODEL 6
REMARK VINA RESULT:      -7.2      3.894      7.050
REMARK  Name = NuBBE_2243
REMARK  9 active torsions:
REMARK  status: ('A' for Active; 'I' for Inactive)
REMARK    1  A    between atoms: C_1  and  C_2
REMARK    2  A    between atoms: C_2  and  C_3
REMARK    3  A    between atoms: C_11  and  O_12
REMARK    4  A    between atoms: C_14  and  C_15
REMARK    5  A    between atoms: C_16  and  O_18
REMARK    6  A    between atoms: O_18  and  C_19
REMARK    7  A    between atoms: C_19  and  C_20
REMARK    8  A    between atoms: C_23  and  C_24
REMARK    9  A    between atoms: C_23  and  C_25
REMARK                            x       y       z     vdW  Elec       q    Type
REMARK                         _______ _______ _______ _____ _____    ______ ____
ROOT
ATOM      1  C   LIG A   1      -9.865   4.152 131.519  0.00  0.00    +0.014 C 
ATOM      2  C   LIG A   1      -8.718   4.868 130.766  0.00  0.00    +0.001 C 
ATOM      3  C   LIG A   1      -9.218   5.438 129.418  0.00  0.00    +0.014 C 
ATOM      4  C   LIG A   1      -8.384   6.080 131.685  0.00  0.00    +0.010 C 
ATOM      5  C   LIG A   1      -7.097   6.774 131.308  0.00  0.00    +0.003 C 
ATOM      6  C   LIG A   1      -5.919   5.856 131.570  0.00  0.00    +0.039 C 
ATOM      7  C   LIG A   1      -6.054   4.514 130.871  0.00  0.00    +0.117 C 
ATOM      8  O   LIG A   1      -6.801   3.616 131.745  0.00  0.00    -0.355 OA
ATOM      9  C   LIG A   1      -7.474   3.927 130.528  0.00  0.00    +0.133 C 
ATOM     10  C   LIG A   1      -7.529   2.856 129.450  0.00  0.00    +0.022 C 
ATOM     11  C   LIG A   1      -6.260   2.457 128.823  0.00  0.00    +0.122 C 
ATOM     12  C   LIG A   1      -5.035   2.911 129.128  0.00  0.00    -0.015 C 
ATOM     13  C   LIG A   1      -4.745   3.841 130.293  0.00  0.00    +0.062 C 
ATOM     14  C   LIG A   1      -4.194   2.928 131.403  0.00  0.00    +0.022 C 
ATOM     15  C   LIG A   1      -3.630   4.925 129.894  0.00  0.00    +0.190 C 
ATOM     16  C   LIG A   1      -2.633   4.601 128.765  0.00  0.00    +0.056 C 
ATOM     17  C   LIG A   1      -3.116   3.662 127.653  0.00  0.00    -0.007 C 
ATOM     18  C   LIG A   1      -1.866   3.106 126.929  0.00  0.00    +0.016 C 
ATOM     19  C   LIG A   1      -3.821   2.465 128.332  0.00  0.00    +0.046 C 
ATOM     20  C   LIG A   1      -8.656   2.248 129.021  0.00  0.00    +0.019 C 
ENDROOT
BRANCH  11  21
ATOM     21  O   LIG A   1      -6.354   1.466 127.857  0.00  0.00    -0.506 OA
ATOM     22  H   LIG A   1      -7.259   1.534 127.501  0.00  0.00    +0.292 HD
ENDBRANCH  11  21
BRANCH  17  23
ATOM     23  C   LIG A   1      -4.044   4.392 126.683  0.00  0.00    -0.028 C 
ATOM     24  C   LIG A   1      -4.611   3.887 125.579  0.00  0.00    +0.004 C 
ENDBRANCH  17  23
BRANCH  15  25
ATOM     25  O   LIG A   1      -2.902   5.380 131.106  0.00  0.00    -0.461 OA
BRANCH  25  26
ATOM     26  C   LIG A   1      -2.126   6.506 131.133  0.00  0.00    +0.304 C 
ATOM     27  C   LIG A   1      -2.980   7.727 131.295  0.00  0.00    +0.136 C 
ATOM     28  O   LIG A   1      -0.880   6.562 131.210  0.00  0.00    -0.251 OA
ENDBRANCH  25  26
ENDBRANCH  15  25
TORSDOF 4
ENDMDL
MODEL 7
REMARK VINA RESULT:      -6.9      3.130      6.350
REMARK  Name = NuBBE_2243
REMARK  9 active torsions:
REMARK  status: ('A' for Active; 'I' for Inactive)
REMARK    1  A    between atoms: C_1  and  C_2
REMARK    2  A    between atoms: C_2  and  C_3
REMARK    3  A    between atoms: C_11  and  O_12
REMARK    4  A    between atoms: C_14  and  C_15
REMARK    5  A    between atoms: C_16  and  O_18
REMARK    6  A    between atoms: O_18  and  C_19
REMARK    7  A    between atoms: C_19  and  C_20
REMARK    8  A    between atoms: C_23  and  C_24
REMARK    9  A    between atoms: C_23  and  C_25
REMARK                            x       y       z     vdW  Elec       q    Type
REMARK                         _______ _______ _______ _____ _____    ______ ____
ROOT
ATOM      1  C   LIG A   1      -8.303  -0.187 124.148  0.00  0.00    +0.014 C 
ATOM      2  C   LIG A   1      -7.154  -0.526 125.127  0.00  0.00    +0.001 C 
ATOM      3  C   LIG A   1      -6.263  -1.654 124.557  0.00  0.00    +0.014 C 
ATOM      4  C   LIG A   1      -6.298   0.775 125.143  0.00  0.00    +0.010 C 
ATOM      5  C   LIG A   1      -5.271   0.797 126.250  0.00  0.00    +0.003 C 
ATOM      6  C   LIG A   1      -5.965   0.869 127.596  0.00  0.00    +0.039 C 
ATOM      7  C   LIG A   1      -6.976  -0.248 127.795  0.00  0.00    +0.117 C 
ATOM      8  O   LIG A   1      -8.253   0.189 127.243  0.00  0.00    -0.355 OA
ATOM      9  C   LIG A   1      -7.680  -0.922 126.560  0.00  0.00    +0.133 C 
ATOM     10  C   LIG A   1      -8.295  -2.294 126.789  0.00  0.00    +0.022 C 
ATOM     11  C   LIG A   1      -8.185  -2.873 128.137  0.00  0.00    +0.122 C 
ATOM     12  C   LIG A   1      -7.628  -2.299 129.214  0.00  0.00    -0.015 C 
ATOM     13  C   LIG A   1      -7.126  -0.867 129.244  0.00  0.00    +0.062 C 
ATOM     14  C   LIG A   1      -8.237  -0.069 129.949  0.00  0.00    +0.022 C 
ATOM     15  C   LIG A   1      -5.769  -0.755 130.094  0.00  0.00    +0.190 C 
ATOM     16  C   LIG A   1      -5.469  -1.808 131.179  0.00  0.00    +0.056 C 
ATOM     17  C   LIG A   1      -6.039  -3.215 130.961  0.00  0.00    -0.007 C 
ATOM     18  C   LIG A   1      -6.043  -3.939 132.330  0.00  0.00    +0.016 C 
ATOM     19  C   LIG A   1      -7.513  -3.057 130.525  0.00  0.00    +0.046 C 
ATOM     20  C   LIG A   1      -8.929  -3.024 125.846  0.00  0.00    +0.019 C 
ENDROOT
BRANCH  11  21
ATOM     21  O   LIG A   1      -8.773  -4.117 128.305  0.00  0.00    -0.506 OA
ATOM     22  H   LIG A   1      -9.726  -3.977 128.156  0.00  0.00    +0.292 HD
ENDBRANCH  11  21
BRANCH  17  23
ATOM     23  C   LIG A   1      -5.219  -3.985 129.926  0.00  0.00    -0.028 C 
ATOM     24  C   LIG A   1      -3.949  -3.749 129.569  0.00  0.00    +0.004 C 
ENDBRANCH  17  23
BRANCH  15  25
ATOM     25  O   LIG A   1      -5.629   0.613 130.656  0.00  0.00    -0.461 OA
BRANCH  25  26
ATOM     26  C   LIG A   1      -4.426   1.146 131.033  0.00  0.00    +0.304 C 
ATOM     27  C   LIG A   1      -4.110   2.358 130.208  0.00  0.00    +0.136 C 
ATOM     28  O   LIG A   1      -3.742   0.836 132.031  0.00  0.00    -0.251 OA
ENDBRANCH  25  26
ENDBRANCH  15  25
TORSDOF 4
ENDMDL
MODEL 8
REMARK VINA RESULT:      -6.9      4.831      8.134
REMARK  Name = NuBBE_2243
REMARK  9 active torsions:
REMARK  status: ('A' for Active; 'I' for Inactive)
REMARK    1  A    between atoms: C_1  and  C_2
REMARK    2  A    between atoms: C_2  and  C_3
REMARK    3  A    between atoms: C_11  and  O_12
REMARK    4  A    between atoms: C_14  and  C_15
REMARK    5  A    between atoms: C_16  and  O_18
REMARK    6  A    between atoms: O_18  and  C_19
REMARK    7  A    between atoms: C_19  and  C_20
REMARK    8  A    between atoms: C_23  and  C_24
REMARK    9  A    between atoms: C_23  and  C_25
REMARK                            x       y       z     vdW  Elec       q    Type
REMARK                         _______ _______ _______ _____ _____    ______ ____
ROOT
ATOM      1  C   LIG A   1      -2.710   6.049 128.545  0.00  0.00    +0.014 C 
ATOM      2  C   LIG A   1      -3.531   5.619 129.784  0.00  0.00    +0.001 C 
ATOM      3  C   LIG A   1      -2.630   4.900 130.816  0.00  0.00    +0.014 C 
ATOM      4  C   LIG A   1      -3.966   6.974 130.416  0.00  0.00    +0.010 C 
ATOM      5  C   LIG A   1      -5.024   6.819 131.483  0.00  0.00    +0.003 C 
ATOM      6  C   LIG A   1      -6.320   6.340 130.860  0.00  0.00    +0.039 C 
ATOM      7  C   LIG A   1      -6.147   5.062 130.056  0.00  0.00    +0.117 C 
ATOM      8  O   LIG A   1      -5.762   5.425 128.697  0.00  0.00    -0.355 OA
ATOM      9  C   LIG A   1      -4.759   4.704 129.407  0.00  0.00    +0.133 C 
ATOM     10  C   LIG A   1      -4.532   3.247 129.036  0.00  0.00    +0.022 C 
ATOM     11  C   LIG A   1      -5.622   2.298 129.310  0.00  0.00    +0.122 C 
ATOM     12  C   LIG A   1      -6.828   2.587 129.823  0.00  0.00    -0.015 C 
ATOM     13  C   LIG A   1      -7.318   3.999 130.086  0.00  0.00    +0.062 C 
ATOM     14  C   LIG A   1      -8.240   4.328 128.898  0.00  0.00    +0.022 C 
ATOM     15  C   LIG A   1      -8.163   4.066 131.450  0.00  0.00    +0.190 C 
ATOM     16  C   LIG A   1      -8.851   2.790 131.974  0.00  0.00    +0.056 C 
ATOM     17  C   LIG A   1      -8.191   1.449 131.631  0.00  0.00    -0.007 C 
ATOM     18  C   LIG A   1      -9.254   0.339 131.817  0.00  0.00    +0.016 C 
ATOM     19  C   LIG A   1      -7.825   1.483 130.129  0.00  0.00    +0.046 C 
ATOM     20  C   LIG A   1      -3.403   2.757 128.481  0.00  0.00    +0.019 C 
ENDROOT
BRANCH  11  21
ATOM     21  O   LIG A   1      -5.379   0.983 128.943  0.00  0.00    -0.506 OA
ATOM     22  H   LIG A   1      -6.025   0.450 129.440  0.00  0.00    +0.292 HD
ENDBRANCH  11  21
BRANCH  17  23
ATOM     23  C   LIG A   1      -6.965   1.200 132.509  0.00  0.00    -0.028 C 
ATOM     24  C   LIG A   1      -6.721   1.726 133.717  0.00  0.00    +0.004 C 
ENDBRANCH  17  23
BRANCH  15  25
ATOM     25  O   LIG A   1      -9.136   5.186 131.394  0.00  0.00    -0.461 OA
BRANCH  25  26
ATOM     26  C   LIG A   1      -9.582   5.844 132.508  0.00  0.00    +0.304 C 
ATOM     27  C   LIG A   1      -8.535   5.824 133.582  0.00  0.00    +0.136 C 
ATOM     28  O   LIG A   1     -10.613   6.541 132.610  0.00  0.00    -0.251 OA
ENDBRANCH  25  26
ENDBRANCH  15  25
TORSDOF 4
ENDMDL
MODEL 9
REMARK VINA RESULT:      -6.9      4.008      7.854
REMARK  Name = NuBBE_2243
REMARK  9 active torsions:
REMARK  status: ('A' for Active; 'I' for Inactive)
REMARK    1  A    between atoms: C_1  and  C_2
REMARK    2  A    between atoms: C_2  and  C_3
REMARK    3  A    between atoms: C_11  and  O_12
REMARK    4  A    between atoms: C_14  and  C_15
REMARK    5  A    between atoms: C_16  and  O_18
REMARK    6  A    between atoms: O_18  and  C_19
REMARK    7  A    between atoms: C_19  and  C_20
REMARK    8  A    between atoms: C_23  and  C_24
REMARK    9  A    between atoms: C_23  and  C_25
REMARK                            x       y       z     vdW  Elec       q    Type
REMARK                         _______ _______ _______ _____ _____    ______ ____
ROOT
ATOM      1  C   LIG A   1      -3.276   6.297 134.113  0.00  0.00    +0.014 C 
ATOM      2  C   LIG A   1      -2.890   5.261 133.030  0.00  0.00    +0.001 C 
ATOM      3  C   LIG A   1      -1.425   5.460 132.578  0.00  0.00    +0.014 C 
ATOM      4  C   LIG A   1      -2.959   3.903 133.791  0.00  0.00    +0.010 C 
ATOM      5  C   LIG A   1      -2.904   2.706 132.872  0.00  0.00    +0.003 C 
ATOM      6  C   LIG A   1      -4.158   2.647 132.024  0.00  0.00    +0.039 C 
ATOM      7  C   LIG A   1      -4.404   3.931 131.250  0.00  0.00    +0.117 C 
ATOM      8  O   LIG A   1      -5.162   4.840 132.102  0.00  0.00    -0.355 OA
ATOM      9  C   LIG A   1      -3.854   5.306 131.783  0.00  0.00    +0.133 C 
ATOM     10  C   LIG A   1      -3.727   6.431 130.767  0.00  0.00    +0.022 C 
ATOM     11  C   LIG A   1      -4.128   6.145 129.382  0.00  0.00    +0.122 C 
ATOM     12  C   LIG A   1      -4.639   4.996 128.914  0.00  0.00    -0.015 C 
ATOM     13  C   LIG A   1      -5.016   3.819 129.795  0.00  0.00    +0.062 C 
ATOM     14  C   LIG A   1      -6.544   3.913 129.954  0.00  0.00    +0.022 C 
ATOM     15  C   LIG A   1      -4.639   2.429 129.085  0.00  0.00    +0.190 C 
ATOM     16  C   LIG A   1      -4.535   2.372 127.548  0.00  0.00    +0.056 C 
ATOM     17  C   LIG A   1      -4.109   3.658 126.829  0.00  0.00    -0.007 C 
ATOM     18  C   LIG A   1      -4.528   3.528 125.344  0.00  0.00    +0.016 C 
ATOM     19  C   LIG A   1      -4.929   4.821 127.434  0.00  0.00    +0.046 C 
ATOM     20  C   LIG A   1      -3.267   7.671 131.040  0.00  0.00    +0.019 C 
ENDROOT
BRANCH  11  21
ATOM     21  O   LIG A   1      -4.011   7.203 128.493  0.00  0.00    -0.506 OA
ATOM     22  H   LIG A   1      -3.134   7.591 128.664  0.00  0.00    +0.292 HD
ENDBRANCH  11  21
BRANCH  17  23
ATOM     23  C   LIG A   1      -2.605   3.891 126.966  0.00  0.00    -0.028 C 
ATOM     24  C   LIG A   1      -1.625   3.043 126.623  0.00  0.00    +0.004 C 
ENDBRANCH  17  23
BRANCH  15  25
ATOM     25  O   LIG A   1      -5.526   1.345 129.578  0.00  0.00    -0.461 OA
BRANCH  25  26
ATOM     26  C   LIG A   1      -5.306   0.021 129.314  0.00  0.00    +0.304 C 
ATOM     27  C   LIG A   1      -4.179  -0.500 130.155  0.00  0.00    +0.136 C 
ATOM     28  O   LIG A   1      -6.023  -0.741 128.632  0.00  0.00    -0.251 OA
ENDBRANCH  25  26
ENDBRANCH  15  25
TORSDOF 4
ENDMDL
