MODEL 1
REMARK VINA RESULT:      -7.5      0.000      0.000
REMARK  Name = NuBBE_1117
REMARK  3 active torsions:
REMARK  status: ('A' for Active; 'I' for Inactive)
REMARK    1  A    between atoms: C_2  and  C_3
REMARK    2  A    between atoms: C_2  and  C_4
REMARK    3  A    between atoms: C_16  and  O_17
REMARK                            x       y       z     vdW  Elec       q    Type
REMARK                         _______ _______ _______ _____ _____    ______ ____
ROOT
ATOM      1  C   LIG A   1     -11.620   7.099 129.539  0.00  0.00    +0.203 C 
ATOM      2  C   LIG A   1     -10.162   7.600 129.513  0.00  0.00    +0.091 C 
ATOM      3  O   LIG A   1     -11.914   6.575 130.865  0.00  0.00    -0.484 OA
ATOM      4  C   LIG A   1     -10.684   6.339 131.415  0.00  0.00    +0.132 A 
ATOM      5  C   LIG A   1      -9.636   6.871 130.689  0.00  0.00    +0.041 A 
ATOM      6  C   LIG A   1      -8.337   6.725 131.143  0.00  0.00    +0.149 A 
ATOM      7  O   LIG A   1      -7.310   7.296 130.373  0.00  0.00    -0.422 OA
ATOM      8  C   LIG A   1      -5.983   7.195 130.760  0.00  0.00    +0.337 A 
ATOM      9  C   LIG A   1      -5.715   6.496 132.027  0.00  0.00    +0.093 A 
ATOM     10  C   LIG A   1      -6.683   5.951 132.770  0.00  0.00    +0.022 A 
ATOM     11  O   LIG A   1      -5.065   7.664 130.096  0.00  0.00    -0.245 OA
ATOM     12  C   LIG A   1      -8.074   6.030 132.330  0.00  0.00    +0.059 A 
ATOM     13  C   LIG A   1      -9.164   5.485 133.039  0.00  0.00    +0.131 A 
ATOM     14  C   LIG A   1     -10.479   5.652 132.593  0.00  0.00    +0.092 A 
ENDROOT
BRANCH   1  16
ATOM     15  C   LIG A   1     -12.776   9.285 129.902  0.00  0.00    +0.011 C 
ATOM     16  C   LIG A   1     -12.642   8.159 129.178  0.00  0.00    -0.040 C 
ATOM     17  C   LIG A   1     -13.494   7.911 127.963  0.00  0.00    +0.042 C 
ENDBRANCH   1  16
BRANCH  13  18
ATOM     18  O   LIG A   1      -9.023   4.766 134.195  0.00  0.00    -0.506 OA
ATOM     19  H   LIG A   1      -9.501   5.211 134.912  0.00  0.00    +0.292 HD
ENDBRANCH  13  18
TORSDOF 2
ENDMDL
MODEL 2
REMARK VINA RESULT:      -6.9      8.936      9.872
REMARK  Name = NuBBE_1117
REMARK  3 active torsions:
REMARK  status: ('A' for Active; 'I' for Inactive)
REMARK    1  A    between atoms: C_2  and  C_3
REMARK    2  A    between atoms: C_2  and  C_4
REMARK    3  A    between atoms: C_16  and  O_17
REMARK                            x       y       z     vdW  Elec       q    Type
REMARK                         _______ _______ _______ _____ _____    ______ ____
ROOT
ATOM      1  C   LIG A   1      -9.037  -1.070 125.101  0.00  0.00    +0.203 C 
ATOM      2  C   LIG A   1      -7.677  -0.451 125.482  0.00  0.00    +0.091 C 
ATOM      3  O   LIG A   1      -9.504  -0.456 123.866  0.00  0.00    -0.484 OA
ATOM      4  C   LIG A   1      -8.784   0.704 123.773  0.00  0.00    +0.132 A 
ATOM      5  C   LIG A   1      -7.742   0.789 124.677  0.00  0.00    +0.041 A 
ATOM      6  C   LIG A   1      -6.919   1.901 124.679  0.00  0.00    +0.149 A 
ATOM      7  O   LIG A   1      -5.867   1.931 125.610  0.00  0.00    -0.422 OA
ATOM      8  C   LIG A   1      -4.998   3.008 125.675  0.00  0.00    +0.337 A 
ATOM      9  C   LIG A   1      -5.211   4.090 124.700  0.00  0.00    +0.093 A 
ATOM     10  C   LIG A   1      -6.206   4.071 123.807  0.00  0.00    +0.022 A 
ATOM     11  O   LIG A   1      -4.087   3.071 126.492  0.00  0.00    -0.245 OA
ATOM     12  C   LIG A   1      -7.140   2.949 123.776  0.00  0.00    +0.059 A 
ATOM     13  C   LIG A   1      -8.220   2.839 122.878  0.00  0.00    +0.131 A 
ATOM     14  C   LIG A   1      -9.039   1.706 122.860  0.00  0.00    +0.092 A 
ENDROOT
BRANCH   1  16
ATOM     15  C   LIG A   1      -8.677  -3.393 125.950  0.00  0.00    +0.011 C 
ATOM     16  C   LIG A   1      -9.002  -2.576 124.932  0.00  0.00    -0.040 C 
ATOM     17  C   LIG A   1      -9.364  -3.128 123.579  0.00  0.00    +0.042 C 
ENDBRANCH   1  16
BRANCH  13  18
ATOM     18  O   LIG A   1      -8.545   3.811 121.971  0.00  0.00    -0.506 OA
ATOM     19  H   LIG A   1      -8.917   3.399 121.176  0.00  0.00    +0.292 HD
ENDBRANCH  13  18
TORSDOF 2
ENDMDL
MODEL 3
REMARK VINA RESULT:      -6.8      2.347      2.966
REMARK  Name = NuBBE_1117
REMARK  3 active torsions:
REMARK  status: ('A' for Active; 'I' for Inactive)
REMARK    1  A    between atoms: C_2  and  C_3
REMARK    2  A    between atoms: C_2  and  C_4
REMARK    3  A    between atoms: C_16  and  O_17
REMARK                            x       y       z     vdW  Elec       q    Type
REMARK                         _______ _______ _______ _____ _____    ______ ____
ROOT
ATOM      1  C   LIG A   1     -11.277   6.767 129.584  0.00  0.00    +0.203 C 
ATOM      2  C   LIG A   1     -10.678   7.004 130.984  0.00  0.00    +0.091 C 
ATOM      3  O   LIG A   1     -11.610   5.357 129.447  0.00  0.00    -0.484 OA
ATOM      4  C   LIG A   1     -10.876   4.741 130.423  0.00  0.00    +0.132 A 
ATOM      5  C   LIG A   1     -10.295   5.615 131.321  0.00  0.00    +0.041 A 
ATOM      6  C   LIG A   1      -9.542   5.125 132.373  0.00  0.00    +0.149 A 
ATOM      7  O   LIG A   1      -8.984   6.057 133.265  0.00  0.00    -0.422 OA
ATOM      8  C   LIG A   1      -8.218   5.647 134.345  0.00  0.00    +0.337 A 
ATOM      9  C   LIG A   1      -8.053   4.195 134.525  0.00  0.00    +0.093 A 
ATOM     10  C   LIG A   1      -8.581   3.299 133.686  0.00  0.00    +0.022 A 
ATOM     11  O   LIG A   1      -7.701   6.438 135.124  0.00  0.00    -0.245 OA
ATOM     12  C   LIG A   1      -9.353   3.746 132.529  0.00  0.00    +0.059 A 
ATOM     13  C   LIG A   1      -9.945   2.881 131.587  0.00  0.00    +0.131 A 
ATOM     14  C   LIG A   1     -10.725   3.374 130.536  0.00  0.00    +0.092 A 
ENDROOT
BRANCH   1  16
ATOM     15  C   LIG A   1     -12.673   8.825 129.830  0.00  0.00    +0.011 C 
ATOM     16  C   LIG A   1     -12.505   7.605 129.289  0.00  0.00    -0.040 C 
ATOM     17  C   LIG A   1     -13.527   7.025 128.349  0.00  0.00    +0.042 C 
ENDBRANCH   1  16
BRANCH  13  18
ATOM     18  O   LIG A   1      -9.806   1.520 131.625  0.00  0.00    -0.506 OA
ATOM     19  H   LIG A   1      -9.746   1.177 130.720  0.00  0.00    +0.292 HD
ENDBRANCH  13  18
TORSDOF 2
ENDMDL
MODEL 4
REMARK VINA RESULT:      -6.7      2.081      6.059
REMARK  Name = NuBBE_1117
REMARK  3 active torsions:
REMARK  status: ('A' for Active; 'I' for Inactive)
REMARK    1  A    between atoms: C_2  and  C_3
REMARK    2  A    between atoms: C_2  and  C_4
REMARK    3  A    between atoms: C_16  and  O_17
REMARK                            x       y       z     vdW  Elec       q    Type
REMARK                         _______ _______ _______ _____ _____    ______ ____
ROOT
ATOM      1  C   LIG A   1      -3.909   6.796 131.859  0.00  0.00    +0.203 C 
ATOM      2  C   LIG A   1      -5.085   6.941 130.872  0.00  0.00    +0.091 C 
ATOM      3  O   LIG A   1      -4.312   5.915 132.945  0.00  0.00    -0.484 OA
ATOM      4  C   LIG A   1      -5.679   5.917 132.891  0.00  0.00    +0.132 A 
ATOM      5  C   LIG A   1      -6.193   6.506 131.752  0.00  0.00    +0.041 A 
ATOM      6  C   LIG A   1      -7.562   6.557 131.559  0.00  0.00    +0.149 A 
ATOM      7  O   LIG A   1      -8.030   7.156 130.377  0.00  0.00    -0.422 OA
ATOM      8  C   LIG A   1      -9.387   7.246 130.107  0.00  0.00    +0.337 A 
ATOM      9  C   LIG A   1     -10.299   6.653 131.099  0.00  0.00    +0.093 A 
ATOM     10  C   LIG A   1      -9.865   6.079 132.226  0.00  0.00    +0.022 A 
ATOM     11  O   LIG A   1      -9.824   7.783 129.096  0.00  0.00    -0.245 OA
ATOM     12  C   LIG A   1      -8.434   6.026 132.516  0.00  0.00    +0.059 A 
ATOM     13  C   LIG A   1      -7.880   5.446 133.675  0.00  0.00    +0.131 A 
ATOM     14  C   LIG A   1      -6.496   5.374 133.862  0.00  0.00    +0.092 A 
ENDROOT
BRANCH   1  16
ATOM     15  C   LIG A   1      -1.724   5.584 131.942  0.00  0.00    +0.011 C 
ATOM     16  C   LIG A   1      -2.637   6.265 131.226  0.00  0.00    -0.040 C 
ATOM     17  C   LIG A   1      -2.441   6.515 129.756  0.00  0.00    +0.042 C 
ENDBRANCH   1  16
BRANCH  13  18
ATOM     18  O   LIG A   1      -8.636   4.921 134.688  0.00  0.00    -0.506 OA
ATOM     19  H   LIG A   1      -8.063   4.427 135.294  0.00  0.00    +0.292 HD
ENDBRANCH  13  18
TORSDOF 2
ENDMDL
MODEL 5
REMARK VINA RESULT:      -6.6      7.551      9.568
REMARK  Name = NuBBE_1117
REMARK  3 active torsions:
REMARK  status: ('A' for Active; 'I' for Inactive)
REMARK    1  A    between atoms: C_2  and  C_3
REMARK    2  A    between atoms: C_2  and  C_4
REMARK    3  A    between atoms: C_16  and  O_17
REMARK                            x       y       z     vdW  Elec       q    Type
REMARK                         _______ _______ _______ _____ _____    ______ ____
ROOT
ATOM      1  C   LIG A   1      -4.602   4.117 126.598  0.00  0.00    +0.203 C 
ATOM      2  C   LIG A   1      -4.479   4.068 125.062  0.00  0.00    +0.091 C 
ATOM      3  O   LIG A   1      -5.785   3.371 126.999  0.00  0.00    -0.484 OA
ATOM      4  C   LIG A   1      -6.540   3.296 125.860  0.00  0.00    +0.132 A 
ATOM      5  C   LIG A   1      -5.872   3.700 124.720  0.00  0.00    +0.041 A 
ATOM      6  C   LIG A   1      -6.510   3.656 123.494  0.00  0.00    +0.149 A 
ATOM      7  O   LIG A   1      -5.781   4.066 122.364  0.00  0.00    -0.422 OA
ATOM      8  C   LIG A   1      -6.348   4.051 121.100  0.00  0.00    +0.337 A 
ATOM      9  C   LIG A   1      -7.729   3.551 121.001  0.00  0.00    +0.093 A 
ATOM     10  C   LIG A   1      -8.432   3.156 122.067  0.00  0.00    +0.022 A 
ATOM     11  O   LIG A   1      -5.743   4.424 120.102  0.00  0.00    -0.245 OA
ATOM     12  C   LIG A   1      -7.836   3.215 123.399  0.00  0.00    +0.059 A 
ATOM     13  C   LIG A   1      -8.495   2.825 124.582  0.00  0.00    +0.131 A 
ATOM     14  C   LIG A   1      -7.844   2.848 125.820  0.00  0.00    +0.092 A 
ENDROOT
BRANCH   1  16
ATOM     15  C   LIG A   1      -2.327   3.084 126.666  0.00  0.00    +0.011 C 
ATOM     16  C   LIG A   1      -3.391   3.571 127.329  0.00  0.00    -0.040 C 
ATOM     17  C   LIG A   1      -3.417   3.611 128.833  0.00  0.00    +0.042 C 
ENDBRANCH   1  16
BRANCH  13  18
ATOM     18  O   LIG A   1      -9.797   2.403 124.613  0.00  0.00    -0.506 OA
ATOM     19  H   LIG A   1     -10.324   3.022 125.140  0.00  0.00    +0.292 HD
ENDBRANCH  13  18
TORSDOF 2
ENDMDL
MODEL 6
REMARK VINA RESULT:      -6.4      9.161     10.517
REMARK  Name = NuBBE_1117
REMARK  3 active torsions:
REMARK  status: ('A' for Active; 'I' for Inactive)
REMARK    1  A    between atoms: C_2  and  C_3
REMARK    2  A    between atoms: C_2  and  C_4
REMARK    3  A    between atoms: C_16  and  O_17
REMARK                            x       y       z     vdW  Elec       q    Type
REMARK                         _______ _______ _______ _____ _____    ______ ____
ROOT
ATOM      1  C   LIG A   1      -7.554  -2.628 127.171  0.00  0.00    +0.203 C 
ATOM      2  C   LIG A   1      -8.658  -2.060 126.256  0.00  0.00    +0.091 C 
ATOM      3  O   LIG A   1      -6.663  -1.545 127.561  0.00  0.00    -0.484 OA
ATOM      4  C   LIG A   1      -6.897  -0.565 126.635  0.00  0.00    +0.132 A 
ATOM      5  C   LIG A   1      -8.002  -0.801 125.839  0.00  0.00    +0.041 A 
ATOM      6  C   LIG A   1      -8.366   0.120 124.873  0.00  0.00    +0.149 A 
ATOM      7  O   LIG A   1      -9.505  -0.162 124.100  0.00  0.00    -0.422 OA
ATOM      8  C   LIG A   1      -9.936   0.710 123.113  0.00  0.00    +0.337 A 
ATOM      9  C   LIG A   1      -9.166   1.953 122.947  0.00  0.00    +0.093 A 
ATOM     10  C   LIG A   1      -8.083   2.235 123.678  0.00  0.00    +0.022 A 
ATOM     11  O   LIG A   1     -10.912   0.478 122.410  0.00  0.00    -0.245 OA
ATOM     12  C   LIG A   1      -7.615   1.288 124.687  0.00  0.00    +0.059 A 
ATOM     13  C   LIG A   1      -6.485   1.492 125.504  0.00  0.00    +0.131 A 
ATOM     14  C   LIG A   1      -6.129   0.572 126.496  0.00  0.00    +0.092 A 
ENDROOT
BRANCH   1  16
ATOM     15  C   LIG A   1      -7.459  -3.205 129.600  0.00  0.00    +0.011 C 
ATOM     16  C   LIG A   1      -8.079  -3.320 128.413  0.00  0.00    -0.040 C 
ATOM     17  C   LIG A   1      -9.339  -4.131 128.271  0.00  0.00    +0.042 C 
ENDBRANCH   1  16
BRANCH  13  18
ATOM     18  O   LIG A   1      -5.665   2.582 125.394  0.00  0.00    -0.506 OA
ATOM     19  H   LIG A   1      -6.081   3.343 125.825  0.00  0.00    +0.292 HD
ENDBRANCH  13  18
TORSDOF 2
ENDMDL
MODEL 7
REMARK VINA RESULT:      -6.4      9.731     10.900
REMARK  Name = NuBBE_1117
REMARK  3 active torsions:
REMARK  status: ('A' for Active; 'I' for Inactive)
REMARK    1  A    between atoms: C_2  and  C_3
REMARK    2  A    between atoms: C_2  and  C_4
REMARK    3  A    between atoms: C_16  and  O_17
REMARK                            x       y       z     vdW  Elec       q    Type
REMARK                         _______ _______ _______ _____ _____    ______ ____
ROOT
ATOM      1  C   LIG A   1      -7.993  -2.544 129.435  0.00  0.00    +0.203 C 
ATOM      2  C   LIG A   1      -7.216  -1.521 128.583  0.00  0.00    +0.091 C 
ATOM      3  O   LIG A   1      -8.594  -3.533 128.552  0.00  0.00    -0.484 OA
ATOM      4  C   LIG A   1      -8.597  -2.930 127.323  0.00  0.00    +0.132 A 
ATOM      5  C   LIG A   1      -7.854  -1.766 127.270  0.00  0.00    +0.041 A 
ATOM      6  C   LIG A   1      -7.754  -1.065 126.082  0.00  0.00    +0.149 A 
ATOM      7  O   LIG A   1      -6.975   0.105 126.079  0.00  0.00    -0.422 OA
ATOM      8  C   LIG A   1      -6.823   0.864 124.929  0.00  0.00    +0.337 A 
ATOM      9  C   LIG A   1      -7.485   0.361 123.714  0.00  0.00    +0.093 A 
ATOM     10  C   LIG A   1      -8.226  -0.751 123.703  0.00  0.00    +0.022 A 
ATOM     11  O   LIG A   1      -6.169   1.899 124.905  0.00  0.00    -0.245 OA
ATOM     12  C   LIG A   1      -8.411  -1.519 124.931  0.00  0.00    +0.059 A 
ATOM     13  C   LIG A   1      -9.174  -2.701 125.022  0.00  0.00    +0.131 A 
ATOM     14  C   LIG A   1      -9.258  -3.423 126.217  0.00  0.00    +0.092 A 
ENDROOT
BRANCH   1  16
ATOM     15  C   LIG A   1      -6.224  -4.167 130.132  0.00  0.00    +0.011 C 
ATOM     16  C   LIG A   1      -7.145  -3.249 130.476  0.00  0.00    -0.040 C 
ATOM     17  C   LIG A   1      -7.361  -2.867 131.915  0.00  0.00    +0.042 C 
ENDBRANCH   1  16
BRANCH  13  18
ATOM     18  O   LIG A   1      -9.878  -3.223 123.971  0.00  0.00    -0.506 OA
ATOM     19  H   LIG A   1     -10.691  -3.636 124.302  0.00  0.00    +0.292 HD
ENDBRANCH  13  18
TORSDOF 2
ENDMDL
MODEL 8
REMARK VINA RESULT:      -6.3      9.850     10.524
REMARK  Name = NuBBE_1117
REMARK  3 active torsions:
REMARK  status: ('A' for Active; 'I' for Inactive)
REMARK    1  A    between atoms: C_2  and  C_3
REMARK    2  A    between atoms: C_2  and  C_4
REMARK    3  A    between atoms: C_16  and  O_17
REMARK                            x       y       z     vdW  Elec       q    Type
REMARK                         _______ _______ _______ _____ _____    ______ ____
ROOT
ATOM      1  C   LIG A   1      -6.849   1.298 123.726  0.00  0.00    +0.203 C 
ATOM      2  C   LIG A   1      -6.945   0.834 125.194  0.00  0.00    +0.091 C 
ATOM      3  O   LIG A   1      -7.868   0.609 122.948  0.00  0.00    -0.484 OA
ATOM      4  C   LIG A   1      -8.207  -0.472 123.717  0.00  0.00    +0.132 A 
ATOM      5  C   LIG A   1      -7.697  -0.425 125.001  0.00  0.00    +0.041 A 
ATOM      6  C   LIG A   1      -7.981  -1.444 125.892  0.00  0.00    +0.149 A 
ATOM      7  O   LIG A   1      -7.448  -1.342 127.189  0.00  0.00    -0.422 OA
ATOM      8  C   LIG A   1      -7.686  -2.320 128.142  0.00  0.00    +0.337 A 
ATOM      9  C   LIG A   1      -8.549  -3.441 127.736  0.00  0.00    +0.093 A 
ATOM     10  C   LIG A   1      -9.064  -3.549 126.507  0.00  0.00    +0.022 A 
ATOM     11  O   LIG A   1      -7.216  -2.267 129.272  0.00  0.00    -0.245 OA
ATOM     12  C   LIG A   1      -8.772  -2.532 125.500  0.00  0.00    +0.059 A 
ATOM     13  C   LIG A   1      -9.263  -2.557 124.180  0.00  0.00    +0.131 A 
ATOM     14  C   LIG A   1      -8.996  -1.517 123.284  0.00  0.00    +0.092 A 
ENDROOT
BRANCH   1  16
ATOM     15  C   LIG A   1      -7.662   3.552 124.438  0.00  0.00    +0.011 C 
ATOM     16  C   LIG A   1      -7.003   2.795 123.542  0.00  0.00    -0.040 C 
ATOM     17  C   LIG A   1      -6.372   3.409 122.322  0.00  0.00    +0.042 C 
ENDBRANCH   1  16
BRANCH  13  18
ATOM     18  O   LIG A   1     -10.023  -3.580 123.680  0.00  0.00    -0.506 OA
ATOM     19  H   LIG A   1     -10.206  -3.417 122.743  0.00  0.00    +0.292 HD
ENDBRANCH  13  18
TORSDOF 2
ENDMDL
MODEL 9
REMARK VINA RESULT:      -6.0      2.450      2.532
REMARK  Name = NuBBE_1117
REMARK  3 active torsions:
REMARK  status: ('A' for Active; 'I' for Inactive)
REMARK    1  A    between atoms: C_2  and  C_3
REMARK    2  A    between atoms: C_2  and  C_4
REMARK    3  A    between atoms: C_16  and  O_17
REMARK                            x       y       z     vdW  Elec       q    Type
REMARK                         _______ _______ _______ _____ _____    ______ ____
ROOT
ATOM      1  C   LIG A   1     -11.400   6.591 129.524  0.00  0.00    +0.203 C 
ATOM      2  C   LIG A   1      -9.879   6.818 129.639  0.00  0.00    +0.091 C 
ATOM      3  O   LIG A   1     -11.744   5.353 130.207  0.00  0.00    -0.484 OA
ATOM      4  C   LIG A   1     -10.557   4.677 130.297  0.00  0.00    +0.132 A 
ATOM      5  C   LIG A   1      -9.453   5.439 129.965  0.00  0.00    +0.041 A 
ATOM      6  C   LIG A   1      -8.188   4.885 130.034  0.00  0.00    +0.149 A 
ATOM      7  O   LIG A   1      -7.098   5.708 129.698  0.00  0.00    -0.422 OA
ATOM      8  C   LIG A   1      -5.798   5.230 129.742  0.00  0.00    +0.337 A 
ATOM      9  C   LIG A   1      -5.620   3.839 130.191  0.00  0.00    +0.093 A 
ATOM     10  C   LIG A   1      -6.647   3.048 130.515  0.00  0.00    +0.022 A 
ATOM     11  O   LIG A   1      -4.832   5.917 129.433  0.00  0.00    -0.245 OA
ATOM     12  C   LIG A   1      -8.015   3.552 130.426  0.00  0.00    +0.059 A 
ATOM     13  C   LIG A   1      -9.162   2.797 130.742  0.00  0.00    +0.131 A 
ATOM     14  C   LIG A   1     -10.441   3.361 130.695  0.00  0.00    +0.092 A 
ENDROOT
BRANCH   1  16
ATOM     15  C   LIG A   1     -12.407   8.876 129.413  0.00  0.00    +0.011 C 
ATOM     16  C   LIG A   1     -12.235   7.725 130.087  0.00  0.00    -0.040 C 
ATOM     17  C   LIG A   1     -12.883   7.505 131.427  0.00  0.00    +0.042 C 
ENDBRANCH   1  16
BRANCH  13  18
ATOM     18  O   LIG A   1      -9.116   1.480 131.112  0.00  0.00    -0.506 OA
ATOM     19  H   LIG A   1      -8.510   1.002 130.526  0.00  0.00    +0.292 HD
ENDBRANCH  13  18
TORSDOF 2
ENDMDL
