MODEL 1
REMARK VINA RESULT:      -8.0      0.000      0.000
REMARK  Name = NuBBE_1566
REMARK  17 active torsions:
REMARK  status: ('A' for Active; 'I' for Inactive)
REMARK    1  A    between atoms: C_4  and  C_5
REMARK    2  A    between atoms: C_5  and  C_6
REMARK    3  A    between atoms: C_6  and  C_7
REMARK    4  A    between atoms: C_7  and  C_8
REMARK    5  A    between atoms: C_8  and  C_9
REMARK    6  A    between atoms: C_9  and  C_10
REMARK    7  A    between atoms: C_10  and  C_11
REMARK    8  A    between atoms: C_11  and  C_12
REMARK    9  A    between atoms: C_12  and  C_13
REMARK   10  A    between atoms: C_13  and  C_14
REMARK   11  A    between atoms: C_14  and  C_15
REMARK   12  A    between atoms: C_15  and  C_16
REMARK   13  A    between atoms: C_16  and  C_17
REMARK   14  A    between atoms: C_17  and  C_18
REMARK   15  A    between atoms: C_18  and  C_19
REMARK   16  A    between atoms: C_19  and  C_20
REMARK   17  A    between atoms: C_21  and  C_22
REMARK                            x       y       z     vdW  Elec       q    Type
REMARK                         _______ _______ _______ _____ _____    ______ ____
ROOT
ATOM      1  O   LIG A   1      -8.236   2.953 127.512  0.00  0.00    -0.287 OA
ATOM      2  C   LIG A   1      -7.281   2.929 126.689  0.00  0.00    +0.200 A 
ATOM      3  C   LIG A   1      -7.501   2.630 125.276  0.00  0.00    +0.083 A 
ATOM      4  C   LIG A   1      -8.882   2.242 124.820  0.00  0.00    +0.211 C 
ATOM      5  C   LIG A   1      -6.494   2.905 124.434  0.00  0.00    +0.149 A 
ATOM      6  C   LIG A   1      -6.838   3.028 123.016  0.00  0.00    +0.059 A 
ATOM      7  C   LIG A   1      -5.889   3.286 122.011  0.00  0.00    +0.015 A 
ATOM      8  C   LIG A   1      -6.294   3.641 120.719  0.00  0.00    +0.001 A 
ATOM      9  C   LIG A   1      -7.643   3.798 120.438  0.00  0.00    +0.004 A 
ATOM     10  C   LIG A   1      -8.577   3.576 121.446  0.00  0.00    +0.046 A 
ATOM     11  C   LIG A   1      -8.189   3.114 122.695  0.00  0.00    +0.132 A 
ATOM     12  O   LIG A   1      -9.210   2.838 123.558  0.00  0.00    -0.483 OA
ATOM     13  O   LIG A   1      -5.221   3.289 124.796  0.00  0.00    -0.454 OA
ATOM     14  C   LIG A   1      -4.954   3.444 126.126  0.00  0.00    +0.139 A 
ATOM     15  C   LIG A   1      -3.668   3.834 126.495  0.00  0.00    +0.047 A 
ATOM     16  C   LIG A   1      -3.367   4.060 127.840  0.00  0.00    +0.004 A 
ATOM     17  C   LIG A   1      -4.351   3.884 128.820  0.00  0.00    +0.001 A 
ATOM     18  C   LIG A   1      -5.632   3.489 128.458  0.00  0.00    +0.015 A 
ATOM     19  C   LIG A   1      -5.931   3.281 127.113  0.00  0.00    +0.064 A 
ENDROOT
BRANCH   4  20
ATOM     20  C   LIG A   1      -9.077   0.702 124.804  0.00  0.00    +0.050 C 
BRANCH  20  21
ATOM     21  C   LIG A   1      -9.164   0.050 123.408  0.00  0.00    +0.004 C 
BRANCH  21  22
ATOM     22  C   LIG A   1      -8.363  -1.247 123.189  0.00  0.00    +0.000 C 
BRANCH  22  23
ATOM     23  C   LIG A   1      -9.257  -2.460 122.906  0.00  0.00    -0.000 C 
BRANCH  23  24
ATOM     24  C   LIG A   1      -9.239  -3.553 123.987  0.00  0.00    -0.000 C 
BRANCH  24  25
ATOM     25  C   LIG A   1      -8.415  -3.213 125.220  0.00  0.00    -0.000 C 
BRANCH  25  26
ATOM     26  C   LIG A   1      -9.195  -2.955 126.492  0.00  0.00    -0.000 C 
BRANCH  26  27
ATOM     27  C   LIG A   1      -8.873  -3.870 127.662  0.00  0.00    -0.000 C 
BRANCH  27  28
ATOM     28  C   LIG A   1      -8.358  -3.171 128.934  0.00  0.00    -0.000 C 
BRANCH  28  29
ATOM     29  C   LIG A   1      -7.069  -3.725 129.571  0.00  0.00    -0.000 C 
BRANCH  29  30
ATOM     30  C   LIG A   1      -5.969  -2.689 129.792  0.00  0.00    -0.000 C 
BRANCH  30  31
ATOM     31  C   LIG A   1      -6.087  -1.421 128.966  0.00  0.00    +0.000 C 
BRANCH  31  32
ATOM     32  C   LIG A   1      -5.579  -1.614 127.522  0.00  0.00    +0.000 C 
BRANCH  32  33
ATOM     33  C   LIG A   1      -5.732  -0.437 126.532  0.00  0.00    +0.004 C 
BRANCH  33  34
ATOM     34  C   LIG A   1      -5.530  -0.783 125.048  0.00  0.00    +0.027 C 
BRANCH  34  35
ATOM     35  C   LIG A   1      -4.861  -2.105 124.797  0.00  0.00    -0.031 C 
ATOM     36  C   LIG A   1      -5.135  -2.885 123.739  0.00  0.00    -0.034 C 
ATOM     37  C   LIG A   1      -4.564  -4.250 123.536  0.00  0.00    +0.035 C 
ENDBRANCH  34  35
ENDBRANCH  33  34
ENDBRANCH  32  33
ENDBRANCH  31  32
ENDBRANCH  30  31
ENDBRANCH  29  30
ENDBRANCH  28  29
ENDBRANCH  27  28
ENDBRANCH  26  27
ENDBRANCH  25  26
ENDBRANCH  24  25
ENDBRANCH  23  24
ENDBRANCH  22  23
ENDBRANCH  21  22
ENDBRANCH  20  21
ENDBRANCH   4  20
TORSDOF 16
ENDMDL
MODEL 2
REMARK VINA RESULT:      -7.4      1.424      2.729
REMARK  Name = NuBBE_1566
REMARK  17 active torsions:
REMARK  status: ('A' for Active; 'I' for Inactive)
REMARK    1  A    between atoms: C_4  and  C_5
REMARK    2  A    between atoms: C_5  and  C_6
REMARK    3  A    between atoms: C_6  and  C_7
REMARK    4  A    between atoms: C_7  and  C_8
REMARK    5  A    between atoms: C_8  and  C_9
REMARK    6  A    between atoms: C_9  and  C_10
REMARK    7  A    between atoms: C_10  and  C_11
REMARK    8  A    between atoms: C_11  and  C_12
REMARK    9  A    between atoms: C_12  and  C_13
REMARK   10  A    between atoms: C_13  and  C_14
REMARK   11  A    between atoms: C_14  and  C_15
REMARK   12  A    between atoms: C_15  and  C_16
REMARK   13  A    between atoms: C_16  and  C_17
REMARK   14  A    between atoms: C_17  and  C_18
REMARK   15  A    between atoms: C_18  and  C_19
REMARK   16  A    between atoms: C_19  and  C_20
REMARK   17  A    between atoms: C_21  and  C_22
REMARK                            x       y       z     vdW  Elec       q    Type
REMARK                         _______ _______ _______ _____ _____    ______ ____
ROOT
ATOM      1  O   LIG A   1      -8.552   2.567 126.640  0.00  0.00    -0.287 OA
ATOM      2  C   LIG A   1      -7.567   2.731 125.871  0.00  0.00    +0.200 A 
ATOM      3  C   LIG A   1      -7.691   2.555 124.427  0.00  0.00    +0.083 A 
ATOM      4  C   LIG A   1      -8.999   2.067 123.861  0.00  0.00    +0.211 C 
ATOM      5  C   LIG A   1      -6.687   3.022 123.670  0.00  0.00    +0.149 A 
ATOM      6  C   LIG A   1      -6.981   3.250 122.254  0.00  0.00    +0.059 A 
ATOM      7  C   LIG A   1      -6.026   3.710 121.331  0.00  0.00    +0.015 A 
ATOM      8  C   LIG A   1      -6.413   4.149 120.059  0.00  0.00    +0.001 A 
ATOM      9  C   LIG A   1      -7.758   4.186 119.723  0.00  0.00    +0.004 A 
ATOM     10  C   LIG A   1      -8.703   3.762 120.653  0.00  0.00    +0.046 A 
ATOM     11  C   LIG A   1      -8.319   3.221 121.870  0.00  0.00    +0.132 A 
ATOM     12  O   LIG A   1      -9.338   2.749 122.647  0.00  0.00    -0.483 OA
ATOM     13  O   LIG A   1      -5.482   3.503 124.135  0.00  0.00    -0.454 OA
ATOM     14  C   LIG A   1      -5.292   3.550 125.486  0.00  0.00    +0.139 A 
ATOM     15  C   LIG A   1      -4.075   4.038 125.960  0.00  0.00    +0.047 A 
ATOM     16  C   LIG A   1      -3.859   4.158 127.335  0.00  0.00    +0.004 A 
ATOM     17  C   LIG A   1      -4.858   3.778 128.239  0.00  0.00    +0.001 A 
ATOM     18  C   LIG A   1      -6.069   3.285 127.772  0.00  0.00    +0.015 A 
ATOM     19  C   LIG A   1      -6.285   3.182 126.399  0.00  0.00    +0.064 A 
ENDROOT
BRANCH   4  20
ATOM     20  C   LIG A   1      -9.016   0.525 123.688  0.00  0.00    +0.050 C 
BRANCH  20  21
ATOM     21  C   LIG A   1      -7.642  -0.140 123.456  0.00  0.00    +0.004 C 
BRANCH  21  22
ATOM     22  C   LIG A   1      -7.644  -1.603 122.976  0.00  0.00    +0.000 C 
BRANCH  22  23
ATOM     23  C   LIG A   1      -8.984  -2.308 123.213  0.00  0.00    -0.000 C 
BRANCH  23  24
ATOM     24  C   LIG A   1      -8.985  -3.350 124.343  0.00  0.00    -0.000 C 
BRANCH  24  25
ATOM     25  C   LIG A   1      -9.514  -2.838 125.676  0.00  0.00    -0.000 C 
BRANCH  25  26
ATOM     26  C   LIG A   1      -8.616  -3.055 126.876  0.00  0.00    -0.000 C 
BRANCH  26  27
ATOM     27  C   LIG A   1      -7.247  -2.397 126.805  0.00  0.00    -0.000 C 
BRANCH  27  28
ATOM     28  C   LIG A   1      -7.241  -0.859 126.893  0.00  0.00    -0.000 C 
BRANCH  28  29
ATOM     29  C   LIG A   1      -7.157  -0.232 128.298  0.00  0.00    -0.000 C 
BRANCH  29  30
ATOM     30  C   LIG A   1      -6.853  -1.220 129.422  0.00  0.00    -0.000 C 
BRANCH  30  31
ATOM     31  C   LIG A   1      -7.967  -1.424 130.433  0.00  0.00    +0.000 C 
BRANCH  31  32
ATOM     32  C   LIG A   1      -7.708  -2.636 131.351  0.00  0.00    +0.000 C 
BRANCH  32  33
ATOM     33  C   LIG A   1      -6.686  -3.699 130.885  0.00  0.00    +0.004 C 
BRANCH  33  34
ATOM     34  C   LIG A   1      -5.432  -3.847 131.760  0.00  0.00    +0.027 C 
BRANCH  34  35
ATOM     35  C   LIG A   1      -4.131  -3.748 131.016  0.00  0.00    -0.031 C 
ATOM     36  C   LIG A   1      -4.045  -3.677 129.677  0.00  0.00    -0.034 C 
ATOM     37  C   LIG A   1      -2.759  -3.695 128.919  0.00  0.00    +0.035 C 
ENDBRANCH  34  35
ENDBRANCH  33  34
ENDBRANCH  32  33
ENDBRANCH  31  32
ENDBRANCH  30  31
ENDBRANCH  29  30
ENDBRANCH  28  29
ENDBRANCH  27  28
ENDBRANCH  26  27
ENDBRANCH  25  26
ENDBRANCH  24  25
ENDBRANCH  23  24
ENDBRANCH  22  23
ENDBRANCH  21  22
ENDBRANCH  20  21
ENDBRANCH   4  20
TORSDOF 16
ENDMDL
MODEL 3
REMARK VINA RESULT:      -7.4      2.279      5.353
REMARK  Name = NuBBE_1566
REMARK  17 active torsions:
REMARK  status: ('A' for Active; 'I' for Inactive)
REMARK    1  A    between atoms: C_4  and  C_5
REMARK    2  A    between atoms: C_5  and  C_6
REMARK    3  A    between atoms: C_6  and  C_7
REMARK    4  A    between atoms: C_7  and  C_8
REMARK    5  A    between atoms: C_8  and  C_9
REMARK    6  A    between atoms: C_9  and  C_10
REMARK    7  A    between atoms: C_10  and  C_11
REMARK    8  A    between atoms: C_11  and  C_12
REMARK    9  A    between atoms: C_12  and  C_13
REMARK   10  A    between atoms: C_13  and  C_14
REMARK   11  A    between atoms: C_14  and  C_15
REMARK   12  A    between atoms: C_15  and  C_16
REMARK   13  A    between atoms: C_16  and  C_17
REMARK   14  A    between atoms: C_17  and  C_18
REMARK   15  A    between atoms: C_18  and  C_19
REMARK   16  A    between atoms: C_19  and  C_20
REMARK   17  A    between atoms: C_21  and  C_22
REMARK                            x       y       z     vdW  Elec       q    Type
REMARK                         _______ _______ _______ _____ _____    ______ ____
ROOT
ATOM      1  O   LIG A   1      -8.497   3.464 127.771  0.00  0.00    -0.287 OA
ATOM      2  C   LIG A   1      -7.588   3.332 128.635  0.00  0.00    +0.200 A 
ATOM      3  C   LIG A   1      -6.213   3.739 128.360  0.00  0.00    +0.083 A 
ATOM      4  C   LIG A   1      -5.859   4.230 126.981  0.00  0.00    +0.211 C 
ATOM      5  C   LIG A   1      -5.385   3.830 129.411  0.00  0.00    +0.149 A 
ATOM      6  C   LIG A   1      -4.175   4.634 129.229  0.00  0.00    +0.059 A 
ATOM      7  C   LIG A   1      -3.201   4.801 130.228  0.00  0.00    +0.015 A 
ATOM      8  C   LIG A   1      -2.199   5.771 130.097  0.00  0.00    +0.001 A 
ATOM      9  C   LIG A   1      -2.199   6.616 128.997  0.00  0.00    +0.004 A 
ATOM     10  C   LIG A   1      -3.188   6.470 128.027  0.00  0.00    +0.046 A 
ATOM     11  C   LIG A   1      -4.112   5.440 128.095  0.00  0.00    +0.132 A 
ATOM     12  O   LIG A   1      -4.961   5.346 127.030  0.00  0.00    -0.483 OA
ATOM     13  O   LIG A   1      -5.666   3.421 130.697  0.00  0.00    -0.454 OA
ATOM     14  C   LIG A   1      -6.906   2.909 130.948  0.00  0.00    +0.139 A 
ATOM     15  C   LIG A   1      -7.194   2.497 132.247  0.00  0.00    +0.047 A 
ATOM     16  C   LIG A   1      -8.470   2.021 132.562  0.00  0.00    +0.004 A 
ATOM     17  C   LIG A   1      -9.456   1.946 131.571  0.00  0.00    +0.001 A 
ATOM     18  C   LIG A   1      -9.171   2.349 130.273  0.00  0.00    +0.015 A 
ATOM     19  C   LIG A   1      -7.903   2.838 129.969  0.00  0.00    +0.064 A 
ENDROOT
BRANCH   4  20
ATOM     20  C   LIG A   1      -5.320   3.088 126.079  0.00  0.00    +0.050 C 
BRANCH  20  21
ATOM     21  C   LIG A   1      -6.360   2.407 125.164  0.00  0.00    +0.004 C 
BRANCH  21  22
ATOM     22  C   LIG A   1      -6.904   1.039 125.618  0.00  0.00    +0.000 C 
BRANCH  22  23
ATOM     23  C   LIG A   1      -5.819  -0.041 125.689  0.00  0.00    -0.000 C 
BRANCH  23  24
ATOM     24  C   LIG A   1      -5.536  -0.595 127.095  0.00  0.00    -0.000 C 
BRANCH  24  25
ATOM     25  C   LIG A   1      -6.325   0.076 128.210  0.00  0.00    -0.000 C 
BRANCH  25  26
ATOM     26  C   LIG A   1      -6.379  -0.669 129.528  0.00  0.00    -0.000 C 
BRANCH  26  27
ATOM     27  C   LIG A   1      -7.767  -1.063 130.008  0.00  0.00    -0.000 C 
BRANCH  27  28
ATOM     28  C   LIG A   1      -8.087  -2.569 129.958  0.00  0.00    -0.000 C 
BRANCH  28  29
ATOM     29  C   LIG A   1      -7.622  -3.348 128.713  0.00  0.00    -0.000 C 
BRANCH  29  30
ATOM     30  C   LIG A   1      -8.713  -3.610 127.676  0.00  0.00    -0.000 C 
BRANCH  30  31
ATOM     31  C   LIG A   1      -8.744  -2.649 126.502  0.00  0.00    +0.000 C 
BRANCH  31  32
ATOM     32  C   LIG A   1      -9.279  -3.314 125.217  0.00  0.00    +0.000 C 
BRANCH  32  33
ATOM     33  C   LIG A   1      -8.704  -2.845 123.860  0.00  0.00    +0.004 C 
BRANCH  33  34
ATOM     34  C   LIG A   1      -7.231  -2.409 123.876  0.00  0.00    +0.027 C 
BRANCH  34  35
ATOM     35  C   LIG A   1      -6.245  -3.530 124.036  0.00  0.00    -0.031 C 
ATOM     36  C   LIG A   1      -4.986  -3.483 123.570  0.00  0.00    -0.034 C 
ATOM     37  C   LIG A   1      -4.032  -4.631 123.620  0.00  0.00    +0.035 C 
ENDBRANCH  34  35
ENDBRANCH  33  34
ENDBRANCH  32  33
ENDBRANCH  31  32
ENDBRANCH  30  31
ENDBRANCH  29  30
ENDBRANCH  28  29
ENDBRANCH  27  28
ENDBRANCH  26  27
ENDBRANCH  25  26
ENDBRANCH  24  25
ENDBRANCH  23  24
ENDBRANCH  22  23
ENDBRANCH  21  22
ENDBRANCH  20  21
ENDBRANCH   4  20
TORSDOF 16
ENDMDL
MODEL 4
REMARK VINA RESULT:      -7.4      4.469      7.799
REMARK  Name = NuBBE_1566
REMARK  17 active torsions:
REMARK  status: ('A' for Active; 'I' for Inactive)
REMARK    1  A    between atoms: C_4  and  C_5
REMARK    2  A    between atoms: C_5  and  C_6
REMARK    3  A    between atoms: C_6  and  C_7
REMARK    4  A    between atoms: C_7  and  C_8
REMARK    5  A    between atoms: C_8  and  C_9
REMARK    6  A    between atoms: C_9  and  C_10
REMARK    7  A    between atoms: C_10  and  C_11
REMARK    8  A    between atoms: C_11  and  C_12
REMARK    9  A    between atoms: C_12  and  C_13
REMARK   10  A    between atoms: C_13  and  C_14
REMARK   11  A    between atoms: C_14  and  C_15
REMARK   12  A    between atoms: C_15  and  C_16
REMARK   13  A    between atoms: C_16  and  C_17
REMARK   14  A    between atoms: C_17  and  C_18
REMARK   15  A    between atoms: C_18  and  C_19
REMARK   16  A    between atoms: C_19  and  C_20
REMARK   17  A    between atoms: C_21  and  C_22
REMARK                            x       y       z     vdW  Elec       q    Type
REMARK                         _______ _______ _______ _____ _____    ______ ____
ROOT
ATOM      1  O   LIG A   1      -6.702   5.175 134.085  0.00  0.00    -0.287 OA
ATOM      2  C   LIG A   1      -6.847   5.649 132.927  0.00  0.00    +0.200 A 
ATOM      3  C   LIG A   1      -8.142   5.620 132.250  0.00  0.00    +0.083 A 
ATOM      4  C   LIG A   1      -9.296   4.917 132.913  0.00  0.00    +0.211 C 
ATOM      5  C   LIG A   1      -8.273   6.390 131.158  0.00  0.00    +0.149 A 
ATOM      6  C   LIG A   1      -9.639   6.710 130.740  0.00  0.00    +0.059 A 
ATOM      7  C   LIG A   1      -9.938   7.481 129.604  0.00  0.00    +0.015 A 
ATOM      8  C   LIG A   1     -11.233   7.966 129.388  0.00  0.00    +0.001 A 
ATOM      9  C   LIG A   1     -12.222   7.734 130.332  0.00  0.00    +0.004 A 
ATOM     10  C   LIG A   1     -11.912   6.999 131.474  0.00  0.00    +0.046 A 
ATOM     11  C   LIG A   1     -10.663   6.421 131.637  0.00  0.00    +0.132 A 
ATOM     12  O   LIG A   1     -10.522   5.641 132.749  0.00  0.00    -0.483 OA
ATOM     13  O   LIG A   1      -7.257   7.075 130.528  0.00  0.00    -0.454 OA
ATOM     14  C   LIG A   1      -6.007   7.006 131.069  0.00  0.00    +0.139 A 
ATOM     15  C   LIG A   1      -4.978   7.699 130.435  0.00  0.00    +0.047 A 
ATOM     16  C   LIG A   1      -3.695   7.703 130.987  0.00  0.00    +0.004 A 
ATOM     17  C   LIG A   1      -3.437   7.001 132.170  0.00  0.00    +0.001 A 
ATOM     18  C   LIG A   1      -4.457   6.303 132.802  0.00  0.00    +0.015 A 
ATOM     19  C   LIG A   1      -5.738   6.316 132.256  0.00  0.00    +0.064 A 
ENDROOT
BRANCH   4  20
ATOM     20  C   LIG A   1      -9.423   3.443 132.444  0.00  0.00    +0.050 C 
BRANCH  20  21
ATOM     21  C   LIG A   1      -8.095   2.674 132.280  0.00  0.00    +0.004 C 
BRANCH  21  22
ATOM     22  C   LIG A   1      -8.189   1.194 131.864  0.00  0.00    +0.000 C 
BRANCH  22  23
ATOM     23  C   LIG A   1      -7.035   0.754 130.955  0.00  0.00    -0.000 C 
BRANCH  23  24
ATOM     24  C   LIG A   1      -7.447  -0.075 129.728  0.00  0.00    -0.000 C 
BRANCH  24  25
ATOM     25  C   LIG A   1      -6.776   0.343 128.427  0.00  0.00    -0.000 C 
BRANCH  25  26
ATOM     26  C   LIG A   1      -7.658   0.349 127.195  0.00  0.00    -0.000 C 
BRANCH  26  27
ATOM     27  C   LIG A   1      -7.096   1.072 125.982  0.00  0.00    -0.000 C 
BRANCH  27  28
ATOM     28  C   LIG A   1      -5.722   1.739 126.182  0.00  0.00    -0.000 C 
BRANCH  28  29
ATOM     29  C   LIG A   1      -5.472   3.072 125.450  0.00  0.00    -0.000 C 
BRANCH  29  30
ATOM     30  C   LIG A   1      -4.154   3.759 125.804  0.00  0.00    -0.000 C 
BRANCH  30  31
ATOM     31  C   LIG A   1      -3.222   2.965 126.702  0.00  0.00    +0.000 C 
BRANCH  31  32
ATOM     32  C   LIG A   1      -2.499   3.859 127.729  0.00  0.00    +0.000 C 
BRANCH  32  33
ATOM     33  C   LIG A   1      -3.361   4.710 128.690  0.00  0.00    +0.004 C 
BRANCH  33  34
ATOM     34  C   LIG A   1      -3.987   3.953 129.872  0.00  0.00    +0.027 C 
BRANCH  34  35
ATOM     35  C   LIG A   1      -5.427   3.572 129.682  0.00  0.00    -0.031 C 
ATOM     36  C   LIG A   1      -6.257   4.203 128.836  0.00  0.00    -0.034 C 
ATOM     37  C   LIG A   1      -7.717   3.912 128.721  0.00  0.00    +0.035 C 
ENDBRANCH  34  35
ENDBRANCH  33  34
ENDBRANCH  32  33
ENDBRANCH  31  32
ENDBRANCH  30  31
ENDBRANCH  29  30
ENDBRANCH  28  29
ENDBRANCH  27  28
ENDBRANCH  26  27
ENDBRANCH  25  26
ENDBRANCH  24  25
ENDBRANCH  23  24
ENDBRANCH  22  23
ENDBRANCH  21  22
ENDBRANCH  20  21
ENDBRANCH   4  20
TORSDOF 16
ENDMDL
MODEL 5
REMARK VINA RESULT:      -7.4      4.370      7.581
REMARK  Name = NuBBE_1566
REMARK  17 active torsions:
REMARK  status: ('A' for Active; 'I' for Inactive)
REMARK    1  A    between atoms: C_4  and  C_5
REMARK    2  A    between atoms: C_5  and  C_6
REMARK    3  A    between atoms: C_6  and  C_7
REMARK    4  A    between atoms: C_7  and  C_8
REMARK    5  A    between atoms: C_8  and  C_9
REMARK    6  A    between atoms: C_9  and  C_10
REMARK    7  A    between atoms: C_10  and  C_11
REMARK    8  A    between atoms: C_11  and  C_12
REMARK    9  A    between atoms: C_12  and  C_13
REMARK   10  A    between atoms: C_13  and  C_14
REMARK   11  A    between atoms: C_14  and  C_15
REMARK   12  A    between atoms: C_15  and  C_16
REMARK   13  A    between atoms: C_16  and  C_17
REMARK   14  A    between atoms: C_17  and  C_18
REMARK   15  A    between atoms: C_18  and  C_19
REMARK   16  A    between atoms: C_19  and  C_20
REMARK   17  A    between atoms: C_21  and  C_22
REMARK                            x       y       z     vdW  Elec       q    Type
REMARK                         _______ _______ _______ _____ _____    ______ ____
ROOT
ATOM      1  O   LIG A   1      -6.692   5.218 133.949  0.00  0.00    -0.287 OA
ATOM      2  C   LIG A   1      -6.828   5.710 132.797  0.00  0.00    +0.200 A 
ATOM      3  C   LIG A   1      -8.114   5.682 132.104  0.00  0.00    +0.083 A 
ATOM      4  C   LIG A   1      -9.270   4.958 132.742  0.00  0.00    +0.211 C 
ATOM      5  C   LIG A   1      -8.240   6.468 131.025  0.00  0.00    +0.149 A 
ATOM      6  C   LIG A   1      -9.603   6.784 130.596  0.00  0.00    +0.059 A 
ATOM      7  C   LIG A   1      -9.896   7.571 129.469  0.00  0.00    +0.015 A 
ATOM      8  C   LIG A   1     -11.193   8.049 129.246  0.00  0.00    +0.001 A 
ATOM      9  C   LIG A   1     -12.190   7.793 130.175  0.00  0.00    +0.004 A 
ATOM     10  C   LIG A   1     -11.887   7.042 131.308  0.00  0.00    +0.046 A 
ATOM     11  C   LIG A   1     -10.635   6.471 131.476  0.00  0.00    +0.132 A 
ATOM     12  O   LIG A   1     -10.501   5.674 132.576  0.00  0.00    -0.483 OA
ATOM     13  O   LIG A   1      -7.223   7.173 130.418  0.00  0.00    -0.454 OA
ATOM     14  C   LIG A   1      -5.978   7.104 130.972  0.00  0.00    +0.139 A 
ATOM     15  C   LIG A   1      -4.948   7.817 130.362  0.00  0.00    +0.047 A 
ATOM     16  C   LIG A   1      -3.671   7.823 130.928  0.00  0.00    +0.004 A 
ATOM     17  C   LIG A   1      -3.420   7.103 132.103  0.00  0.00    +0.001 A 
ATOM     18  C   LIG A   1      -4.442   6.386 132.711  0.00  0.00    +0.015 A 
ATOM     19  C   LIG A   1      -5.717   6.397 132.151  0.00  0.00    +0.064 A 
ENDROOT
BRANCH   4  20
ATOM     20  C   LIG A   1      -9.379   3.491 132.248  0.00  0.00    +0.050 C 
BRANCH  20  21
ATOM     21  C   LIG A   1      -9.802   3.309 130.774  0.00  0.00    +0.004 C 
BRANCH  21  22
ATOM     22  C   LIG A   1      -8.808   2.590 129.843  0.00  0.00    +0.000 C 
BRANCH  22  23
ATOM     23  C   LIG A   1      -8.165   3.530 128.817  0.00  0.00    -0.000 C 
BRANCH  23  24
ATOM     24  C   LIG A   1      -6.716   3.942 129.122  0.00  0.00    -0.000 C 
BRANCH  24  25
ATOM     25  C   LIG A   1      -5.981   3.012 130.076  0.00  0.00    -0.000 C 
BRANCH  25  26
ATOM     26  C   LIG A   1      -4.487   2.882 129.862  0.00  0.00    -0.000 C 
BRANCH  26  27
ATOM     27  C   LIG A   1      -3.702   4.184 129.869  0.00  0.00    -0.000 C 
BRANCH  27  28
ATOM     28  C   LIG A   1      -2.880   4.474 128.599  0.00  0.00    -0.000 C 
BRANCH  28  29
ATOM     29  C   LIG A   1      -2.729   3.329 127.580  0.00  0.00    -0.000 C 
BRANCH  29  30
ATOM     30  C   LIG A   1      -3.257   3.644 126.181  0.00  0.00    -0.000 C 
BRANCH  30  31
ATOM     31  C   LIG A   1      -4.744   3.935 126.093  0.00  0.00    +0.000 C 
BRANCH  31  32
ATOM     32  C   LIG A   1      -5.522   2.802 125.394  0.00  0.00    +0.000 C 
BRANCH  32  33
ATOM     33  C   LIG A   1      -6.095   1.663 126.269  0.00  0.00    +0.004 C 
BRANCH  33  34
ATOM     34  C   LIG A   1      -5.180   0.442 126.457  0.00  0.00    +0.027 C 
BRANCH  34  35
ATOM     35  C   LIG A   1      -5.520  -0.737 125.592  0.00  0.00    -0.031 C 
ATOM     36  C   LIG A   1      -6.343  -0.668 124.533  0.00  0.00    -0.034 C 
ATOM     37  C   LIG A   1      -6.780  -1.851 123.734  0.00  0.00    +0.035 C 
ENDBRANCH  34  35
ENDBRANCH  33  34
ENDBRANCH  32  33
ENDBRANCH  31  32
ENDBRANCH  30  31
ENDBRANCH  29  30
ENDBRANCH  28  29
ENDBRANCH  27  28
ENDBRANCH  26  27
ENDBRANCH  25  26
ENDBRANCH  24  25
ENDBRANCH  23  24
ENDBRANCH  22  23
ENDBRANCH  21  22
ENDBRANCH  20  21
ENDBRANCH   4  20
TORSDOF 16
ENDMDL
MODEL 6
REMARK VINA RESULT:      -7.3      5.262      9.831
REMARK  Name = NuBBE_1566
REMARK  17 active torsions:
REMARK  status: ('A' for Active; 'I' for Inactive)
REMARK    1  A    between atoms: C_4  and  C_5
REMARK    2  A    between atoms: C_5  and  C_6
REMARK    3  A    between atoms: C_6  and  C_7
REMARK    4  A    between atoms: C_7  and  C_8
REMARK    5  A    between atoms: C_8  and  C_9
REMARK    6  A    between atoms: C_9  and  C_10
REMARK    7  A    between atoms: C_10  and  C_11
REMARK    8  A    between atoms: C_11  and  C_12
REMARK    9  A    between atoms: C_12  and  C_13
REMARK   10  A    between atoms: C_13  and  C_14
REMARK   11  A    between atoms: C_14  and  C_15
REMARK   12  A    between atoms: C_15  and  C_16
REMARK   13  A    between atoms: C_16  and  C_17
REMARK   14  A    between atoms: C_17  and  C_18
REMARK   15  A    between atoms: C_18  and  C_19
REMARK   16  A    between atoms: C_19  and  C_20
REMARK   17  A    between atoms: C_21  and  C_22
REMARK                            x       y       z     vdW  Elec       q    Type
REMARK                         _______ _______ _______ _____ _____    ______ ____
ROOT
ATOM      1  O   LIG A   1     -11.191   6.768 132.230  0.00  0.00    -0.287 OA
ATOM      2  C   LIG A   1     -10.657   6.671 131.092  0.00  0.00    +0.200 A 
ATOM      3  C   LIG A   1      -9.482   5.831 130.874  0.00  0.00    +0.083 A 
ATOM      4  C   LIG A   1      -8.840   5.153 132.056  0.00  0.00    +0.211 C 
ATOM      5  C   LIG A   1      -9.156   5.561 129.601  0.00  0.00    +0.149 A 
ATOM      6  C   LIG A   1      -8.287   4.405 129.375  0.00  0.00    +0.059 A 
ATOM      7  C   LIG A   1      -7.838   4.013 128.102  0.00  0.00    +0.015 A 
ATOM      8  C   LIG A   1      -7.223   2.770 127.911  0.00  0.00    +0.001 A 
ATOM      9  C   LIG A   1      -7.105   1.889 128.975  0.00  0.00    +0.004 A 
ATOM     10  C   LIG A   1      -7.582   2.268 130.227  0.00  0.00    +0.046 A 
ATOM     11  C   LIG A   1      -8.088   3.540 130.447  0.00  0.00    +0.132 A 
ATOM     12  O   LIG A   1      -8.426   3.817 131.740  0.00  0.00    -0.483 OA
ATOM     13  O   LIG A   1      -9.728   6.132 128.485  0.00  0.00    -0.454 OA
ATOM     14  C   LIG A   1     -10.742   7.026 128.671  0.00  0.00    +0.139 A 
ATOM     15  C   LIG A   1     -11.323   7.603 127.544  0.00  0.00    +0.047 A 
ATOM     16  C   LIG A   1     -12.402   8.479 127.685  0.00  0.00    +0.004 A 
ATOM     17  C   LIG A   1     -12.893   8.788 128.960  0.00  0.00    +0.001 A 
ATOM     18  C   LIG A   1     -12.313   8.221 130.087  0.00  0.00    +0.015 A 
ATOM     19  C   LIG A   1     -11.248   7.335 129.938  0.00  0.00    +0.064 A 
ENDROOT
BRANCH   4  20
ATOM     20  C   LIG A   1      -7.680   5.997 132.649  0.00  0.00    +0.050 C 
BRANCH  20  21
ATOM     21  C   LIG A   1      -6.319   5.863 131.935  0.00  0.00    +0.004 C 
BRANCH  21  22
ATOM     22  C   LIG A   1      -5.911   7.003 130.983  0.00  0.00    +0.000 C 
BRANCH  22  23
ATOM     23  C   LIG A   1      -4.462   7.460 131.184  0.00  0.00    -0.000 C 
BRANCH  23  24
ATOM     24  C   LIG A   1      -3.717   7.860 129.900  0.00  0.00    -0.000 C 
BRANCH  24  25
ATOM     25  C   LIG A   1      -3.767   6.821 128.788  0.00  0.00    -0.000 C 
BRANCH  25  26
ATOM     26  C   LIG A   1      -2.556   5.920 128.664  0.00  0.00    -0.000 C 
BRANCH  26  27
ATOM     27  C   LIG A   1      -2.797   4.446 128.944  0.00  0.00    -0.000 C 
BRANCH  27  28
ATOM     28  C   LIG A   1      -4.107   4.113 129.682  0.00  0.00    -0.000 C 
BRANCH  28  29
ATOM     29  C   LIG A   1      -4.049   3.015 130.762  0.00  0.00    -0.000 C 
BRANCH  29  30
ATOM     30  C   LIG A   1      -3.006   3.246 131.854  0.00  0.00    -0.000 C 
BRANCH  30  31
ATOM     31  C   LIG A   1      -3.125   4.560 132.606  0.00  0.00    +0.000 C 
BRANCH  31  32
ATOM     32  C   LIG A   1      -1.749   5.146 132.980  0.00  0.00    +0.000 C 
BRANCH  32  33
ATOM     33  C   LIG A   1      -1.106   6.169 132.015  0.00  0.00    +0.004 C 
BRANCH  33  34
ATOM     34  C   LIG A   1      -0.135   7.173 132.657  0.00  0.00    +0.027 C 
BRANCH  34  35
ATOM     35  C   LIG A   1      -0.791   8.236 133.491  0.00  0.00    -0.031 C 
ATOM     36  C   LIG A   1      -1.757   9.048 133.033  0.00  0.00    -0.034 C 
ATOM     37  C   LIG A   1      -2.336  10.183 133.812  0.00  0.00    +0.035 C 
ENDBRANCH  34  35
ENDBRANCH  33  34
ENDBRANCH  32  33
ENDBRANCH  31  32
ENDBRANCH  30  31
ENDBRANCH  29  30
ENDBRANCH  28  29
ENDBRANCH  27  28
ENDBRANCH  26  27
ENDBRANCH  25  26
ENDBRANCH  24  25
ENDBRANCH  23  24
ENDBRANCH  22  23
ENDBRANCH  21  22
ENDBRANCH  20  21
ENDBRANCH   4  20
TORSDOF 16
ENDMDL
MODEL 7
REMARK VINA RESULT:      -7.2      4.568      7.475
REMARK  Name = NuBBE_1566
REMARK  17 active torsions:
REMARK  status: ('A' for Active; 'I' for Inactive)
REMARK    1  A    between atoms: C_4  and  C_5
REMARK    2  A    between atoms: C_5  and  C_6
REMARK    3  A    between atoms: C_6  and  C_7
REMARK    4  A    between atoms: C_7  and  C_8
REMARK    5  A    between atoms: C_8  and  C_9
REMARK    6  A    between atoms: C_9  and  C_10
REMARK    7  A    between atoms: C_10  and  C_11
REMARK    8  A    between atoms: C_11  and  C_12
REMARK    9  A    between atoms: C_12  and  C_13
REMARK   10  A    between atoms: C_13  and  C_14
REMARK   11  A    between atoms: C_14  and  C_15
REMARK   12  A    between atoms: C_15  and  C_16
REMARK   13  A    between atoms: C_16  and  C_17
REMARK   14  A    between atoms: C_17  and  C_18
REMARK   15  A    between atoms: C_18  and  C_19
REMARK   16  A    between atoms: C_19  and  C_20
REMARK   17  A    between atoms: C_21  and  C_22
REMARK                            x       y       z     vdW  Elec       q    Type
REMARK                         _______ _______ _______ _____ _____    ______ ____
ROOT
ATOM      1  O   LIG A   1      -7.147   5.017 133.739  0.00  0.00    -0.287 OA
ATOM      2  C   LIG A   1      -7.185   5.606 132.625  0.00  0.00    +0.200 A 
ATOM      3  C   LIG A   1      -8.420   5.689 131.850  0.00  0.00    +0.083 A 
ATOM      4  C   LIG A   1      -9.644   4.967 132.348  0.00  0.00    +0.211 C 
ATOM      5  C   LIG A   1      -8.441   6.564 130.833  0.00  0.00    +0.149 A 
ATOM      6  C   LIG A   1      -9.759   6.972 130.343  0.00  0.00    +0.059 A 
ATOM      7  C   LIG A   1      -9.943   7.859 129.269  0.00  0.00    +0.015 A 
ATOM      8  C   LIG A   1     -11.203   8.409 129.002  0.00  0.00    +0.001 A 
ATOM      9  C   LIG A   1     -12.270   8.123 129.839  0.00  0.00    +0.004 A 
ATOM     10  C   LIG A   1     -12.075   7.271 130.923  0.00  0.00    +0.046 A 
ATOM     11  C   LIG A   1     -10.860   6.635 131.125  0.00  0.00    +0.132 A 
ATOM     12  O   LIG A   1     -10.832   5.747 132.162  0.00  0.00    -0.483 OA
ATOM     13  O   LIG A   1      -7.359   7.270 130.355  0.00  0.00    -0.454 OA
ATOM     14  C   LIG A   1      -6.158   7.104 130.982  0.00  0.00    +0.139 A 
ATOM     15  C   LIG A   1      -5.063   7.818 130.502  0.00  0.00    +0.047 A 
ATOM     16  C   LIG A   1      -3.828   7.723 131.150  0.00  0.00    +0.004 A 
ATOM     17  C   LIG A   1      -3.687   6.901 132.274  0.00  0.00    +0.001 A 
ATOM     18  C   LIG A   1      -4.774   6.182 132.753  0.00  0.00    +0.015 A 
ATOM     19  C   LIG A   1      -6.006   6.294 132.113  0.00  0.00    +0.064 A 
ENDROOT
BRANCH   4  20
ATOM     20  C   LIG A   1      -9.774   3.550 131.727  0.00  0.00    +0.050 C 
BRANCH  20  21
ATOM     21  C   LIG A   1      -9.187   2.394 132.564  0.00  0.00    +0.004 C 
BRANCH  21  22
ATOM     22  C   LIG A   1      -9.385   0.966 132.022  0.00  0.00    +0.000 C 
BRANCH  22  23
ATOM     23  C   LIG A   1      -8.119   0.108 132.123  0.00  0.00    -0.000 C 
BRANCH  23  24
ATOM     24  C   LIG A   1      -7.945  -0.937 131.009  0.00  0.00    -0.000 C 
BRANCH  24  25
ATOM     25  C   LIG A   1      -7.213  -0.431 129.774  0.00  0.00    -0.000 C 
BRANCH  25  26
ATOM     26  C   LIG A   1      -5.765  -0.855 129.638  0.00  0.00    -0.000 C 
BRANCH  26  27
ATOM     27  C   LIG A   1      -4.736   0.257 129.762  0.00  0.00    -0.000 C 
BRANCH  27  28
ATOM     28  C   LIG A   1      -4.507   0.798 131.186  0.00  0.00    -0.000 C 
BRANCH  28  29
ATOM     29  C   LIG A   1      -4.769   2.298 131.422  0.00  0.00    -0.000 C 
BRANCH  29  30
ATOM     30  C   LIG A   1      -5.873   2.899 130.553  0.00  0.00    -0.000 C 
BRANCH  30  31
ATOM     31  C   LIG A   1      -5.408   3.866 129.480  0.00  0.00    +0.000 C 
BRANCH  31  32
ATOM     32  C   LIG A   1      -3.935   4.284 129.669  0.00  0.00    +0.000 C 
BRANCH  32  33
ATOM     33  C   LIG A   1      -2.995   4.213 128.443  0.00  0.00    +0.004 C 
BRANCH  33  34
ATOM     34  C   LIG A   1      -3.030   2.896 127.652  0.00  0.00    +0.027 C 
BRANCH  34  35
ATOM     35  C   LIG A   1      -3.718   2.981 126.320  0.00  0.00    -0.031 C 
ATOM     36  C   LIG A   1      -4.487   4.017 125.946  0.00  0.00    -0.034 C 
ATOM     37  C   LIG A   1      -5.269   4.064 124.675  0.00  0.00    +0.035 C 
ENDBRANCH  34  35
ENDBRANCH  33  34
ENDBRANCH  32  33
ENDBRANCH  31  32
ENDBRANCH  30  31
ENDBRANCH  29  30
ENDBRANCH  28  29
ENDBRANCH  27  28
ENDBRANCH  26  27
ENDBRANCH  25  26
ENDBRANCH  24  25
ENDBRANCH  23  24
ENDBRANCH  22  23
ENDBRANCH  21  22
ENDBRANCH  20  21
ENDBRANCH   4  20
TORSDOF 16
ENDMDL
MODEL 8
REMARK VINA RESULT:      -7.2      5.236      9.379
REMARK  Name = NuBBE_1566
REMARK  17 active torsions:
REMARK  status: ('A' for Active; 'I' for Inactive)
REMARK    1  A    between atoms: C_4  and  C_5
REMARK    2  A    between atoms: C_5  and  C_6
REMARK    3  A    between atoms: C_6  and  C_7
REMARK    4  A    between atoms: C_7  and  C_8
REMARK    5  A    between atoms: C_8  and  C_9
REMARK    6  A    between atoms: C_9  and  C_10
REMARK    7  A    between atoms: C_10  and  C_11
REMARK    8  A    between atoms: C_11  and  C_12
REMARK    9  A    between atoms: C_12  and  C_13
REMARK   10  A    between atoms: C_13  and  C_14
REMARK   11  A    between atoms: C_14  and  C_15
REMARK   12  A    between atoms: C_15  and  C_16
REMARK   13  A    between atoms: C_16  and  C_17
REMARK   14  A    between atoms: C_17  and  C_18
REMARK   15  A    between atoms: C_18  and  C_19
REMARK   16  A    between atoms: C_19  and  C_20
REMARK   17  A    between atoms: C_21  and  C_22
REMARK                            x       y       z     vdW  Elec       q    Type
REMARK                         _______ _______ _______ _____ _____    ______ ____
ROOT
ATOM      1  O   LIG A   1     -11.337   6.554 132.226  0.00  0.00    -0.287 OA
ATOM      2  C   LIG A   1     -10.738   6.530 131.117  0.00  0.00    +0.200 A 
ATOM      3  C   LIG A   1      -9.534   5.727 130.920  0.00  0.00    +0.083 A 
ATOM      4  C   LIG A   1      -8.944   4.997 132.098  0.00  0.00    +0.211 C 
ATOM      5  C   LIG A   1      -9.133   5.534 129.655  0.00  0.00    +0.149 A 
ATOM      6  C   LIG A   1      -8.227   4.410 129.416  0.00  0.00    +0.059 A 
ATOM      7  C   LIG A   1      -7.700   4.098 128.150  0.00  0.00    +0.015 A 
ATOM      8  C   LIG A   1      -7.048   2.879 127.927  0.00  0.00    +0.001 A 
ATOM      9  C   LIG A   1      -6.969   1.943 128.947  0.00  0.00    +0.004 A 
ATOM     10  C   LIG A   1      -7.523   2.242 130.189  0.00  0.00    +0.046 A 
ATOM     11  C   LIG A   1      -8.069   3.490 130.448  0.00  0.00    +0.132 A 
ATOM     12  O   LIG A   1      -8.483   3.689 131.734  0.00  0.00    -0.483 OA
ATOM     13  O   LIG A   1      -9.655   6.155 128.540  0.00  0.00    -0.454 OA
ATOM     14  C   LIG A   1     -10.697   7.017 128.718  0.00  0.00    +0.139 A 
ATOM     15  C   LIG A   1     -11.228   7.645 127.593  0.00  0.00    +0.047 A 
ATOM     16  C   LIG A   1     -12.333   8.491 127.720  0.00  0.00    +0.004 A 
ATOM     17  C   LIG A   1     -12.900   8.719 128.980  0.00  0.00    +0.001 A 
ATOM     18  C   LIG A   1     -12.371   8.102 130.105  0.00  0.00    +0.015 A 
ATOM     19  C   LIG A   1     -11.280   7.246 129.969  0.00  0.00    +0.064 A 
ENDROOT
BRANCH   4  20
ATOM     20  C   LIG A   1      -7.838   5.829 132.800  0.00  0.00    +0.050 C 
BRANCH  20  21
ATOM     21  C   LIG A   1      -7.644   5.551 134.307  0.00  0.00    +0.004 C 
BRANCH  21  22
ATOM     22  C   LIG A   1      -6.595   4.493 134.695  0.00  0.00    +0.000 C 
BRANCH  22  23
ATOM     23  C   LIG A   1      -5.159   4.939 134.397  0.00  0.00    -0.000 C 
BRANCH  23  24
ATOM     24  C   LIG A   1      -4.430   4.122 133.318  0.00  0.00    -0.000 C 
BRANCH  24  25
ATOM     25  C   LIG A   1      -2.915   4.098 133.457  0.00  0.00    -0.000 C 
BRANCH  25  26
ATOM     26  C   LIG A   1      -2.129   4.621 132.272  0.00  0.00    -0.000 C 
BRANCH  26  27
ATOM     27  C   LIG A   1      -1.034   5.625 132.596  0.00  0.00    -0.000 C 
BRANCH  27  28
ATOM     28  C   LIG A   1      -1.446   7.107 132.526  0.00  0.00    -0.000 C 
BRANCH  28  29
ATOM     29  C   LIG A   1      -2.930   7.414 132.247  0.00  0.00    -0.000 C 
BRANCH  29  30
ATOM     30  C   LIG A   1      -3.270   7.651 130.776  0.00  0.00    -0.000 C 
BRANCH  30  31
ATOM     31  C   LIG A   1      -4.732   7.479 130.406  0.00  0.00    +0.000 C 
BRANCH  31  32
ATOM     32  C   LIG A   1      -5.153   5.995 130.364  0.00  0.00    +0.000 C 
BRANCH  32  33
ATOM     33  C   LIG A   1      -4.354   5.037 129.449  0.00  0.00    +0.004 C 
BRANCH  33  34
ATOM     34  C   LIG A   1      -4.257   5.451 127.973  0.00  0.00    +0.027 C 
BRANCH  34  35
ATOM     35  C   LIG A   1      -3.529   4.477 127.092  0.00  0.00    -0.031 C 
ATOM     36  C   LIG A   1      -2.382   3.873 127.444  0.00  0.00    -0.034 C 
ATOM     37  C   LIG A   1      -1.587   2.993 126.537  0.00  0.00    +0.035 C 
ENDBRANCH  34  35
ENDBRANCH  33  34
ENDBRANCH  32  33
ENDBRANCH  31  32
ENDBRANCH  30  31
ENDBRANCH  29  30
ENDBRANCH  28  29
ENDBRANCH  27  28
ENDBRANCH  26  27
ENDBRANCH  25  26
ENDBRANCH  24  25
ENDBRANCH  23  24
ENDBRANCH  22  23
ENDBRANCH  21  22
ENDBRANCH  20  21
ENDBRANCH   4  20
TORSDOF 16
ENDMDL
MODEL 9
REMARK VINA RESULT:      -7.2      5.489      9.613
REMARK  Name = NuBBE_1566
REMARK  17 active torsions:
REMARK  status: ('A' for Active; 'I' for Inactive)
REMARK    1  A    between atoms: C_4  and  C_5
REMARK    2  A    between atoms: C_5  and  C_6
REMARK    3  A    between atoms: C_6  and  C_7
REMARK    4  A    between atoms: C_7  and  C_8
REMARK    5  A    between atoms: C_8  and  C_9
REMARK    6  A    between atoms: C_9  and  C_10
REMARK    7  A    between atoms: C_10  and  C_11
REMARK    8  A    between atoms: C_11  and  C_12
REMARK    9  A    between atoms: C_12  and  C_13
REMARK   10  A    between atoms: C_13  and  C_14
REMARK   11  A    between atoms: C_14  and  C_15
REMARK   12  A    between atoms: C_15  and  C_16
REMARK   13  A    between atoms: C_16  and  C_17
REMARK   14  A    between atoms: C_17  and  C_18
REMARK   15  A    between atoms: C_18  and  C_19
REMARK   16  A    between atoms: C_19  and  C_20
REMARK   17  A    between atoms: C_21  and  C_22
REMARK                            x       y       z     vdW  Elec       q    Type
REMARK                         _______ _______ _______ _____ _____    ______ ____
ROOT
ATOM      1  O   LIG A   1     -11.823   6.770 132.242  0.00  0.00    -0.287 OA
ATOM      2  C   LIG A   1     -11.127   6.514 131.222  0.00  0.00    +0.200 A 
ATOM      3  C   LIG A   1     -10.102   5.474 131.242  0.00  0.00    +0.083 A 
ATOM      4  C   LIG A   1      -9.805   4.767 132.538  0.00  0.00    +0.211 C 
ATOM      5  C   LIG A   1      -9.617   5.077 130.055  0.00  0.00    +0.149 A 
ATOM      6  C   LIG A   1      -8.943   3.778 130.022  0.00  0.00    +0.059 A 
ATOM      7  C   LIG A   1      -8.361   3.240 128.861  0.00  0.00    +0.015 A 
ATOM      8  C   LIG A   1      -7.955   1.901 128.818  0.00  0.00    +0.001 A 
ATOM      9  C   LIG A   1      -8.181   1.077 129.911  0.00  0.00    +0.004 A 
ATOM     10  C   LIG A   1      -8.790   1.606 131.046  0.00  0.00    +0.046 A 
ATOM     11  C   LIG A   1      -9.090   2.956 131.135  0.00  0.00    +0.132 A 
ATOM     12  O   LIG A   1      -9.589   3.364 132.339  0.00  0.00    -0.483 OA
ATOM     13  O   LIG A   1      -9.876   5.670 128.839  0.00  0.00    -0.454 OA
ATOM     14  C   LIG A   1     -10.730   6.734 128.816  0.00  0.00    +0.139 A 
ATOM     15  C   LIG A   1     -10.996   7.335 127.586  0.00  0.00    +0.047 A 
ATOM     16  C   LIG A   1     -11.909   8.390 127.507  0.00  0.00    +0.004 A 
ATOM     17  C   LIG A   1     -12.547   8.854 128.664  0.00  0.00    +0.001 A 
ATOM     18  C   LIG A   1     -12.281   8.264 129.892  0.00  0.00    +0.015 A 
ATOM     19  C   LIG A   1     -11.382   7.201 129.962  0.00  0.00    +0.064 A 
ENDROOT
BRANCH   4  20
ATOM     20  C   LIG A   1      -8.632   5.434 133.305  0.00  0.00    +0.050 C 
BRANCH  20  21
ATOM     21  C   LIG A   1      -8.136   4.681 134.559  0.00  0.00    +0.004 C 
BRANCH  21  22
ATOM     22  C   LIG A   1      -6.842   3.858 134.416  0.00  0.00    +0.000 C 
BRANCH  22  23
ATOM     23  C   LIG A   1      -5.673   4.439 135.219  0.00  0.00    -0.000 C 
BRANCH  23  24
ATOM     24  C   LIG A   1      -5.391   5.931 134.979  0.00  0.00    -0.000 C 
BRANCH  24  25
ATOM     25  C   LIG A   1      -4.414   6.217 133.847  0.00  0.00    -0.000 C 
BRANCH  25  26
ATOM     26  C   LIG A   1      -5.027   6.454 132.483  0.00  0.00    -0.000 C 
BRANCH  26  27
ATOM     27  C   LIG A   1      -4.084   6.988 131.417  0.00  0.00    -0.000 C 
BRANCH  27  28
ATOM     28  C   LIG A   1      -2.586   6.730 131.664  0.00  0.00    -0.000 C 
BRANCH  28  29
ATOM     29  C   LIG A   1      -1.771   6.132 130.501  0.00  0.00    -0.000 C 
BRANCH  29  30
ATOM     30  C   LIG A   1      -2.239   6.553 129.109  0.00  0.00    -0.000 C 
BRANCH  30  31
ATOM     31  C   LIG A   1      -2.608   5.417 128.171  0.00  0.00    +0.000 C 
BRANCH  31  32
ATOM     32  C   LIG A   1      -3.138   4.183 128.929  0.00  0.00    +0.000 C 
BRANCH  32  33
ATOM     33  C   LIG A   1      -4.669   4.024 129.082  0.00  0.00    +0.004 C 
BRANCH  33  34
ATOM     34  C   LIG A   1      -5.152   3.516 130.450  0.00  0.00    +0.027 C 
BRANCH  34  35
ATOM     35  C   LIG A   1      -4.140   2.713 131.216  0.00  0.00    -0.031 C 
ATOM     36  C   LIG A   1      -3.763   3.001 132.473  0.00  0.00    -0.034 C 
ATOM     37  C   LIG A   1      -2.677   2.283 133.205  0.00  0.00    +0.035 C 
ENDBRANCH  34  35
ENDBRANCH  33  34
ENDBRANCH  32  33
ENDBRANCH  31  32
ENDBRANCH  30  31
ENDBRANCH  29  30
ENDBRANCH  28  29
ENDBRANCH  27  28
ENDBRANCH  26  27
ENDBRANCH  25  26
ENDBRANCH  24  25
ENDBRANCH  23  24
ENDBRANCH  22  23
ENDBRANCH  21  22
ENDBRANCH  20  21
ENDBRANCH   4  20
TORSDOF 16
ENDMDL
