MODEL 1
REMARK VINA RESULT:      -7.5      0.000      0.000
REMARK  Name = NuBBE_68
REMARK  8 active torsions:
REMARK  status: ('A' for Active; 'I' for Inactive)
REMARK    1  A    between atoms: O_1  and  C_2
REMARK    2  A    between atoms: C_6  and  C_14
REMARK    3  A    between atoms: C_10  and  O_11
REMARK    4  A    between atoms: O_11  and  C_12
REMARK    5  A    between atoms: C_16  and  O_17
REMARK    6  A    between atoms: O_17  and  C_18
REMARK    7  A    between atoms: C_19  and  O_22
REMARK    8  A    between atoms: O_22  and  C_23
REMARK                            x       y       z     vdW  Elec       q    Type
REMARK                         _______ _______ _______ _____ _____    ______ ____
ROOT
ATOM      1  C   LIG A   1      -8.323   2.062 132.051  0.00  0.00    +0.134 A 
ATOM      2  C   LIG A   1      -9.040   3.223 131.752  0.00  0.00    +0.101 A 
ATOM      3  C   LIG A   1      -9.378   4.202 132.800  0.00  0.00    +0.174 C 
ATOM      4  C   LIG A   1      -9.989   5.498 132.344  0.00  0.00    +0.129 C 
ATOM      5  C   LIG A   1     -10.859   5.224 131.124  0.00  0.00    +0.211 C 
ATOM      6  O   LIG A   1     -10.092   4.625 130.062  0.00  0.00    -0.483 OA
ATOM      7  C   LIG A   1      -9.405   3.500 130.437  0.00  0.00    +0.139 A 
ATOM      8  C   LIG A   1      -9.027   2.623 129.418  0.00  0.00    +0.092 A 
ATOM      9  C   LIG A   1      -8.311   1.457 129.714  0.00  0.00    +0.127 A 
ATOM     10  C   LIG A   1      -7.961   1.180 131.036  0.00  0.00    +0.092 A 
ATOM     11  O   LIG A   1      -9.090   3.969 133.968  0.00  0.00    -0.292 OA
ENDROOT
BRANCH   5  12
ATOM     12  C   LIG A   1     -11.488   6.512 130.607  0.00  0.00    -0.003 A 
ATOM     13  C   LIG A   1     -11.125   7.037 129.355  0.00  0.00    +0.056 A 
ATOM     14  C   LIG A   1     -11.710   8.215 128.852  0.00  0.00    +0.162 A 
ATOM     15  C   LIG A   1     -12.648   8.911 129.630  0.00  0.00    +0.162 A 
ATOM     16  C   LIG A   1     -13.027   8.380 130.867  0.00  0.00    +0.050 A 
ATOM     17  C   LIG A   1     -12.461   7.194 131.347  0.00  0.00    +0.011 A 
BRANCH  14  18
ATOM     18  O   LIG A   1     -11.218   8.592 127.626  0.00  0.00    -0.491 OA
ATOM     19  C   LIG A   1     -10.862   7.542 126.731  0.00  0.00    +0.277 C 
ENDBRANCH  14  18
BRANCH  15  20
ATOM     20  O   LIG A   1     -13.196  10.066 129.140  0.00  0.00    -0.491 OA
ATOM     21  C   LIG A   1     -13.514  11.071 130.096  0.00  0.00    +0.277 C 
ENDBRANCH  15  20
ENDBRANCH   5  12
BRANCH   1  22
ATOM     22  O   LIG A   1      -7.921   1.731 133.316  0.00  0.00    -0.506 OA
ATOM     23  H   LIG A   1      -6.949   1.580 133.299  0.00  0.00    +0.292 HD
ENDBRANCH   1  22
BRANCH   9  24
ATOM     24  O   LIG A   1      -8.007   0.667 128.637  0.00  0.00    -0.495 OA
ATOM     25  C   LIG A   1      -8.474   1.127 127.371  0.00  0.00    +0.277 C 
ENDBRANCH   9  24
TORSDOF 5
ENDMDL
MODEL 2
REMARK VINA RESULT:      -7.3      3.414      3.865
REMARK  Name = NuBBE_68
REMARK  8 active torsions:
REMARK  status: ('A' for Active; 'I' for Inactive)
REMARK    1  A    between atoms: O_1  and  C_2
REMARK    2  A    between atoms: C_6  and  C_14
REMARK    3  A    between atoms: C_10  and  O_11
REMARK    4  A    between atoms: O_11  and  C_12
REMARK    5  A    between atoms: C_16  and  O_17
REMARK    6  A    between atoms: O_17  and  C_18
REMARK    7  A    between atoms: C_19  and  O_22
REMARK    8  A    between atoms: O_22  and  C_23
REMARK                            x       y       z     vdW  Elec       q    Type
REMARK                         _______ _______ _______ _____ _____    ______ ____
ROOT
ATOM      1  C   LIG A   1      -5.540   5.448 133.177  0.00  0.00    +0.134 A 
ATOM      2  C   LIG A   1      -6.742   5.851 132.591  0.00  0.00    +0.101 A 
ATOM      3  C   LIG A   1      -8.040   5.476 133.178  0.00  0.00    +0.174 C 
ATOM      4  C   LIG A   1      -9.264   6.111 132.577  0.00  0.00    +0.129 C 
ATOM      5  C   LIG A   1      -9.030   6.302 131.084  0.00  0.00    +0.211 C 
ATOM      6  O   LIG A   1      -7.866   7.116 130.840  0.00  0.00    -0.483 OA
ATOM      7  C   LIG A   1      -6.731   6.665 131.461  0.00  0.00    +0.139 A 
ATOM      8  C   LIG A   1      -5.510   7.095 130.934  0.00  0.00    +0.092 A 
ATOM      9  C   LIG A   1      -4.303   6.691 131.517  0.00  0.00    +0.127 A 
ATOM     10  C   LIG A   1      -4.324   5.864 132.641  0.00  0.00    +0.092 A 
ATOM     11  O   LIG A   1      -8.078   4.740 134.157  0.00  0.00    -0.292 OA
ENDROOT
BRANCH   5  12
ATOM     12  C   LIG A   1     -10.235   6.963 130.427  0.00  0.00    -0.003 A 
ATOM     13  C   LIG A   1     -10.143   7.499 129.131  0.00  0.00    +0.056 A 
ATOM     14  C   LIG A   1     -11.252   8.095 128.499  0.00  0.00    +0.162 A 
ATOM     15  C   LIG A   1     -12.470   8.200 129.189  0.00  0.00    +0.162 A 
ATOM     16  C   LIG A   1     -12.570   7.648 130.470  0.00  0.00    +0.050 A 
ATOM     17  C   LIG A   1     -11.472   7.032 131.079  0.00  0.00    +0.011 A 
BRANCH  14  18
ATOM     18  O   LIG A   1     -10.972   8.585 127.247  0.00  0.00    -0.491 OA
ATOM     19  C   LIG A   1     -10.948   7.639 126.182  0.00  0.00    +0.277 C 
ENDBRANCH  14  18
BRANCH  15  20
ATOM     20  O   LIG A   1     -13.536   8.799 128.574  0.00  0.00    -0.491 OA
ATOM     21  C   LIG A   1     -13.703  10.192 128.810  0.00  0.00    +0.277 C 
ENDBRANCH  15  20
ENDBRANCH   5  12
BRANCH   1  22
ATOM     22  O   LIG A   1      -5.474   4.660 134.294  0.00  0.00    -0.506 OA
ATOM     23  H   LIG A   1      -5.997   3.843 134.123  0.00  0.00    +0.292 HD
ENDBRANCH   1  22
BRANCH   9  24
ATOM     24  O   LIG A   1      -3.171   7.164 130.908  0.00  0.00    -0.495 OA
ATOM     25  C   LIG A   1      -2.601   6.324 129.908  0.00  0.00    +0.277 C 
ENDBRANCH   9  24
TORSDOF 5
ENDMDL
MODEL 3
REMARK VINA RESULT:      -7.3      4.690      7.357
REMARK  Name = NuBBE_68
REMARK  8 active torsions:
REMARK  status: ('A' for Active; 'I' for Inactive)
REMARK    1  A    between atoms: O_1  and  C_2
REMARK    2  A    between atoms: C_6  and  C_14
REMARK    3  A    between atoms: C_10  and  O_11
REMARK    4  A    between atoms: O_11  and  C_12
REMARK    5  A    between atoms: C_16  and  O_17
REMARK    6  A    between atoms: O_17  and  C_18
REMARK    7  A    between atoms: C_19  and  O_22
REMARK    8  A    between atoms: O_22  and  C_23
REMARK                            x       y       z     vdW  Elec       q    Type
REMARK                         _______ _______ _______ _____ _____    ______ ____
ROOT
ATOM      1  C   LIG A   1     -11.216   6.557 131.254  0.00  0.00    +0.134 A 
ATOM      2  C   LIG A   1      -9.822   6.498 131.314  0.00  0.00    +0.101 A 
ATOM      3  C   LIG A   1      -9.135   5.676 132.325  0.00  0.00    +0.174 C 
ATOM      4  C   LIG A   1      -7.644   5.537 132.187  0.00  0.00    +0.129 C 
ATOM      5  C   LIG A   1      -7.084   6.837 131.626  0.00  0.00    +0.211 C 
ATOM      6  O   LIG A   1      -7.682   7.156 130.355  0.00  0.00    -0.483 OA
ATOM      7  C   LIG A   1      -9.052   7.180 130.374  0.00  0.00    +0.139 A 
ATOM      8  C   LIG A   1      -9.684   7.903 129.359  0.00  0.00    +0.092 A 
ATOM      9  C   LIG A   1     -11.082   7.967 129.299  0.00  0.00    +0.127 A 
ATOM     10  C   LIG A   1     -11.845   7.292 130.252  0.00  0.00    +0.092 A 
ATOM     11  O   LIG A   1      -9.789   5.086 133.178  0.00  0.00    -0.292 OA
ENDROOT
BRANCH   5  12
ATOM     12  C   LIG A   1      -5.574   6.744 131.447  0.00  0.00    -0.003 A 
ATOM     13  C   LIG A   1      -4.980   7.010 130.201  0.00  0.00    +0.056 A 
ATOM     14  C   LIG A   1      -3.584   6.949 130.021  0.00  0.00    +0.162 A 
ATOM     15  C   LIG A   1      -2.763   6.571 131.093  0.00  0.00    +0.162 A 
ATOM     16  C   LIG A   1      -3.348   6.325 132.340  0.00  0.00    +0.050 A 
ATOM     17  C   LIG A   1      -4.733   6.417 132.517  0.00  0.00    +0.011 A 
BRANCH  14  18
ATOM     18  O   LIG A   1      -3.185   7.217 128.734  0.00  0.00    -0.491 OA
ATOM     19  C   LIG A   1      -3.590   6.287 127.734  0.00  0.00    +0.277 C 
ENDBRANCH  14  18
BRANCH  15  20
ATOM     20  O   LIG A   1      -1.409   6.495 130.903  0.00  0.00    -0.491 OA
ATOM     21  C   LIG A   1      -0.598   6.625 132.064  0.00  0.00    +0.277 C 
ENDBRANCH  15  20
ENDBRANCH   5  12
BRANCH   1  22
ATOM     22  O   LIG A   1     -12.035   5.904 132.135  0.00  0.00    -0.506 OA
ATOM     23  H   LIG A   1     -11.727   6.107 133.047  0.00  0.00    +0.292 HD
ENDBRANCH   1  22
BRANCH   9  24
ATOM     24  O   LIG A   1     -11.589   8.715 128.269  0.00  0.00    -0.495 OA
ATOM     25  C   LIG A   1     -13.006   8.860 128.241  0.00  0.00    +0.277 C 
ENDBRANCH   9  24
TORSDOF 5
ENDMDL
MODEL 4
REMARK VINA RESULT:      -7.0      7.211      8.928
REMARK  Name = NuBBE_68
REMARK  8 active torsions:
REMARK  status: ('A' for Active; 'I' for Inactive)
REMARK    1  A    between atoms: O_1  and  C_2
REMARK    2  A    between atoms: C_6  and  C_14
REMARK    3  A    between atoms: C_10  and  O_11
REMARK    4  A    between atoms: O_11  and  C_12
REMARK    5  A    between atoms: C_16  and  O_17
REMARK    6  A    between atoms: O_17  and  C_18
REMARK    7  A    between atoms: C_19  and  O_22
REMARK    8  A    between atoms: O_22  and  C_23
REMARK                            x       y       z     vdW  Elec       q    Type
REMARK                         _______ _______ _______ _____ _____    ______ ____
ROOT
ATOM      1  C   LIG A   1      -8.490  -2.571 124.678  0.00  0.00    +0.134 A 
ATOM      2  C   LIG A   1      -7.906  -1.358 125.050  0.00  0.00    +0.101 A 
ATOM      3  C   LIG A   1      -8.729  -0.222 125.501  0.00  0.00    +0.174 C 
ATOM      4  C   LIG A   1      -7.995   0.970 126.051  0.00  0.00    +0.129 C 
ATOM      5  C   LIG A   1      -6.678   1.119 125.301  0.00  0.00    +0.211 C 
ATOM      6  O   LIG A   1      -5.873  -0.070 125.420  0.00  0.00    -0.483 OA
ATOM      7  C   LIG A   1      -6.520  -1.220 125.051  0.00  0.00    +0.139 A 
ATOM      8  C   LIG A   1      -5.719  -2.310 124.701  0.00  0.00    +0.092 A 
ATOM      9  C   LIG A   1      -6.301  -3.526 124.324  0.00  0.00    +0.127 A 
ATOM     10  C   LIG A   1      -7.691  -3.652 124.313  0.00  0.00    +0.092 A 
ATOM     11  O   LIG A   1      -9.951  -0.310 125.486  0.00  0.00    -0.292 OA
ENDROOT
BRANCH   5  12
ATOM     12  C   LIG A   1      -5.882   2.304 125.834  0.00  0.00    -0.003 A 
ATOM     13  C   LIG A   1      -4.603   2.120 126.387  0.00  0.00    +0.056 A 
ATOM     14  C   LIG A   1      -3.844   3.206 126.866  0.00  0.00    +0.162 A 
ATOM     15  C   LIG A   1      -4.387   4.499 126.835  0.00  0.00    +0.162 A 
ATOM     16  C   LIG A   1      -5.651   4.688 126.267  0.00  0.00    +0.050 A 
ATOM     17  C   LIG A   1      -6.386   3.608 125.767  0.00  0.00    +0.011 A 
BRANCH  14  18
ATOM     18  O   LIG A   1      -2.630   2.836 127.392  0.00  0.00    -0.491 OA
ATOM     19  C   LIG A   1      -1.501   2.943 126.529  0.00  0.00    +0.277 C 
ENDBRANCH  14  18
BRANCH  15  20
ATOM     20  O   LIG A   1      -3.649   5.545 127.322  0.00  0.00    -0.491 OA
ATOM     21  C   LIG A   1      -3.987   6.006 128.624  0.00  0.00    +0.277 C 
ENDBRANCH  15  20
ENDBRANCH   5  12
BRANCH   1  22
ATOM     22  O   LIG A   1      -9.842  -2.783 124.664  0.00  0.00    -0.506 OA
ATOM     23  H   LIG A   1     -10.165  -2.753 125.593  0.00  0.00    +0.292 HD
ENDBRANCH   1  22
BRANCH   9  24
ATOM     24  O   LIG A   1      -5.418  -4.519 123.990  0.00  0.00    -0.495 OA
ATOM     25  C   LIG A   1      -4.142  -4.091 123.522  0.00  0.00    +0.277 C 
ENDBRANCH   9  24
TORSDOF 5
ENDMDL
MODEL 5
REMARK VINA RESULT:      -6.9      6.602     10.681
REMARK  Name = NuBBE_68
REMARK  8 active torsions:
REMARK  status: ('A' for Active; 'I' for Inactive)
REMARK    1  A    between atoms: O_1  and  C_2
REMARK    2  A    between atoms: C_6  and  C_14
REMARK    3  A    between atoms: C_10  and  O_11
REMARK    4  A    between atoms: O_11  and  C_12
REMARK    5  A    between atoms: C_16  and  O_17
REMARK    6  A    between atoms: O_17  and  C_18
REMARK    7  A    between atoms: C_19  and  O_22
REMARK    8  A    between atoms: O_22  and  C_23
REMARK                            x       y       z     vdW  Elec       q    Type
REMARK                         _______ _______ _______ _____ _____    ______ ____
ROOT
ATOM      1  C   LIG A   1      -9.510   0.007 123.479  0.00  0.00    +0.134 A 
ATOM      2  C   LIG A   1      -8.965  -0.621 124.602  0.00  0.00    +0.101 A 
ATOM      3  C   LIG A   1      -8.996  -2.086 124.748  0.00  0.00    +0.174 C 
ATOM      4  C   LIG A   1      -8.223  -2.669 125.898  0.00  0.00    +0.129 C 
ATOM      5  C   LIG A   1      -8.287  -1.698 127.070  0.00  0.00    +0.211 C 
ATOM      6  O   LIG A   1      -7.757  -0.408 126.706  0.00  0.00    -0.483 OA
ATOM      7  C   LIG A   1      -8.331   0.134 125.586  0.00  0.00    +0.139 A 
ATOM      8  C   LIG A   1      -8.223   1.519 125.430  0.00  0.00    +0.092 A 
ATOM      9  C   LIG A   1      -8.772   2.151 124.308  0.00  0.00    +0.127 A 
ATOM     10  C   LIG A   1      -9.417   1.388 123.333  0.00  0.00    +0.092 A 
ATOM     11  O   LIG A   1      -9.569  -2.771 123.908  0.00  0.00    -0.292 OA
ENDROOT
BRANCH   5  12
ATOM     12  C   LIG A   1      -7.500  -2.232 128.260  0.00  0.00    -0.003 A 
ATOM     13  C   LIG A   1      -6.097  -2.154 128.288  0.00  0.00    +0.056 A 
ATOM     14  C   LIG A   1      -5.354  -2.623 129.389  0.00  0.00    +0.162 A 
ATOM     15  C   LIG A   1      -6.018  -3.224 130.469  0.00  0.00    +0.162 A 
ATOM     16  C   LIG A   1      -7.416  -3.283 130.454  0.00  0.00    +0.050 A 
ATOM     17  C   LIG A   1      -8.148  -2.788 129.369  0.00  0.00    +0.011 A 
BRANCH  14  18
ATOM     18  O   LIG A   1      -3.996  -2.488 129.231  0.00  0.00    -0.491 OA
ATOM     19  C   LIG A   1      -3.275  -3.661 128.870  0.00  0.00    +0.277 C 
ENDBRANCH  14  18
BRANCH  15  20
ATOM     20  O   LIG A   1      -5.286  -3.695 131.525  0.00  0.00    -0.491 OA
ATOM     21  C   LIG A   1      -5.293  -5.104 131.722  0.00  0.00    +0.277 C 
ENDBRANCH  15  20
ENDBRANCH   5  12
BRANCH   1  22
ATOM     22  O   LIG A   1     -10.136  -0.671 122.469  0.00  0.00    -0.506 OA
ATOM     23  H   LIG A   1     -10.122  -1.630 122.688  0.00  0.00    +0.292 HD
ENDBRANCH   1  22
BRANCH   9  24
ATOM     24  O   LIG A   1      -8.616   3.511 124.268  0.00  0.00    -0.495 OA
ATOM     25  C   LIG A   1      -7.970   4.101 125.393  0.00  0.00    +0.277 C 
ENDBRANCH   9  24
TORSDOF 5
ENDMDL
MODEL 6
REMARK VINA RESULT:      -6.8      4.419      7.512
REMARK  Name = NuBBE_68
REMARK  8 active torsions:
REMARK  status: ('A' for Active; 'I' for Inactive)
REMARK    1  A    between atoms: O_1  and  C_2
REMARK    2  A    between atoms: C_6  and  C_14
REMARK    3  A    between atoms: C_10  and  O_11
REMARK    4  A    between atoms: O_11  and  C_12
REMARK    5  A    between atoms: C_16  and  O_17
REMARK    6  A    between atoms: O_17  and  C_18
REMARK    7  A    between atoms: C_19  and  O_22
REMARK    8  A    between atoms: O_22  and  C_23
REMARK                            x       y       z     vdW  Elec       q    Type
REMARK                         _______ _______ _______ _____ _____    ______ ____
ROOT
ATOM      1  C   LIG A   1     -11.066   5.141 130.127  0.00  0.00    +0.134 A 
ATOM      2  C   LIG A   1      -9.739   5.404 130.474  0.00  0.00    +0.101 A 
ATOM      3  C   LIG A   1      -8.875   4.354 131.038  0.00  0.00    +0.174 C 
ATOM      4  C   LIG A   1      -7.419   4.691 131.205  0.00  0.00    +0.129 C 
ATOM      5  C   LIG A   1      -7.298   6.168 131.554  0.00  0.00    +0.211 C 
ATOM      6  O   LIG A   1      -7.896   6.994 130.535  0.00  0.00    -0.483 OA
ATOM      7  C   LIG A   1      -9.192   6.663 130.240  0.00  0.00    +0.139 A 
ATOM      8  C   LIG A   1      -9.973   7.652 129.634  0.00  0.00    +0.092 A 
ATOM      9  C   LIG A   1     -11.304   7.392 129.289  0.00  0.00    +0.127 A 
ATOM     10  C   LIG A   1     -11.848   6.131 129.538  0.00  0.00    +0.092 A 
ATOM     11  O   LIG A   1      -9.339   3.244 131.276  0.00  0.00    -0.292 OA
ENDROOT
BRANCH   5  12
ATOM     12  C   LIG A   1      -5.837   6.570 131.714  0.00  0.00    -0.003 A 
ATOM     13  C   LIG A   1      -5.110   6.194 132.856  0.00  0.00    +0.056 A 
ATOM     14  C   LIG A   1      -3.752   6.538 133.012  0.00  0.00    +0.162 A 
ATOM     15  C   LIG A   1      -3.116   7.312 132.029  0.00  0.00    +0.162 A 
ATOM     16  C   LIG A   1      -3.831   7.669 130.882  0.00  0.00    +0.050 A 
ATOM     17  C   LIG A   1      -5.170   7.298 130.722  0.00  0.00    +0.011 A 
BRANCH  14  18
ATOM     18  O   LIG A   1      -3.211   6.108 134.198  0.00  0.00    -0.491 OA
ATOM     19  C   LIG A   1      -3.771   4.928 134.766  0.00  0.00    +0.277 C 
ENDBRANCH  14  18
BRANCH  15  20
ATOM     20  O   LIG A   1      -1.802   7.658 132.200  0.00  0.00    -0.491 OA
ATOM     21  C   LIG A   1      -0.837   6.669 131.858  0.00  0.00    +0.277 C 
ENDBRANCH  15  20
ENDBRANCH   5  12
BRANCH   1  22
ATOM     22  O   LIG A   1     -11.666   3.925 130.316  0.00  0.00    -0.506 OA
ATOM     23  H   LIG A   1     -12.559   4.081 130.699  0.00  0.00    +0.292 HD
ENDBRANCH   1  22
BRANCH   9  24
ATOM     24  O   LIG A   1     -11.975   8.439 128.713  0.00  0.00    -0.495 OA
ATOM     25  C   LIG A   1     -12.733   9.259 129.598  0.00  0.00    +0.277 C 
ENDBRANCH   9  24
TORSDOF 5
ENDMDL
MODEL 7
REMARK VINA RESULT:      -6.6      2.101      7.252
REMARK  Name = NuBBE_68
REMARK  8 active torsions:
REMARK  status: ('A' for Active; 'I' for Inactive)
REMARK    1  A    between atoms: O_1  and  C_2
REMARK    2  A    between atoms: C_6  and  C_14
REMARK    3  A    between atoms: C_10  and  O_11
REMARK    4  A    between atoms: O_11  and  C_12
REMARK    5  A    between atoms: C_16  and  O_17
REMARK    6  A    between atoms: O_17  and  C_18
REMARK    7  A    between atoms: C_19  and  O_22
REMARK    8  A    between atoms: O_22  and  C_23
REMARK                            x       y       z     vdW  Elec       q    Type
REMARK                         _______ _______ _______ _____ _____    ______ ____
ROOT
ATOM      1  C   LIG A   1     -10.061   5.825 132.424  0.00  0.00    +0.134 A 
ATOM      2  C   LIG A   1      -9.621   4.734 131.672  0.00  0.00    +0.101 A 
ATOM      3  C   LIG A   1      -8.494   3.900 132.123  0.00  0.00    +0.174 C 
ATOM      4  C   LIG A   1      -8.220   2.648 131.337  0.00  0.00    +0.129 C 
ATOM      5  C   LIG A   1      -8.551   2.909 129.873  0.00  0.00    +0.211 C 
ATOM      6  O   LIG A   1      -9.924   3.316 129.715  0.00  0.00    -0.483 OA
ATOM      7  C   LIG A   1     -10.283   4.382 130.498  0.00  0.00    +0.139 A 
ATOM      8  C   LIG A   1     -11.402   5.113 130.092  0.00  0.00    +0.092 A 
ATOM      9  C   LIG A   1     -11.844   6.210 130.842  0.00  0.00    +0.127 A 
ATOM     10  C   LIG A   1     -11.167   6.563 132.010  0.00  0.00    +0.092 A 
ATOM     11  O   LIG A   1      -7.879   4.203 133.139  0.00  0.00    -0.292 OA
ENDROOT
BRANCH   5  12
ATOM     12  C   LIG A   1      -8.310   1.662 129.032  0.00  0.00    -0.003 A 
ATOM     13  C   LIG A   1      -8.598   1.656 127.657  0.00  0.00    +0.056 A 
ATOM     14  C   LIG A   1      -8.362   0.519 126.859  0.00  0.00    +0.162 A 
ATOM     15  C   LIG A   1      -7.870  -0.654 127.451  0.00  0.00    +0.162 A 
ATOM     16  C   LIG A   1      -7.563  -0.644 128.815  0.00  0.00    +0.050 A 
ATOM     17  C   LIG A   1      -7.772   0.498 129.594  0.00  0.00    +0.011 A 
BRANCH  14  18
ATOM     18  O   LIG A   1      -8.725   0.687 125.545  0.00  0.00    -0.491 OA
ATOM     19  C   LIG A   1      -8.777   2.026 125.063  0.00  0.00    +0.277 C 
ENDBRANCH  14  18
BRANCH  15  20
ATOM     20  O   LIG A   1      -7.664  -1.760 126.671  0.00  0.00    -0.491 OA
ATOM     21  C   LIG A   1      -6.327  -1.992 126.243  0.00  0.00    +0.277 C 
ENDBRANCH  15  20
ENDBRANCH   5  12
BRANCH   1  22
ATOM     22  O   LIG A   1      -9.468   6.221 133.592  0.00  0.00    -0.506 OA
ATOM     23  H   LIG A   1      -9.727   5.585 134.298  0.00  0.00    +0.292 HD
ENDBRANCH   1  22
BRANCH   9  24
ATOM     24  O   LIG A   1     -12.942   6.858 130.342  0.00  0.00    -0.495 OA
ATOM     25  C   LIG A   1     -13.120   6.789 128.930  0.00  0.00    +0.277 C 
ENDBRANCH   9  24
TORSDOF 5
ENDMDL
MODEL 8
REMARK VINA RESULT:      -6.6      1.544      7.735
REMARK  Name = NuBBE_68
REMARK  8 active torsions:
REMARK  status: ('A' for Active; 'I' for Inactive)
REMARK    1  A    between atoms: O_1  and  C_2
REMARK    2  A    between atoms: C_6  and  C_14
REMARK    3  A    between atoms: C_10  and  O_11
REMARK    4  A    between atoms: O_11  and  C_12
REMARK    5  A    between atoms: C_16  and  O_17
REMARK    6  A    between atoms: O_17  and  C_18
REMARK    7  A    between atoms: C_19  and  O_22
REMARK    8  A    between atoms: O_22  and  C_23
REMARK                            x       y       z     vdW  Elec       q    Type
REMARK                         _______ _______ _______ _____ _____    ______ ____
ROOT
ATOM      1  C   LIG A   1     -11.188   7.963 127.875  0.00  0.00    +0.134 A 
ATOM      2  C   LIG A   1     -10.601   6.943 128.627  0.00  0.00    +0.101 A 
ATOM      3  C   LIG A   1      -9.605   6.034 128.035  0.00  0.00    +0.174 C 
ATOM      4  C   LIG A   1      -8.902   5.093 128.975  0.00  0.00    +0.129 C 
ATOM      5  C   LIG A   1      -9.875   4.687 130.074  0.00  0.00    +0.211 C 
ATOM      6  O   LIG A   1     -10.367   5.840 130.786  0.00  0.00    -0.483 OA
ATOM      7  C   LIG A   1     -10.913   6.802 129.977  0.00  0.00    +0.139 A 
ATOM      8  C   LIG A   1     -11.797   7.702 130.578  0.00  0.00    +0.092 A 
ATOM      9  C   LIG A   1     -12.390   8.723 129.826  0.00  0.00    +0.127 A 
ATOM     10  C   LIG A   1     -12.081   8.850 128.471  0.00  0.00    +0.092 A 
ATOM     11  O   LIG A   1      -9.331   6.122 126.843  0.00  0.00    -0.292 OA
ENDROOT
BRANCH   5  12
ATOM     12  C   LIG A   1      -9.207   3.747 131.069  0.00  0.00    -0.003 A 
ATOM     13  C   LIG A   1      -8.452   2.648 130.624  0.00  0.00    +0.056 A 
ATOM     14  C   LIG A   1      -7.810   1.779 131.528  0.00  0.00    +0.162 A 
ATOM     15  C   LIG A   1      -7.957   1.983 132.909  0.00  0.00    +0.162 A 
ATOM     16  C   LIG A   1      -8.689   3.088 133.354  0.00  0.00    +0.050 A 
ATOM     17  C   LIG A   1      -9.300   3.962 132.449  0.00  0.00    +0.011 A 
BRANCH  14  18
ATOM     18  O   LIG A   1      -7.139   0.749 130.916  0.00  0.00    -0.491 OA
ATOM     19  C   LIG A   1      -7.513   0.451 129.575  0.00  0.00    +0.277 C 
ENDBRANCH  14  18
BRANCH  15  20
ATOM     20  O   LIG A   1      -7.345   1.122 133.780  0.00  0.00    -0.491 OA
ATOM     21  C   LIG A   1      -6.068   1.517 134.268  0.00  0.00    +0.277 C 
ENDBRANCH  15  20
ENDBRANCH   5  12
BRANCH   1  22
ATOM     22  O   LIG A   1     -10.920   8.169 126.549  0.00  0.00    -0.506 OA
ATOM     23  H   LIG A   1     -11.702   7.875 126.029  0.00  0.00    +0.292 HD
ENDBRANCH   1  22
BRANCH   9  24
ATOM     24  O   LIG A   1     -13.248   9.537 130.517  0.00  0.00    -0.495 OA
ATOM     25  C   LIG A   1     -13.462  10.834 129.967  0.00  0.00    +0.277 C 
ENDBRANCH   9  24
TORSDOF 5
ENDMDL
MODEL 9
REMARK VINA RESULT:      -6.5      2.024      7.625
REMARK  Name = NuBBE_68
REMARK  8 active torsions:
REMARK  status: ('A' for Active; 'I' for Inactive)
REMARK    1  A    between atoms: O_1  and  C_2
REMARK    2  A    between atoms: C_6  and  C_14
REMARK    3  A    between atoms: C_10  and  O_11
REMARK    4  A    between atoms: O_11  and  C_12
REMARK    5  A    between atoms: C_16  and  O_17
REMARK    6  A    between atoms: O_17  and  C_18
REMARK    7  A    between atoms: C_19  and  O_22
REMARK    8  A    between atoms: O_22  and  C_23
REMARK                            x       y       z     vdW  Elec       q    Type
REMARK                         _______ _______ _______ _____ _____    ______ ____
ROOT
ATOM      1  C   LIG A   1      -9.764   5.703 132.465  0.00  0.00    +0.134 A 
ATOM      2  C   LIG A   1      -9.381   4.637 131.648  0.00  0.00    +0.101 A 
ATOM      3  C   LIG A   1      -8.201   3.816 131.969  0.00  0.00    +0.174 C 
ATOM      4  C   LIG A   1      -7.983   2.586 131.131  0.00  0.00    +0.129 C 
ATOM      5  C   LIG A   1      -8.458   2.873 129.713  0.00  0.00    +0.211 C 
ATOM      6  O   LIG A   1      -9.847   3.257 129.697  0.00  0.00    -0.483 OA
ATOM      7  C   LIG A   1     -10.146   4.298 130.535  0.00  0.00    +0.139 A 
ATOM      8  C   LIG A   1     -11.312   5.017 130.257  0.00  0.00    +0.092 A 
ATOM      9  C   LIG A   1     -11.698   6.088 131.072  0.00  0.00    +0.127 A 
ATOM     10  C   LIG A   1     -10.917   6.429 132.178  0.00  0.00    +0.092 A 
ATOM     11  O   LIG A   1      -7.496   4.108 132.928  0.00  0.00    -0.292 OA
ENDROOT
BRANCH   5  12
ATOM     12  C   LIG A   1      -8.279   1.649 128.823  0.00  0.00    -0.003 A 
ATOM     13  C   LIG A   1      -7.751   0.454 129.342  0.00  0.00    +0.056 A 
ATOM     14  C   LIG A   1      -7.598  -0.694 128.540  0.00  0.00    +0.162 A 
ATOM     15  C   LIG A   1      -7.936  -0.639 127.179  0.00  0.00    +0.162 A 
ATOM     16  C   LIG A   1      -8.481   0.542 126.665  0.00  0.00    +0.050 A 
ATOM     17  C   LIG A   1      -8.658   1.668 127.475  0.00  0.00    +0.011 A 
BRANCH  14  18
ATOM     18  O   LIG A   1      -7.046  -1.759 129.208  0.00  0.00    -0.491 OA
ATOM     19  C   LIG A   1      -7.954  -2.701 129.770  0.00  0.00    +0.277 C 
ENDBRANCH  14  18
BRANCH  15  20
ATOM     20  O   LIG A   1      -7.764  -1.754 126.403  0.00  0.00    -0.491 OA
ATOM     21  C   LIG A   1      -8.930  -2.275 125.775  0.00  0.00    +0.277 C 
ENDBRANCH  15  20
ENDBRANCH   5  12
BRANCH   1  22
ATOM     22  O   LIG A   1      -9.068   6.085 133.580  0.00  0.00    -0.506 OA
ATOM     23  H   LIG A   1      -8.200   6.448 133.290  0.00  0.00    +0.292 HD
ENDBRANCH   1  22
BRANCH   9  24
ATOM     24  O   LIG A   1     -12.850   6.725 130.695  0.00  0.00    -0.495 OA
ATOM     25  C   LIG A   1     -12.858   7.281 129.383  0.00  0.00    +0.277 C 
ENDBRANCH   9  24
TORSDOF 5
ENDMDL
