MODEL 1
REMARK VINA RESULT:      -6.5      0.000      0.000
REMARK  Name = NuBBE_405
REMARK  4 active torsions:
REMARK  status: ('A' for Active; 'I' for Inactive)
REMARK    1  A    between atoms: C_1  and  C_2
REMARK    2  A    between atoms: C_6  and  O_7
REMARK    3  A    between atoms: O_7  and  C_8
REMARK    4  A    between atoms: C_10  and  O_11
REMARK                            x       y       z     vdW  Elec       q    Type
REMARK                         _______ _______ _______ _____ _____    ______ ____
ROOT
ATOM      1  C   LIG A   1      -9.530   5.176 132.945  0.00  0.00    +0.086 C 
ATOM      2  C   LIG A   1      -9.915   5.751 131.620  0.00  0.00    +0.107 A 
ATOM      3  C   LIG A   1     -10.855   6.686 131.455  0.00  0.00    +0.050 A 
ATOM      4  C   LIG A   1     -11.139   7.163 130.111  0.00  0.00    -0.001 A 
ATOM      5  C   LIG A   1     -12.125   8.143 129.922  0.00  0.00    +0.054 A 
ATOM      6  C   LIG A   1     -12.425   8.625 128.646  0.00  0.00    +0.124 A 
ATOM      7  C   LIG A   1     -11.731   8.122 127.548  0.00  0.00    +0.091 A 
ATOM      8  C   LIG A   1     -10.745   7.144 127.730  0.00  0.00    +0.135 A 
ATOM      9  C   LIG A   1     -10.439   6.653 129.010  0.00  0.00    +0.108 A 
ATOM     10  C   LIG A   1      -9.393   5.610 129.232  0.00  0.00    +0.348 A 
ATOM     11  O   LIG A   1      -9.193   5.218 130.531  0.00  0.00    -0.427 OA
ATOM     12  O   LIG A   1      -8.731   5.108 128.333  0.00  0.00    -0.244 OA
ENDROOT
BRANCH   6  13
ATOM     13  O   LIG A   1     -13.407   9.576 128.614  0.00  0.00    -0.495 OA
ATOM     14  C   LIG A   1     -13.393  10.560 129.640  0.00  0.00    +0.277 C 
ENDBRANCH   6  13
BRANCH   8  15
ATOM     15  O   LIG A   1     -10.087   6.676 126.627  0.00  0.00    -0.506 OA
ATOM     16  H   LIG A   1      -9.570   5.883 126.839  0.00  0.00    +0.292 HD
ENDBRANCH   8  15
TORSDOF 2
ENDMDL
MODEL 2
REMARK VINA RESULT:      -6.2      1.055      4.495
REMARK  Name = NuBBE_405
REMARK  4 active torsions:
REMARK  status: ('A' for Active; 'I' for Inactive)
REMARK    1  A    between atoms: C_1  and  C_2
REMARK    2  A    between atoms: C_6  and  O_7
REMARK    3  A    between atoms: O_7  and  C_8
REMARK    4  A    between atoms: C_10  and  O_11
REMARK                            x       y       z     vdW  Elec       q    Type
REMARK                         _______ _______ _______ _____ _____    ______ ____
ROOT
ATOM      1  C   LIG A   1     -13.714   9.744 128.444  0.00  0.00    +0.086 C 
ATOM      2  C   LIG A   1     -12.666   8.717 128.729  0.00  0.00    +0.107 A 
ATOM      3  C   LIG A   1     -12.377   8.261 129.951  0.00  0.00    +0.050 A 
ATOM      4  C   LIG A   1     -11.332   7.261 130.095  0.00  0.00    -0.001 A 
ATOM      5  C   LIG A   1     -11.017   6.774 131.373  0.00  0.00    +0.054 A 
ATOM      6  C   LIG A   1     -10.018   5.814 131.550  0.00  0.00    +0.124 A 
ATOM      7  C   LIG A   1      -9.329   5.335 130.439  0.00  0.00    +0.091 A 
ATOM      8  C   LIG A   1      -9.639   5.817 129.160  0.00  0.00    +0.135 A 
ATOM      9  C   LIG A   1     -10.641   6.784 128.974  0.00  0.00    +0.108 A 
ATOM     10  C   LIG A   1     -10.991   7.315 127.622  0.00  0.00    +0.348 A 
ATOM     11  O   LIG A   1     -11.988   8.256 127.581  0.00  0.00    -0.427 OA
ATOM     12  O   LIG A   1     -10.443   6.957 126.588  0.00  0.00    -0.244 OA
ENDROOT
BRANCH   6  13
ATOM     13  O   LIG A   1      -9.819   5.434 132.849  0.00  0.00    -0.495 OA
ATOM     14  C   LIG A   1      -8.527   5.654 133.400  0.00  0.00    +0.277 C 
ENDBRANCH   6  13
BRANCH   8  15
ATOM     15  O   LIG A   1      -8.939   5.322 128.095  0.00  0.00    -0.506 OA
ATOM     16  H   LIG A   1      -8.718   4.387 128.228  0.00  0.00    +0.292 HD
ENDBRANCH   8  15
TORSDOF 2
ENDMDL
MODEL 3
REMARK VINA RESULT:      -6.1      8.649     10.222
REMARK  Name = NuBBE_405
REMARK  4 active torsions:
REMARK  status: ('A' for Active; 'I' for Inactive)
REMARK    1  A    between atoms: C_1  and  C_2
REMARK    2  A    between atoms: C_6  and  O_7
REMARK    3  A    between atoms: O_7  and  C_8
REMARK    4  A    between atoms: C_10  and  O_11
REMARK                            x       y       z     vdW  Elec       q    Type
REMARK                         _______ _______ _______ _____ _____    ______ ____
ROOT
ATOM      1  C   LIG A   1      -5.694  -3.460 124.226  0.00  0.00    +0.086 C 
ATOM      2  C   LIG A   1      -6.656  -2.361 123.906  0.00  0.00    +0.107 A 
ATOM      3  C   LIG A   1      -6.340  -1.064 123.918  0.00  0.00    +0.050 A 
ATOM      4  C   LIG A   1      -7.369  -0.090 123.588  0.00  0.00    -0.001 A 
ATOM      5  C   LIG A   1      -7.053   1.277 123.598  0.00  0.00    +0.054 A 
ATOM      6  C   LIG A   1      -8.016   2.239 123.287  0.00  0.00    +0.124 A 
ATOM      7  C   LIG A   1      -9.307   1.832 122.962  0.00  0.00    +0.091 A 
ATOM      8  C   LIG A   1      -9.629   0.468 122.949  0.00  0.00    +0.135 A 
ATOM      9  C   LIG A   1      -8.667  -0.506 123.262  0.00  0.00    +0.108 A 
ATOM     10  C   LIG A   1      -8.983  -1.967 123.257  0.00  0.00    +0.348 A 
ATOM     11  O   LIG A   1      -7.954  -2.811 123.582  0.00  0.00    -0.427 OA
ATOM     12  O   LIG A   1     -10.086  -2.422 122.985  0.00  0.00    -0.244 OA
ENDROOT
BRANCH   6  13
ATOM     13  O   LIG A   1      -7.566   3.530 123.339  0.00  0.00    -0.495 OA
ATOM     14  C   LIG A   1      -6.206   3.759 122.993  0.00  0.00    +0.277 C 
ENDBRANCH   6  13
BRANCH   8  15
ATOM     15  O   LIG A   1     -10.908   0.109 122.625  0.00  0.00    -0.506 OA
ATOM     16  H   LIG A   1     -11.325  -0.384 123.348  0.00  0.00    +0.292 HD
ENDBRANCH   8  15
TORSDOF 2
ENDMDL
MODEL 4
REMARK VINA RESULT:      -5.9      2.499      5.467
REMARK  Name = NuBBE_405
REMARK  4 active torsions:
REMARK  status: ('A' for Active; 'I' for Inactive)
REMARK    1  A    between atoms: C_1  and  C_2
REMARK    2  A    between atoms: C_6  and  O_7
REMARK    3  A    between atoms: O_7  and  C_8
REMARK    4  A    between atoms: C_10  and  O_11
REMARK                            x       y       z     vdW  Elec       q    Type
REMARK                         _______ _______ _______ _____ _____    ______ ____
ROOT
ATOM      1  C   LIG A   1     -11.698   8.368 127.749  0.00  0.00    +0.086 C 
ATOM      2  C   LIG A   1     -11.033   7.755 128.939  0.00  0.00    +0.107 A 
ATOM      3  C   LIG A   1      -9.712   7.744 129.134  0.00  0.00    +0.050 A 
ATOM      4  C   LIG A   1      -9.187   7.113 130.335  0.00  0.00    -0.001 A 
ATOM      5  C   LIG A   1      -7.801   7.092 130.553  0.00  0.00    +0.054 A 
ATOM      6  C   LIG A   1      -7.262   6.494 131.693  0.00  0.00    +0.124 A 
ATOM      7  C   LIG A   1      -8.116   5.912 132.627  0.00  0.00    +0.091 A 
ATOM      8  C   LIG A   1      -9.501   5.930 132.415  0.00  0.00    +0.135 A 
ATOM      9  C   LIG A   1     -10.051   6.527 131.269  0.00  0.00    +0.108 A 
ATOM     10  C   LIG A   1     -11.524   6.560 131.018  0.00  0.00    +0.348 A 
ATOM     11  O   LIG A   1     -11.929   7.174 129.861  0.00  0.00    -0.427 OA
ATOM     12  O   LIG A   1     -12.353   6.076 131.777  0.00  0.00    -0.244 OA
ENDROOT
BRANCH   6  13
ATOM     13  O   LIG A   1      -5.897   6.549 131.772  0.00  0.00    -0.495 OA
ATOM     14  C   LIG A   1      -5.218   7.305 130.778  0.00  0.00    +0.277 C 
ENDBRANCH   6  13
BRANCH   8  15
ATOM     15  O   LIG A   1     -10.306   5.347 133.354  0.00  0.00    -0.506 OA
ATOM     16  H   LIG A   1     -11.098   5.883 133.515  0.00  0.00    +0.292 HD
ENDBRANCH   8  15
TORSDOF 2
ENDMDL
MODEL 5
REMARK VINA RESULT:      -5.8      2.239      3.351
REMARK  Name = NuBBE_405
REMARK  4 active torsions:
REMARK  status: ('A' for Active; 'I' for Inactive)
REMARK    1  A    between atoms: C_1  and  C_2
REMARK    2  A    between atoms: C_6  and  O_7
REMARK    3  A    between atoms: O_7  and  C_8
REMARK    4  A    between atoms: C_10  and  O_11
REMARK                            x       y       z     vdW  Elec       q    Type
REMARK                         _______ _______ _______ _____ _____    ______ ____
ROOT
ATOM      1  C   LIG A   1      -5.568   6.502 131.514  0.00  0.00    +0.086 C 
ATOM      2  C   LIG A   1      -7.055   6.576 131.387  0.00  0.00    +0.107 A 
ATOM      3  C   LIG A   1      -7.691   7.236 130.415  0.00  0.00    +0.050 A 
ATOM      4  C   LIG A   1      -9.146   7.233 130.403  0.00  0.00    -0.001 A 
ATOM      5  C   LIG A   1      -9.827   7.923 129.389  0.00  0.00    +0.054 A 
ATOM      6  C   LIG A   1     -11.223   7.943 129.346  0.00  0.00    +0.124 A 
ATOM      7  C   LIG A   1     -11.944   7.265 130.326  0.00  0.00    +0.091 A 
ATOM      8  C   LIG A   1     -11.269   6.573 131.341  0.00  0.00    +0.135 A 
ATOM      9  C   LIG A   1      -9.866   6.550 131.392  0.00  0.00    +0.108 A 
ATOM     10  C   LIG A   1      -9.121   5.821 132.463  0.00  0.00    +0.348 A 
ATOM     11  O   LIG A   1      -7.753   5.880 132.397  0.00  0.00    -0.427 OA
ATOM     12  O   LIG A   1      -9.665   5.198 133.365  0.00  0.00    -0.244 OA
ENDROOT
BRANCH   6  13
ATOM     13  O   LIG A   1     -11.749   8.655 128.304  0.00  0.00    -0.495 OA
ATOM     14  C   LIG A   1     -13.166   8.692 128.192  0.00  0.00    +0.277 C 
ENDBRANCH   6  13
BRANCH   8  15
ATOM     15  O   LIG A   1     -12.014   5.921 132.284  0.00  0.00    -0.506 OA
ATOM     16  H   LIG A   1     -11.446   5.438 132.904  0.00  0.00    +0.292 HD
ENDBRANCH   8  15
TORSDOF 2
ENDMDL
MODEL 6
REMARK VINA RESULT:      -5.6      3.005      4.645
REMARK  Name = NuBBE_405
REMARK  4 active torsions:
REMARK  status: ('A' for Active; 'I' for Inactive)
REMARK    1  A    between atoms: C_1  and  C_2
REMARK    2  A    between atoms: C_6  and  O_7
REMARK    3  A    between atoms: O_7  and  C_8
REMARK    4  A    between atoms: C_10  and  O_11
REMARK                            x       y       z     vdW  Elec       q    Type
REMARK                         _______ _______ _______ _____ _____    ______ ____
ROOT
ATOM      1  C   LIG A   1      -4.190   6.752 131.640  0.00  0.00    +0.086 C 
ATOM      2  C   LIG A   1      -5.654   6.495 131.805  0.00  0.00    +0.107 A 
ATOM      3  C   LIG A   1      -6.596   6.993 131.000  0.00  0.00    +0.050 A 
ATOM      4  C   LIG A   1      -7.989   6.670 131.268  0.00  0.00    -0.001 A 
ATOM      5  C   LIG A   1      -8.989   7.187 130.432  0.00  0.00    +0.054 A 
ATOM      6  C   LIG A   1     -10.336   6.898 130.659  0.00  0.00    +0.124 A 
ATOM      7  C   LIG A   1     -10.687   6.083 131.733  0.00  0.00    +0.091 A 
ATOM      8  C   LIG A   1      -9.691   5.563 132.571  0.00  0.00    +0.135 A 
ATOM      9  C   LIG A   1      -8.335   5.850 132.350  0.00  0.00    +0.108 A 
ATOM     10  C   LIG A   1      -7.254   5.309 133.229  0.00  0.00    +0.348 A 
ATOM     11  O   LIG A   1      -5.971   5.667 132.902  0.00  0.00    -0.427 OA
ATOM     12  O   LIG A   1      -7.461   4.586 134.194  0.00  0.00    -0.244 OA
ENDROOT
BRANCH   6  13
ATOM     13  O   LIG A   1     -11.199   7.471 129.766  0.00  0.00    -0.495 OA
ATOM     14  C   LIG A   1     -10.798   7.501 128.402  0.00  0.00    +0.277 C 
ENDBRANCH   6  13
BRANCH   8  15
ATOM     15  O   LIG A   1     -10.076   4.767 133.614  0.00  0.00    -0.506 OA
ATOM     16  H   LIG A   1      -9.892   5.194 134.465  0.00  0.00    +0.292 HD
ENDBRANCH   8  15
TORSDOF 2
ENDMDL
MODEL 7
REMARK VINA RESULT:      -5.4      8.133      9.692
REMARK  Name = NuBBE_405
REMARK  4 active torsions:
REMARK  status: ('A' for Active; 'I' for Inactive)
REMARK    1  A    between atoms: C_1  and  C_2
REMARK    2  A    between atoms: C_6  and  O_7
REMARK    3  A    between atoms: O_7  and  C_8
REMARK    4  A    between atoms: C_10  and  O_11
REMARK                            x       y       z     vdW  Elec       q    Type
REMARK                         _______ _______ _______ _____ _____    ______ ____
ROOT
ATOM      1  C   LIG A   1      -9.268  -3.436 123.823  0.00  0.00    +0.086 C 
ATOM      2  C   LIG A   1      -8.926  -1.981 123.789  0.00  0.00    +0.107 A 
ATOM      3  C   LIG A   1      -7.901  -1.438 124.451  0.00  0.00    +0.050 A 
ATOM      4  C   LIG A   1      -7.674  -0.005 124.337  0.00  0.00    -0.001 A 
ATOM      5  C   LIG A   1      -6.602   0.579 125.028  0.00  0.00    +0.054 A 
ATOM      6  C   LIG A   1      -6.355   1.951 124.943  0.00  0.00    +0.124 A 
ATOM      7  C   LIG A   1      -7.187   2.746 124.158  0.00  0.00    +0.091 A 
ATOM      8  C   LIG A   1      -8.259   2.168 123.465  0.00  0.00    +0.135 A 
ATOM      9  C   LIG A   1      -8.515   0.789 123.547  0.00  0.00    +0.108 A 
ATOM     10  C   LIG A   1      -9.651   0.147 122.820  0.00  0.00    +0.348 A 
ATOM     11  O   LIG A   1      -9.790  -1.207 122.986  0.00  0.00    -0.427 OA
ATOM     12  O   LIG A   1     -10.436   0.760 122.108  0.00  0.00    -0.244 OA
ENDROOT
BRANCH   6  13
ATOM     13  O   LIG A   1      -5.279   2.381 125.669  0.00  0.00    -0.495 OA
ATOM     14  C   LIG A   1      -4.847   3.720 125.463  0.00  0.00    +0.277 C 
ENDBRANCH   6  13
BRANCH   8  15
ATOM     15  O   LIG A   1      -9.053   2.982 122.706  0.00  0.00    -0.506 OA
ATOM     16  H   LIG A   1      -9.613   3.543 123.265  0.00  0.00    +0.292 HD
ENDBRANCH   8  15
TORSDOF 2
ENDMDL
MODEL 8
REMARK VINA RESULT:      -5.4      9.077     11.103
REMARK  Name = NuBBE_405
REMARK  4 active torsions:
REMARK  status: ('A' for Active; 'I' for Inactive)
REMARK    1  A    between atoms: C_1  and  C_2
REMARK    2  A    between atoms: C_6  and  O_7
REMARK    3  A    between atoms: O_7  and  C_8
REMARK    4  A    between atoms: C_10  and  O_11
REMARK                            x       y       z     vdW  Elec       q    Type
REMARK                         _______ _______ _______ _____ _____    ______ ____
ROOT
ATOM      1  C   LIG A   1      -4.153  -4.481 123.546  0.00  0.00    +0.086 C 
ATOM      2  C   LIG A   1      -5.279  -3.584 123.951  0.00  0.00    +0.107 A 
ATOM      3  C   LIG A   1      -5.177  -2.257 124.054  0.00  0.00    +0.050 A 
ATOM      4  C   LIG A   1      -6.348  -1.495 124.460  0.00  0.00    -0.001 A 
ATOM      5  C   LIG A   1      -6.256  -0.100 124.574  0.00  0.00    +0.054 A 
ATOM      6  C   LIG A   1      -7.359   0.664 124.962  0.00  0.00    +0.124 A 
ATOM      7  C   LIG A   1      -8.567   0.026 125.237  0.00  0.00    +0.091 A 
ATOM      8  C   LIG A   1      -8.665  -1.367 125.124  0.00  0.00    +0.135 A 
ATOM      9  C   LIG A   1      -7.559  -2.142 124.737  0.00  0.00    +0.108 A 
ATOM     10  C   LIG A   1      -7.636  -3.629 124.609  0.00  0.00    +0.348 A 
ATOM     11  O   LIG A   1      -6.485  -4.265 124.223  0.00  0.00    -0.427 OA
ATOM     12  O   LIG A   1      -8.650  -4.278 124.829  0.00  0.00    -0.244 OA
ENDROOT
BRANCH   6  13
ATOM     13  O   LIG A   1      -7.123   2.009 125.031  0.00  0.00    -0.495 OA
ATOM     14  C   LIG A   1      -6.790   2.674 123.820  0.00  0.00    +0.277 C 
ENDBRANCH   6  13
BRANCH   8  15
ATOM     15  O   LIG A   1      -9.867  -1.955 125.404  0.00  0.00    -0.506 OA
ATOM     16  H   LIG A   1      -9.821  -2.470 126.224  0.00  0.00    +0.292 HD
ENDBRANCH   8  15
TORSDOF 2
ENDMDL
MODEL 9
REMARK VINA RESULT:      -5.4     10.480     11.324
REMARK  Name = NuBBE_405
REMARK  4 active torsions:
REMARK  status: ('A' for Active; 'I' for Inactive)
REMARK    1  A    between atoms: C_1  and  C_2
REMARK    2  A    between atoms: C_6  and  O_7
REMARK    3  A    between atoms: O_7  and  C_8
REMARK    4  A    between atoms: C_10  and  O_11
REMARK                            x       y       z     vdW  Elec       q    Type
REMARK                         _______ _______ _______ _____ _____    ______ ____
ROOT
ATOM      1  C   LIG A   1      -9.490  -3.377 123.722  0.00  0.00    +0.086 C 
ATOM      2  C   LIG A   1      -8.632  -2.996 124.886  0.00  0.00    +0.107 A 
ATOM      3  C   LIG A   1      -8.902  -3.324 126.152  0.00  0.00    +0.050 A 
ATOM      4  C   LIG A   1      -7.987  -2.891 127.197  0.00  0.00    -0.001 A 
ATOM      5  C   LIG A   1      -8.258  -3.227 128.532  0.00  0.00    +0.054 A 
ATOM      6  C   LIG A   1      -7.403  -2.828 129.561  0.00  0.00    +0.124 A 
ATOM      7  C   LIG A   1      -6.264  -2.087 129.253  0.00  0.00    +0.091 A 
ATOM      8  C   LIG A   1      -5.989  -1.749 127.921  0.00  0.00    +0.135 A 
ATOM      9  C   LIG A   1      -6.845  -2.145 126.881  0.00  0.00    +0.108 A 
ATOM     10  C   LIG A   1      -6.574  -1.798 125.453  0.00  0.00    +0.348 A 
ATOM     11  O   LIG A   1      -7.490  -2.246 124.536  0.00  0.00    -0.427 OA
ATOM     12  O   LIG A   1      -5.603  -1.152 125.083  0.00  0.00    -0.244 OA
ENDROOT
BRANCH   6  13
ATOM     13  O   LIG A   1      -7.793  -3.225 130.810  0.00  0.00    -0.495 OA
ATOM     14  C   LIG A   1      -6.844  -3.093 131.861  0.00  0.00    +0.277 C 
ENDBRANCH   6  13
BRANCH   8  15
ATOM     15  O   LIG A   1      -4.862  -1.020 127.660  0.00  0.00    -0.506 OA
ATOM     16  H   LIG A   1      -4.841  -0.207 128.189  0.00  0.00    +0.292 HD
ENDBRANCH   8  15
TORSDOF 2
ENDMDL
