MODEL 1
REMARK VINA RESULT:      -5.9      0.000      0.000
REMARK  Name = NuBBE_176
REMARK  17 active torsions:
REMARK  status: ('A' for Active; 'I' for Inactive)
REMARK    1  A    between atoms: C_1  and  C_2
REMARK    2  A    between atoms: C_4  and  O_6
REMARK    3  A    between atoms: C_9  and  C_11
REMARK    4  A    between atoms: C_11  and  C_12
REMARK    5  A    between atoms: C_12  and  C_13
REMARK    6  A    between atoms: C_13  and  C_14
REMARK    7  A    between atoms: C_14  and  C_15
REMARK    8  A    between atoms: C_15  and  C_16
REMARK    9  A    between atoms: C_16  and  C_17
REMARK   10  A    between atoms: C_17  and  C_18
REMARK   11  A    between atoms: C_18  and  C_19
REMARK   12  A    between atoms: C_19  and  C_20
REMARK   13  A    between atoms: C_20  and  C_21
REMARK   14  A    between atoms: C_21  and  C_22
REMARK   15  A    between atoms: C_22  and  C_23
REMARK   16  A    between atoms: C_23  and  O_24
REMARK   17  A    between atoms: C_23  and  C_25
REMARK                            x       y       z     vdW  Elec       q    Type
REMARK                         _______ _______ _______ _____ _____    ______ ____
ROOT
ATOM      1  C   LIG A   1      -9.286  -0.699 123.155  0.00  0.00    +0.000 C 
ENDROOT
BRANCH   1   2
ATOM      2  C   LIG A   1      -8.225   0.379 123.389  0.00  0.00    +0.002 C 
BRANCH   2   3
ATOM      3  C   LIG A   1      -8.818   1.775 123.659  0.00  0.00    +0.019 C 
BRANCH   3   9
ATOM      4  C   LIG A   1      -9.328   4.095 119.326  0.00  0.00    +0.026 C 
ATOM      5  C   LIG A   1      -8.478   4.007 120.596  0.00  0.00    +0.079 C 
ATOM      6  C   LIG A   1      -6.991   3.757 120.263  0.00  0.00    +0.131 C 
ATOM      7  C   LIG A   1      -6.183   3.728 121.554  0.00  0.00    +0.034 C 
ATOM      8  C   LIG A   1      -6.752   2.699 122.517  0.00  0.00    +0.021 C 
ATOM      9  C   LIG A   1      -8.258   2.903 122.763  0.00  0.00    +0.054 C 
ATOM     10  N   LIG A   1      -8.999   2.948 121.486  0.00  0.00    -0.308 NA
ATOM     11  H   LIG A   1      -9.986   3.126 121.675  0.00  0.00    +0.122 HD
BRANCH   6  12
ATOM     12  O   LIG A   1      -6.455   4.793 119.441  0.00  0.00    -0.390 OA
ATOM     13  H   LIG A   1      -6.456   5.605 119.974  0.00  0.00    +0.210 HD
ENDBRANCH   6  12
ENDBRANCH   3   9
ENDBRANCH   2   3
ENDBRANCH   1   2
BRANCH   1  14
ATOM     14  C   LIG A   1      -8.661  -2.042 122.761  0.00  0.00    -0.000 C 
BRANCH  14  15
ATOM     15  C   LIG A   1      -8.913  -3.147 123.794  0.00  0.00    -0.000 C 
BRANCH  15  16
ATOM     16  C   LIG A   1      -9.437  -2.624 125.135  0.00  0.00    -0.000 C 
BRANCH  16  17
ATOM     17  C   LIG A   1      -8.966  -3.451 126.336  0.00  0.00    -0.000 C 
BRANCH  17  18
ATOM     18  C   LIG A   1      -8.092  -2.642 127.295  0.00  0.00    -0.000 C 
BRANCH  18  19
ATOM     19  C   LIG A   1      -7.786  -1.246 126.757  0.00  0.00    -0.000 C 
BRANCH  19  20
ATOM     20  C   LIG A   1      -6.283  -1.000 126.576  0.00  0.00    +0.000 C 
BRANCH  20  21
ATOM     21  C   LIG A   1      -5.771  -1.399 125.188  0.00  0.00    +0.002 C 
BRANCH  21  22
ATOM     22  C   LIG A   1      -5.184  -2.815 125.181  0.00  0.00    +0.031 C 
BRANCH  22  23
ATOM     23  C   LIG A   1      -5.415  -3.533 123.845  0.00  0.00    +0.111 C 
ATOM     24  C   LIG A   1      -4.469  -4.718 123.685  0.00  0.00    +0.037 C 
BRANCH  23  25
ATOM     25  O   LIG A   1      -5.210  -2.622 122.764  0.00  0.00    -0.392 OA
ATOM     26  H   LIG A   1      -4.470  -2.936 122.237  0.00  0.00    +0.210 HD
ENDBRANCH  23  25
ENDBRANCH  22  23
ENDBRANCH  21  22
ENDBRANCH  20  21
ENDBRANCH  19  20
ENDBRANCH  18  19
ENDBRANCH  17  18
ENDBRANCH  16  17
ENDBRANCH  15  16
ENDBRANCH  14  15
ENDBRANCH   1  14
TORSDOF 15
ENDMDL
MODEL 2
REMARK VINA RESULT:      -5.9      3.813      7.336
REMARK  Name = NuBBE_176
REMARK  17 active torsions:
REMARK  status: ('A' for Active; 'I' for Inactive)
REMARK    1  A    between atoms: C_1  and  C_2
REMARK    2  A    between atoms: C_4  and  O_6
REMARK    3  A    between atoms: C_9  and  C_11
REMARK    4  A    between atoms: C_11  and  C_12
REMARK    5  A    between atoms: C_12  and  C_13
REMARK    6  A    between atoms: C_13  and  C_14
REMARK    7  A    between atoms: C_14  and  C_15
REMARK    8  A    between atoms: C_15  and  C_16
REMARK    9  A    between atoms: C_16  and  C_17
REMARK   10  A    between atoms: C_17  and  C_18
REMARK   11  A    between atoms: C_18  and  C_19
REMARK   12  A    between atoms: C_19  and  C_20
REMARK   13  A    between atoms: C_20  and  C_21
REMARK   14  A    between atoms: C_21  and  C_22
REMARK   15  A    between atoms: C_22  and  C_23
REMARK   16  A    between atoms: C_23  and  O_24
REMARK   17  A    between atoms: C_23  and  C_25
REMARK                            x       y       z     vdW  Elec       q    Type
REMARK                         _______ _______ _______ _____ _____    ______ ____
ROOT
ATOM      1  C   LIG A   1      -9.161  -3.063 126.478  0.00  0.00    +0.000 C 
ENDROOT
BRANCH   1   2
ATOM      2  C   LIG A   1      -8.945  -4.021 127.653  0.00  0.00    +0.002 C 
BRANCH   2   3
ATOM      3  C   LIG A   1      -8.476  -3.317 128.940  0.00  0.00    +0.019 C 
BRANCH   3   9
ATOM      4  C   LIG A   1      -3.554  -3.072 129.311  0.00  0.00    +0.026 C 
ATOM      5  C   LIG A   1      -4.819  -2.266 129.006  0.00  0.00    +0.079 C 
ATOM      6  C   LIG A   1      -4.928  -1.023 129.917  0.00  0.00    +0.131 C 
ATOM      7  C   LIG A   1      -6.173  -0.230 129.542  0.00  0.00    +0.034 C 
ATOM      8  C   LIG A   1      -7.408  -1.115 129.600  0.00  0.00    +0.021 C 
ATOM      9  C   LIG A   1      -7.245  -2.397 128.765  0.00  0.00    +0.054 C 
ATOM     10  N   LIG A   1      -6.016  -3.122 129.146  0.00  0.00    -0.308 NA
ATOM     11  H   LIG A   1      -5.910  -3.944 128.549  0.00  0.00    +0.122 HD
BRANCH   6  12
ATOM     12  O   LIG A   1      -3.803  -0.160 129.764  0.00  0.00    -0.390 OA
ATOM     13  H   LIG A   1      -4.064   0.536 129.138  0.00  0.00    +0.210 HD
ENDBRANCH   6  12
ENDBRANCH   3   9
ENDBRANCH   2   3
ENDBRANCH   1   2
BRANCH   1  14
ATOM     14  C   LIG A   1      -8.654  -3.654 125.157  0.00  0.00    -0.000 C 
BRANCH  14  15
ATOM     15  C   LIG A   1      -9.270  -2.982 123.925  0.00  0.00    -0.000 C 
BRANCH  15  16
ATOM     16  C   LIG A   1      -8.232  -2.436 122.941  0.00  0.00    -0.000 C 
BRANCH  16  17
ATOM     17  C   LIG A   1      -6.787  -2.599 123.427  0.00  0.00    -0.000 C 
BRANCH  17  18
ATOM     18  C   LIG A   1      -6.152  -1.267 123.826  0.00  0.00    -0.000 C 
BRANCH  18  19
ATOM     19  C   LIG A   1      -5.917  -1.167 125.331  0.00  0.00    -0.000 C 
BRANCH  19  20
ATOM     20  C   LIG A   1      -6.807  -0.110 125.998  0.00  0.00    +0.000 C 
BRANCH  20  21
ATOM     21  C   LIG A   1      -7.676   0.662 124.998  0.00  0.00    +0.002 C 
BRANCH  21  22
ATOM     22  C   LIG A   1      -9.166   0.561 125.341  0.00  0.00    +0.031 C 
BRANCH  22  23
ATOM     23  C   LIG A   1     -10.036   1.411 124.406  0.00  0.00    +0.111 C 
ATOM     24  C   LIG A   1      -9.898   0.955 122.958  0.00  0.00    +0.037 C 
BRANCH  23  25
ATOM     25  O   LIG A   1      -9.651   2.784 124.502  0.00  0.00    -0.392 OA
ATOM     26  H   LIG A   1     -10.327   3.320 124.077  0.00  0.00    +0.210 HD
ENDBRANCH  23  25
ENDBRANCH  22  23
ENDBRANCH  21  22
ENDBRANCH  20  21
ENDBRANCH  19  20
ENDBRANCH  18  19
ENDBRANCH  17  18
ENDBRANCH  16  17
ENDBRANCH  15  16
ENDBRANCH  14  15
ENDBRANCH   1  14
TORSDOF 15
ENDMDL
MODEL 3
REMARK VINA RESULT:      -5.8      4.226      8.451
REMARK  Name = NuBBE_176
REMARK  17 active torsions:
REMARK  status: ('A' for Active; 'I' for Inactive)
REMARK    1  A    between atoms: C_1  and  C_2
REMARK    2  A    between atoms: C_4  and  O_6
REMARK    3  A    between atoms: C_9  and  C_11
REMARK    4  A    between atoms: C_11  and  C_12
REMARK    5  A    between atoms: C_12  and  C_13
REMARK    6  A    between atoms: C_13  and  C_14
REMARK    7  A    between atoms: C_14  and  C_15
REMARK    8  A    between atoms: C_15  and  C_16
REMARK    9  A    between atoms: C_16  and  C_17
REMARK   10  A    between atoms: C_17  and  C_18
REMARK   11  A    between atoms: C_18  and  C_19
REMARK   12  A    between atoms: C_19  and  C_20
REMARK   13  A    between atoms: C_20  and  C_21
REMARK   14  A    between atoms: C_21  and  C_22
REMARK   15  A    between atoms: C_22  and  C_23
REMARK   16  A    between atoms: C_23  and  O_24
REMARK   17  A    between atoms: C_23  and  C_25
REMARK                            x       y       z     vdW  Elec       q    Type
REMARK                         _______ _______ _______ _____ _____    ______ ____
ROOT
ATOM      1  C   LIG A   1      -8.974  -3.939 127.620  0.00  0.00    +0.000 C 
ENDROOT
BRANCH   1   2
ATOM      2  C   LIG A   1      -8.560  -3.438 129.006  0.00  0.00    +0.002 C 
BRANCH   2   3
ATOM      3  C   LIG A   1      -7.661  -2.188 128.962  0.00  0.00    +0.019 C 
BRANCH   3   9
ATOM      4  C   LIG A   1      -2.970  -3.738 129.079  0.00  0.00    +0.026 C 
ATOM      5  C   LIG A   1      -4.087  -3.094 129.904  0.00  0.00    +0.079 C 
ATOM      6  C   LIG A   1      -4.359  -3.889 131.200  0.00  0.00    +0.131 C 
ATOM      7  C   LIG A   1      -5.440  -3.182 132.007  0.00  0.00    +0.034 C 
ATOM      8  C   LIG A   1      -6.689  -2.981 131.165  0.00  0.00    +0.021 C 
ATOM      9  C   LIG A   1      -6.385  -2.274 129.833  0.00  0.00    +0.054 C 
ATOM     10  N   LIG A   1      -5.318  -2.979 129.094  0.00  0.00    -0.308 NA
ATOM     11  H   LIG A   1      -5.106  -2.467 128.236  0.00  0.00    +0.122 HD
BRANCH   6  12
ATOM     12  O   LIG A   1      -3.194  -3.974 132.019  0.00  0.00    -0.390 OA
ATOM     13  H   LIG A   1      -2.685  -4.741 131.708  0.00  0.00    +0.210 HD
ENDBRANCH   6  12
ENDBRANCH   3   9
ENDBRANCH   2   3
ENDBRANCH   1   2
BRANCH   1  14
ATOM     14  C   LIG A   1      -8.671  -2.909 126.525  0.00  0.00    -0.000 C 
BRANCH  14  15
ATOM     15  C   LIG A   1      -8.981  -3.426 125.115  0.00  0.00    -0.000 C 
BRANCH  15  16
ATOM     16  C   LIG A   1      -7.732  -3.795 124.310  0.00  0.00    -0.000 C 
BRANCH  16  17
ATOM     17  C   LIG A   1      -6.488  -2.997 124.716  0.00  0.00    -0.000 C 
BRANCH  17  18
ATOM     18  C   LIG A   1      -5.657  -2.560 123.509  0.00  0.00    -0.000 C 
BRANCH  18  19
ATOM     19  C   LIG A   1      -6.418  -1.593 122.604  0.00  0.00    -0.000 C 
BRANCH  19  20
ATOM     20  C   LIG A   1      -6.918  -0.353 123.356  0.00  0.00    +0.000 C 
BRANCH  20  21
ATOM     21  C   LIG A   1      -8.441  -0.193 123.307  0.00  0.00    +0.002 C 
BRANCH  21  22
ATOM     22  C   LIG A   1      -8.863   1.279 123.379  0.00  0.00    +0.031 C 
BRANCH  22  23
ATOM     23  C   LIG A   1      -9.880   1.538 124.497  0.00  0.00    +0.111 C 
ATOM     24  C   LIG A   1      -9.646   0.609 125.683  0.00  0.00    +0.037 C 
BRANCH  23  25
ATOM     25  O   LIG A   1     -11.206   1.337 124.002  0.00  0.00    -0.392 OA
ATOM     26  H   LIG A   1     -11.658   0.719 124.583  0.00  0.00    +0.210 HD
ENDBRANCH  23  25
ENDBRANCH  22  23
ENDBRANCH  21  22
ENDBRANCH  20  21
ENDBRANCH  19  20
ENDBRANCH  18  19
ENDBRANCH  17  18
ENDBRANCH  16  17
ENDBRANCH  15  16
ENDBRANCH  14  15
ENDBRANCH   1  14
TORSDOF 15
ENDMDL
MODEL 4
REMARK VINA RESULT:      -5.7      8.790     10.335
REMARK  Name = NuBBE_176
REMARK  17 active torsions:
REMARK  status: ('A' for Active; 'I' for Inactive)
REMARK    1  A    between atoms: C_1  and  C_2
REMARK    2  A    between atoms: C_4  and  O_6
REMARK    3  A    between atoms: C_9  and  C_11
REMARK    4  A    between atoms: C_11  and  C_12
REMARK    5  A    between atoms: C_12  and  C_13
REMARK    6  A    between atoms: C_13  and  C_14
REMARK    7  A    between atoms: C_14  and  C_15
REMARK    8  A    between atoms: C_15  and  C_16
REMARK    9  A    between atoms: C_16  and  C_17
REMARK   10  A    between atoms: C_17  and  C_18
REMARK   11  A    between atoms: C_18  and  C_19
REMARK   12  A    between atoms: C_19  and  C_20
REMARK   13  A    between atoms: C_20  and  C_21
REMARK   14  A    between atoms: C_21  and  C_22
REMARK   15  A    between atoms: C_22  and  C_23
REMARK   16  A    between atoms: C_23  and  O_24
REMARK   17  A    between atoms: C_23  and  C_25
REMARK                            x       y       z     vdW  Elec       q    Type
REMARK                         _______ _______ _______ _____ _____    ______ ____
ROOT
ATOM      1  C   LIG A   1      -8.468   3.212 130.499  0.00  0.00    +0.000 C 
ENDROOT
BRANCH   1   2
ATOM      2  C   LIG A   1      -9.420   4.162 129.766  0.00  0.00    +0.002 C 
BRANCH   2   3
ATOM      3  C   LIG A   1     -10.598   4.639 130.637  0.00  0.00    +0.019 C 
BRANCH   3   9
ATOM      4  C   LIG A   1     -10.962   7.814 126.867  0.00  0.00    +0.026 C 
ATOM      5  C   LIG A   1     -11.635   7.330 128.154  0.00  0.00    +0.079 C 
ATOM      6  C   LIG A   1     -11.881   8.499 129.134  0.00  0.00    +0.131 C 
ATOM      7  C   LIG A   1     -12.596   7.976 130.373  0.00  0.00    +0.034 C 
ATOM      8  C   LIG A   1     -11.811   6.836 131.001  0.00  0.00    +0.021 C 
ATOM      9  C   LIG A   1     -11.488   5.724 129.987  0.00  0.00    +0.054 C 
ATOM     10  N   LIG A   1     -10.817   6.278 128.793  0.00  0.00    -0.308 NA
ATOM     11  H   LIG A   1     -10.654   5.528 128.120  0.00  0.00    +0.122 HD
BRANCH   6  12
ATOM     12  O   LIG A   1     -12.707   9.507 128.552  0.00  0.00    -0.390 OA
ATOM     13  H   LIG A   1     -12.178   9.941 127.861  0.00  0.00    +0.210 HD
ENDBRANCH   6  12
ENDBRANCH   3   9
ENDBRANCH   2   3
ENDBRANCH   1   2
BRANCH   1  14
ATOM     14  C   LIG A   1      -9.210   2.022 131.116  0.00  0.00    -0.000 C 
BRANCH  14  15
ATOM     15  C   LIG A   1      -9.091   1.969 132.644  0.00  0.00    -0.000 C 
BRANCH  15  16
ATOM     16  C   LIG A   1      -8.124   3.008 133.219  0.00  0.00    -0.000 C 
BRANCH  16  17
ATOM     17  C   LIG A   1      -8.807   4.038 134.127  0.00  0.00    -0.000 C 
BRANCH  17  18
ATOM     18  C   LIG A   1      -8.652   5.467 133.606  0.00  0.00    -0.000 C 
BRANCH  18  19
ATOM     19  C   LIG A   1      -7.266   5.718 133.015  0.00  0.00    -0.000 C 
BRANCH  19  20
ATOM     20  C   LIG A   1      -7.323   6.484 131.686  0.00  0.00    +0.000 C 
BRANCH  20  21
ATOM     21  C   LIG A   1      -6.015   6.405 130.891  0.00  0.00    +0.002 C 
BRANCH  21  22
ATOM     22  C   LIG A   1      -4.787   6.504 131.802  0.00  0.00    +0.031 C 
BRANCH  22  23
ATOM     23  C   LIG A   1      -3.754   7.509 131.279  0.00  0.00    +0.111 C 
ATOM     24  C   LIG A   1      -4.247   8.197 130.010  0.00  0.00    +0.037 C 
BRANCH  23  25
ATOM     25  O   LIG A   1      -2.524   6.838 130.998  0.00  0.00    -0.392 OA
ATOM     26  H   LIG A   1      -2.717   5.916 130.805  0.00  0.00    +0.210 HD
ENDBRANCH  23  25
ENDBRANCH  22  23
ENDBRANCH  21  22
ENDBRANCH  20  21
ENDBRANCH  19  20
ENDBRANCH  18  19
ENDBRANCH  17  18
ENDBRANCH  16  17
ENDBRANCH  15  16
ENDBRANCH  14  15
ENDBRANCH   1  14
TORSDOF 15
ENDMDL
MODEL 5
REMARK VINA RESULT:      -5.6      2.621      4.254
REMARK  Name = NuBBE_176
REMARK  17 active torsions:
REMARK  status: ('A' for Active; 'I' for Inactive)
REMARK    1  A    between atoms: C_1  and  C_2
REMARK    2  A    between atoms: C_4  and  O_6
REMARK    3  A    between atoms: C_9  and  C_11
REMARK    4  A    between atoms: C_11  and  C_12
REMARK    5  A    between atoms: C_12  and  C_13
REMARK    6  A    between atoms: C_13  and  C_14
REMARK    7  A    between atoms: C_14  and  C_15
REMARK    8  A    between atoms: C_15  and  C_16
REMARK    9  A    between atoms: C_16  and  C_17
REMARK   10  A    between atoms: C_17  and  C_18
REMARK   11  A    between atoms: C_18  and  C_19
REMARK   12  A    between atoms: C_19  and  C_20
REMARK   13  A    between atoms: C_20  and  C_21
REMARK   14  A    between atoms: C_21  and  C_22
REMARK   15  A    between atoms: C_22  and  C_23
REMARK   16  A    between atoms: C_23  and  O_24
REMARK   17  A    between atoms: C_23  and  C_25
REMARK                            x       y       z     vdW  Elec       q    Type
REMARK                         _______ _______ _______ _____ _____    ______ ____
ROOT
ATOM      1  C   LIG A   1      -5.809  -2.348 125.376  0.00  0.00    +0.000 C 
ENDROOT
BRANCH   1   2
ATOM      2  C   LIG A   1      -5.730  -0.824 125.497  0.00  0.00    +0.002 C 
BRANCH   2   3
ATOM      3  C   LIG A   1      -7.107  -0.134 125.457  0.00  0.00    +0.019 C 
BRANCH   3   9
ATOM      4  C   LIG A   1      -6.001   3.935 122.880  0.00  0.00    +0.026 C 
ATOM      5  C   LIG A   1      -6.894   2.693 122.918  0.00  0.00    +0.079 C 
ATOM      6  C   LIG A   1      -8.389   3.071 122.833  0.00  0.00    +0.131 C 
ATOM      7  C   LIG A   1      -9.231   1.802 122.823  0.00  0.00    +0.034 C 
ATOM      8  C   LIG A   1      -8.909   0.939 124.032  0.00  0.00    +0.021 C 
ATOM      9  C   LIG A   1      -7.402   0.652 124.158  0.00  0.00    +0.054 C 
ATOM     10  N   LIG A   1      -6.623   1.907 124.141  0.00  0.00    -0.308 NA
ATOM     11  H   LIG A   1      -5.627   1.687 124.182  0.00  0.00    +0.122 HD
BRANCH   6  12
ATOM     12  O   LIG A   1      -8.681   3.792 121.637  0.00  0.00    -0.390 OA
ATOM     13  H   LIG A   1      -7.971   4.445 121.520  0.00  0.00    +0.210 HD
ENDBRANCH   6  12
ENDBRANCH   3   9
ENDBRANCH   2   3
ENDBRANCH   1   2
BRANCH   1  14
ATOM     14  C   LIG A   1      -6.623  -2.783 124.151  0.00  0.00    -0.000 C 
BRANCH  14  15
ATOM     15  C   LIG A   1      -7.718  -3.801 124.491  0.00  0.00    -0.000 C 
BRANCH  15  16
ATOM     16  C   LIG A   1      -9.099  -3.170 124.692  0.00  0.00    -0.000 C 
BRANCH  16  17
ATOM     17  C   LIG A   1      -9.475  -2.984 126.166  0.00  0.00    -0.000 C 
BRANCH  17  18
ATOM     18  C   LIG A   1      -8.731  -3.954 127.085  0.00  0.00    -0.000 C 
BRANCH  18  19
ATOM     19  C   LIG A   1      -8.807  -3.534 128.551  0.00  0.00    -0.000 C 
BRANCH  19  20
ATOM     20  C   LIG A   1      -7.424  -3.261 129.158  0.00  0.00    +0.000 C 
BRANCH  20  21
ATOM     21  C   LIG A   1      -6.936  -1.828 128.922  0.00  0.00    +0.002 C 
BRANCH  21  22
ATOM     22  C   LIG A   1      -7.738  -0.811 129.742  0.00  0.00    +0.031 C 
BRANCH  22  23
ATOM     23  C   LIG A   1      -7.767   0.573 129.082  0.00  0.00    +0.111 C 
ATOM     24  C   LIG A   1      -6.360   1.138 128.919  0.00  0.00    +0.037 C 
BRANCH  23  25
ATOM     25  O   LIG A   1      -8.541   1.473 129.877  0.00  0.00    -0.392 OA
ATOM     26  H   LIG A   1      -7.941   2.007 130.405  0.00  0.00    +0.210 HD
ENDBRANCH  23  25
ENDBRANCH  22  23
ENDBRANCH  21  22
ENDBRANCH  20  21
ENDBRANCH  19  20
ENDBRANCH  18  19
ENDBRANCH  17  18
ENDBRANCH  16  17
ENDBRANCH  15  16
ENDBRANCH  14  15
ENDBRANCH   1  14
TORSDOF 15
ENDMDL
MODEL 6
REMARK VINA RESULT:      -5.6     11.280     12.974
REMARK  Name = NuBBE_176
REMARK  17 active torsions:
REMARK  status: ('A' for Active; 'I' for Inactive)
REMARK    1  A    between atoms: C_1  and  C_2
REMARK    2  A    between atoms: C_4  and  O_6
REMARK    3  A    between atoms: C_9  and  C_11
REMARK    4  A    between atoms: C_11  and  C_12
REMARK    5  A    between atoms: C_12  and  C_13
REMARK    6  A    between atoms: C_13  and  C_14
REMARK    7  A    between atoms: C_14  and  C_15
REMARK    8  A    between atoms: C_15  and  C_16
REMARK    9  A    between atoms: C_16  and  C_17
REMARK   10  A    between atoms: C_17  and  C_18
REMARK   11  A    between atoms: C_18  and  C_19
REMARK   12  A    between atoms: C_19  and  C_20
REMARK   13  A    between atoms: C_20  and  C_21
REMARK   14  A    between atoms: C_21  and  C_22
REMARK   15  A    between atoms: C_22  and  C_23
REMARK   16  A    between atoms: C_23  and  O_24
REMARK   17  A    between atoms: C_23  and  C_25
REMARK                            x       y       z     vdW  Elec       q    Type
REMARK                         _______ _______ _______ _____ _____    ______ ____
ROOT
ATOM      1  C   LIG A   1      -8.549   6.510 131.115  0.00  0.00    +0.000 C 
ENDROOT
BRANCH   1   2
ATOM      2  C   LIG A   1      -9.024   5.191 130.500  0.00  0.00    +0.002 C 
BRANCH   2   3
ATOM      3  C   LIG A   1     -10.520   4.908 130.736  0.00  0.00    +0.019 C 
BRANCH   3   9
ATOM      4  C   LIG A   1     -11.096   7.855 126.811  0.00  0.00    +0.026 C 
ATOM      5  C   LIG A   1     -11.740   7.385 128.118  0.00  0.00    +0.079 C 
ATOM      6  C   LIG A   1     -12.084   8.578 129.037  0.00  0.00    +0.131 C 
ATOM      7  C   LIG A   1     -12.766   8.063 130.297  0.00  0.00    +0.034 C 
ATOM      8  C   LIG A   1     -11.901   7.019 130.984  0.00  0.00    +0.021 C 
ATOM      9  C   LIG A   1     -11.486   5.887 130.028  0.00  0.00    +0.054 C 
ATOM     10  N   LIG A   1     -10.849   6.431 128.811  0.00  0.00    -0.308 NA
ATOM     11  H   LIG A   1     -10.623   5.664 128.177  0.00  0.00    +0.122 HD
BRANCH   6  12
ATOM     12  O   LIG A   1     -12.980   9.489 128.402  0.00  0.00    -0.390 OA
ATOM     13  H   LIG A   1     -13.156   9.139 127.513  0.00  0.00    +0.210 HD
ENDBRANCH   6  12
ENDBRANCH   3   9
ENDBRANCH   2   3
ENDBRANCH   1   2
BRANCH   1  14
ATOM     14  C   LIG A   1      -7.054   6.478 131.453  0.00  0.00    -0.000 C 
BRANCH  14  15
ATOM     15  C   LIG A   1      -6.732   5.593 132.662  0.00  0.00    -0.000 C 
BRANCH  15  16
ATOM     16  C   LIG A   1      -7.733   5.739 133.813  0.00  0.00    -0.000 C 
BRANCH  16  17
ATOM     17  C   LIG A   1      -7.602   4.642 134.876  0.00  0.00    -0.000 C 
BRANCH  17  18
ATOM     18  C   LIG A   1      -6.725   5.072 136.052  0.00  0.00    -0.000 C 
BRANCH  18  19
ATOM     19  C   LIG A   1      -7.088   6.465 136.563  0.00  0.00    -0.000 C 
BRANCH  19  20
ATOM     20  C   LIG A   1      -7.805   6.426 137.919  0.00  0.00    +0.000 C 
BRANCH  20  21
ATOM     21  C   LIG A   1      -7.935   7.808 138.570  0.00  0.00    +0.002 C 
BRANCH  21  22
ATOM     22  C   LIG A   1      -8.008   8.926 137.524  0.00  0.00    +0.031 C 
BRANCH  22  23
ATOM     23  C   LIG A   1      -9.444   9.417 137.299  0.00  0.00    +0.111 C 
ATOM     24  C   LIG A   1     -10.252   9.373 138.591  0.00  0.00    +0.037 C 
BRANCH  23  25
ATOM     25  O   LIG A   1     -10.087   8.600 136.319  0.00  0.00    -0.392 OA
ATOM     26  H   LIG A   1      -9.616   7.764 136.262  0.00  0.00    +0.210 HD
ENDBRANCH  23  25
ENDBRANCH  22  23
ENDBRANCH  21  22
ENDBRANCH  20  21
ENDBRANCH  19  20
ENDBRANCH  18  19
ENDBRANCH  17  18
ENDBRANCH  16  17
ENDBRANCH  15  16
ENDBRANCH  14  15
ENDBRANCH   1  14
TORSDOF 15
ENDMDL
MODEL 7
REMARK VINA RESULT:      -5.5      3.873      8.102
REMARK  Name = NuBBE_176
REMARK  17 active torsions:
REMARK  status: ('A' for Active; 'I' for Inactive)
REMARK    1  A    between atoms: C_1  and  C_2
REMARK    2  A    between atoms: C_4  and  O_6
REMARK    3  A    between atoms: C_9  and  C_11
REMARK    4  A    between atoms: C_11  and  C_12
REMARK    5  A    between atoms: C_12  and  C_13
REMARK    6  A    between atoms: C_13  and  C_14
REMARK    7  A    between atoms: C_14  and  C_15
REMARK    8  A    between atoms: C_15  and  C_16
REMARK    9  A    between atoms: C_16  and  C_17
REMARK   10  A    between atoms: C_17  and  C_18
REMARK   11  A    between atoms: C_18  and  C_19
REMARK   12  A    between atoms: C_19  and  C_20
REMARK   13  A    between atoms: C_20  and  C_21
REMARK   14  A    between atoms: C_21  and  C_22
REMARK   15  A    between atoms: C_22  and  C_23
REMARK   16  A    between atoms: C_23  and  O_24
REMARK   17  A    between atoms: C_23  and  C_25
REMARK                            x       y       z     vdW  Elec       q    Type
REMARK                         _______ _______ _______ _____ _____    ______ ____
ROOT
ATOM      1  C   LIG A   1      -9.444  -2.622 126.001  0.00  0.00    +0.000 C 
ENDROOT
BRANCH   1   2
ATOM      2  C   LIG A   1      -8.791  -3.512 127.062  0.00  0.00    +0.002 C 
BRANCH   2   3
ATOM      3  C   LIG A   1      -8.119  -2.718 128.199  0.00  0.00    +0.019 C 
BRANCH   3   9
ATOM      4  C   LIG A   1      -5.503  -5.033 131.694  0.00  0.00    +0.026 C 
ATOM      5  C   LIG A   1      -5.412  -4.309 130.349  0.00  0.00    +0.079 C 
ATOM      6  C   LIG A   1      -4.412  -3.133 130.409  0.00  0.00    +0.131 C 
ATOM      7  C   LIG A   1      -4.320  -2.478 129.037  0.00  0.00    +0.034 C 
ATOM      8  C   LIG A   1      -5.698  -2.056 128.554  0.00  0.00    +0.021 C 
ATOM      9  C   LIG A   1      -6.709  -3.216 128.593  0.00  0.00    +0.054 C 
ATOM     10  N   LIG A   1      -6.749  -3.836 129.933  0.00  0.00    -0.308 NA
ATOM     11  H   LIG A   1      -7.394  -4.627 129.919  0.00  0.00    +0.122 HD
BRANCH   6  12
ATOM     12  O   LIG A   1      -3.103  -3.575 130.765  0.00  0.00    -0.390 OA
ATOM     13  H   LIG A   1      -2.950  -3.294 131.684  0.00  0.00    +0.210 HD
ENDBRANCH   6  12
ENDBRANCH   3   9
ENDBRANCH   2   3
ENDBRANCH   1   2
BRANCH   1  14
ATOM     14  C   LIG A   1      -8.909  -2.920 124.596  0.00  0.00    -0.000 C 
BRANCH  14  15
ATOM     15  C   LIG A   1      -7.927  -4.097 124.566  0.00  0.00    -0.000 C 
BRANCH  15  16
ATOM     16  C   LIG A   1      -6.480  -3.681 124.286  0.00  0.00    -0.000 C 
BRANCH  16  17
ATOM     17  C   LIG A   1      -6.337  -2.210 123.879  0.00  0.00    -0.000 C 
BRANCH  17  18
ATOM     18  C   LIG A   1      -5.488  -1.410 124.868  0.00  0.00    -0.000 C 
BRANCH  18  19
ATOM     19  C   LIG A   1      -6.291  -0.312 125.561  0.00  0.00    -0.000 C 
BRANCH  19  20
ATOM     20  C   LIG A   1      -5.408   0.843 126.052  0.00  0.00    +0.000 C 
BRANCH  20  21
ATOM     21  C   LIG A   1      -5.859   2.210 125.527  0.00  0.00    +0.002 C 
BRANCH  21  22
ATOM     22  C   LIG A   1      -6.736   2.080 124.276  0.00  0.00    +0.031 C 
BRANCH  22  23
ATOM     23  C   LIG A   1      -6.828   3.395 123.492  0.00  0.00    +0.111 C 
ATOM     24  C   LIG A   1      -5.660   4.318 123.821  0.00  0.00    +0.037 C 
BRANCH  23  25
ATOM     25  O   LIG A   1      -8.052   4.061 123.806  0.00  0.00    -0.392 OA
ATOM     26  H   LIG A   1      -7.859   4.786 124.408  0.00  0.00    +0.210 HD
ENDBRANCH  23  25
ENDBRANCH  22  23
ENDBRANCH  21  22
ENDBRANCH  20  21
ENDBRANCH  19  20
ENDBRANCH  18  19
ENDBRANCH  17  18
ENDBRANCH  16  17
ENDBRANCH  15  16
ENDBRANCH  14  15
ENDBRANCH   1  14
TORSDOF 15
ENDMDL
MODEL 8
REMARK VINA RESULT:      -5.5      3.254      4.609
REMARK  Name = NuBBE_176
REMARK  17 active torsions:
REMARK  status: ('A' for Active; 'I' for Inactive)
REMARK    1  A    between atoms: C_1  and  C_2
REMARK    2  A    between atoms: C_4  and  O_6
REMARK    3  A    between atoms: C_9  and  C_11
REMARK    4  A    between atoms: C_11  and  C_12
REMARK    5  A    between atoms: C_12  and  C_13
REMARK    6  A    between atoms: C_13  and  C_14
REMARK    7  A    between atoms: C_14  and  C_15
REMARK    8  A    between atoms: C_15  and  C_16
REMARK    9  A    between atoms: C_16  and  C_17
REMARK   10  A    between atoms: C_17  and  C_18
REMARK   11  A    between atoms: C_18  and  C_19
REMARK   12  A    between atoms: C_19  and  C_20
REMARK   13  A    between atoms: C_20  and  C_21
REMARK   14  A    between atoms: C_21  and  C_22
REMARK   15  A    between atoms: C_22  and  C_23
REMARK   16  A    between atoms: C_23  and  O_24
REMARK   17  A    between atoms: C_23  and  C_25
REMARK                            x       y       z     vdW  Elec       q    Type
REMARK                         _______ _______ _______ _____ _____    ______ ____
ROOT
ATOM      1  C   LIG A   1      -6.913  -3.654 124.360  0.00  0.00    +0.000 C 
ENDROOT
BRANCH   1   2
ATOM      2  C   LIG A   1      -6.385  -2.368 123.717  0.00  0.00    +0.002 C 
BRANCH   2   3
ATOM      3  C   LIG A   1      -7.348  -1.762 122.679  0.00  0.00    +0.019 C 
BRANCH   3   9
ATOM      4  C   LIG A   1      -6.536   2.163 125.570  0.00  0.00    +0.026 C 
ATOM      5  C   LIG A   1      -7.365   1.633 124.397  0.00  0.00    +0.079 C 
ATOM      6  C   LIG A   1      -8.879   1.772 124.670  0.00  0.00    +0.131 C 
ATOM      7  C   LIG A   1      -9.657   1.280 123.456  0.00  0.00    +0.034 C 
ATOM      8  C   LIG A   1      -9.250  -0.141 123.102  0.00  0.00    +0.021 C 
ATOM      9  C   LIG A   1      -7.728  -0.284 122.930  0.00  0.00    +0.054 C 
ATOM     10  N   LIG A   1      -7.013   0.225 124.118  0.00  0.00    -0.308 NA
ATOM     11  H   LIG A   1      -6.006   0.158 123.960  0.00  0.00    +0.122 HD
BRANCH   6  12
ATOM     12  O   LIG A   1      -9.249   3.131 124.898  0.00  0.00    -0.390 OA
ATOM     13  H   LIG A   1      -9.677   3.448 124.084  0.00  0.00    +0.210 HD
ENDBRANCH   6  12
ENDBRANCH   3   9
ENDBRANCH   2   3
ENDBRANCH   1   2
BRANCH   1  14
ATOM     14  C   LIG A   1      -8.440  -3.641 124.494  0.00  0.00    -0.000 C 
BRANCH  14  15
ATOM     15  C   LIG A   1      -8.913  -3.359 125.924  0.00  0.00    -0.000 C 
BRANCH  15  16
ATOM     16  C   LIG A   1      -8.969  -1.868 126.269  0.00  0.00    -0.000 C 
BRANCH  16  17
ATOM     17  C   LIG A   1      -7.886  -1.433 127.263  0.00  0.00    -0.000 C 
BRANCH  17  18
ATOM     18  C   LIG A   1      -7.202  -2.622 127.938  0.00  0.00    -0.000 C 
BRANCH  18  19
ATOM     19  C   LIG A   1      -7.808  -2.936 129.305  0.00  0.00    -0.000 C 
BRANCH  19  20
ATOM     20  C   LIG A   1      -6.817  -3.637 130.242  0.00  0.00    +0.000 C 
BRANCH  20  21
ATOM     21  C   LIG A   1      -5.800  -2.677 130.869  0.00  0.00    +0.002 C 
BRANCH  21  22
ATOM     22  C   LIG A   1      -4.379  -3.250 130.836  0.00  0.00    +0.031 C 
BRANCH  22  23
ATOM     23  C   LIG A   1      -3.593  -2.785 129.604  0.00  0.00    +0.111 C 
ATOM     24  C   LIG A   1      -3.133  -3.970 128.762  0.00  0.00    +0.037 C 
BRANCH  23  25
ATOM     25  O   LIG A   1      -2.450  -2.032 130.014  0.00  0.00    -0.392 OA
ATOM     26  H   LIG A   1      -2.705  -1.107 130.087  0.00  0.00    +0.210 HD
ENDBRANCH  23  25
ENDBRANCH  22  23
ENDBRANCH  21  22
ENDBRANCH  20  21
ENDBRANCH  19  20
ENDBRANCH  18  19
ENDBRANCH  17  18
ENDBRANCH  16  17
ENDBRANCH  15  16
ENDBRANCH  14  15
ENDBRANCH   1  14
TORSDOF 15
ENDMDL
MODEL 9
REMARK VINA RESULT:      -5.5      6.712      8.368
REMARK  Name = NuBBE_176
REMARK  17 active torsions:
REMARK  status: ('A' for Active; 'I' for Inactive)
REMARK    1  A    between atoms: C_1  and  C_2
REMARK    2  A    between atoms: C_4  and  O_6
REMARK    3  A    between atoms: C_9  and  C_11
REMARK    4  A    between atoms: C_11  and  C_12
REMARK    5  A    between atoms: C_12  and  C_13
REMARK    6  A    between atoms: C_13  and  C_14
REMARK    7  A    between atoms: C_14  and  C_15
REMARK    8  A    between atoms: C_15  and  C_16
REMARK    9  A    between atoms: C_16  and  C_17
REMARK   10  A    between atoms: C_17  and  C_18
REMARK   11  A    between atoms: C_18  and  C_19
REMARK   12  A    between atoms: C_19  and  C_20
REMARK   13  A    between atoms: C_20  and  C_21
REMARK   14  A    between atoms: C_21  and  C_22
REMARK   15  A    between atoms: C_22  and  C_23
REMARK   16  A    between atoms: C_23  and  O_24
REMARK   17  A    between atoms: C_23  and  C_25
REMARK                            x       y       z     vdW  Elec       q    Type
REMARK                         _______ _______ _______ _____ _____    ______ ____
ROOT
ATOM      1  C   LIG A   1      -7.636   2.034 132.899  0.00  0.00    +0.000 C 
ENDROOT
BRANCH   1   2
ATOM      2  C   LIG A   1      -7.816   3.232 133.836  0.00  0.00    +0.002 C 
BRANCH   2   3
ATOM      3  C   LIG A   1      -9.214   3.874 133.749  0.00  0.00    +0.019 C 
BRANCH   3   9
ATOM      4  C   LIG A   1     -11.804   6.479 130.444  0.00  0.00    +0.026 C 
ATOM      5  C   LIG A   1     -10.525   6.459 131.284  0.00  0.00    +0.079 C 
ATOM      6  C   LIG A   1      -9.269   6.628 130.401  0.00  0.00    +0.131 C 
ATOM      7  C   LIG A   1      -8.030   6.653 131.287  0.00  0.00    +0.034 C 
ATOM      8  C   LIG A   1      -7.973   5.411 132.161  0.00  0.00    +0.021 C 
ATOM      9  C   LIG A   1      -9.271   5.202 132.960  0.00  0.00    +0.054 C 
ATOM     10  N   LIG A   1     -10.448   5.207 132.067  0.00  0.00    -0.308 NA
ATOM     11  H   LIG A   1     -11.297   5.111 132.626  0.00  0.00    +0.122 HD
BRANCH   6  12
ATOM     12  O   LIG A   1      -9.302   7.853 129.670  0.00  0.00    -0.390 OA
ATOM     13  H   LIG A   1      -9.068   7.640 128.751  0.00  0.00    +0.210 HD
ENDBRANCH   6  12
ENDBRANCH   3   9
ENDBRANCH   2   3
ENDBRANCH   1   2
BRANCH   1  14
ATOM     14  C   LIG A   1      -8.980   1.502 132.387  0.00  0.00    -0.000 C 
BRANCH  14  15
ATOM     15  C   LIG A   1      -8.854   0.728 131.070  0.00  0.00    -0.000 C 
BRANCH  15  16
ATOM     16  C   LIG A   1      -8.170  -0.634 131.222  0.00  0.00    -0.000 C 
BRANCH  16  17
ATOM     17  C   LIG A   1      -7.748  -1.255 129.886  0.00  0.00    -0.000 C 
BRANCH  17  18
ATOM     18  C   LIG A   1      -7.798  -2.783 129.912  0.00  0.00    -0.000 C 
BRANCH  18  19
ATOM     19  C   LIG A   1      -8.578  -3.355 128.730  0.00  0.00    -0.000 C 
BRANCH  19  20
ATOM     20  C   LIG A   1      -7.988  -2.937 127.377  0.00  0.00    +0.000 C 
BRANCH  20  21
ATOM     21  C   LIG A   1      -8.893  -3.289 126.192  0.00  0.00    +0.002 C 
BRANCH  21  22
ATOM     22  C   LIG A   1      -8.082  -3.621 124.934  0.00  0.00    +0.031 C 
BRANCH  22  23
ATOM     23  C   LIG A   1      -8.746  -3.091 123.658  0.00  0.00    +0.111 C 
ATOM     24  C   LIG A   1      -8.601  -1.577 123.548  0.00  0.00    +0.037 C 
BRANCH  23  25
ATOM     25  O   LIG A   1     -10.135  -3.427 123.659  0.00  0.00    -0.392 OA
ATOM     26  H   LIG A   1     -10.313  -3.984 124.421  0.00  0.00    +0.210 HD
ENDBRANCH  23  25
ENDBRANCH  22  23
ENDBRANCH  21  22
ENDBRANCH  20  21
ENDBRANCH  19  20
ENDBRANCH  18  19
ENDBRANCH  17  18
ENDBRANCH  16  17
ENDBRANCH  15  16
ENDBRANCH  14  15
ENDBRANCH   1  14
TORSDOF 15
ENDMDL
