MODEL 1
REMARK VINA RESULT:      -8.1      0.000      0.000
REMARK  Name = NuBBE_235
REMARK  16 active torsions:
REMARK  status: ('A' for Active; 'I' for Inactive)
REMARK    1  A    between atoms: C_1  and  C_2
REMARK    2  A    between atoms: C_4  and  O_6
REMARK    3  A    between atoms: O_6  and  C_7
REMARK    4  A    between atoms: C_7  and  C_8
REMARK    5  A    between atoms: C_8  and  C_9
REMARK    6  A    between atoms: C_9  and  C_10
REMARK    7  A    between atoms: C_17  and  O_19
REMARK    8  A    between atoms: O_19  and  C_20
REMARK    9  A    between atoms: C_20  and  C_21
REMARK   10  A    between atoms: C_25  and  O_27
REMARK   11  A    between atoms: O_27  and  C_28
REMARK   12  A    between atoms: C_32  and  C_33
REMARK   13  A    between atoms: C_32  and  C_34
REMARK   14  A    between atoms: C_34  and  C_35
REMARK   15  A    between atoms: C_36  and  C_37
REMARK   16  A    between atoms: C_36  and  C_39
REMARK                            x       y       z     vdW  Elec       q    Type
REMARK                         _______ _______ _______ _____ _____    ______ ____
ROOT
ATOM      1  C   LIG A   1      -9.008  -1.186 125.860  0.00  0.00    +0.012 C 
ATOM      2  C   LIG A   1      -7.794  -0.638 126.625  0.00  0.00    +0.033 C 
ATOM      3  C   LIG A   1      -8.364   0.433 127.555  0.00  0.00    +0.181 C 
ATOM      4  C   LIG A   1      -8.552   1.778 126.855  0.00  0.00    +0.064 C 
ATOM      5  C   LIG A   1      -7.427   2.314 125.918  0.00  0.00    +0.083 C 
ATOM      6  C   LIG A   1      -7.102   3.721 126.366  0.00  0.00    +0.049 C 
ATOM      7  C   LIG A   1      -8.194   4.552 125.942  0.00  0.00    +0.339 C 
ATOM      8  O   LIG A   1      -8.842   3.945 124.914  0.00  0.00    -0.420 OA
ATOM      9  C   LIG A   1      -8.044   2.822 124.568  0.00  0.00    +0.381 C 
ATOM     10  O   LIG A   1      -8.525   5.650 126.448  0.00  0.00    -0.245 OA
ATOM     11  C   LIG A   1      -5.943   4.200 126.778  0.00  0.00    +0.015 C 
ATOM     12  C   LIG A   1      -4.701   3.370 126.863  0.00  0.00    +0.142 C 
ATOM     13  C   LIG A   1      -4.860   1.900 126.389  0.00  0.00    +0.041 C 
ATOM     14  C   LIG A   1      -6.195   1.391 125.740  0.00  0.00    +0.016 C 
ATOM     15  C   LIG A   1      -6.480  -0.200 125.811  0.00  0.00    -0.019 C 
ATOM     16  C   LIG A   1      -5.275  -0.974 126.468  0.00  0.00    +0.012 C 
ENDROOT
BRANCH  12  17
ATOM     17  O   LIG A   1      -3.690   4.066 126.118  0.00  0.00    -0.376 OA
ATOM     18  C   LIG A   1      -2.358   3.654 126.418  0.00  0.00    +0.194 C 
ENDBRANCH  12  17
BRANCH   3  19
ATOM     19  O   LIG A   1      -7.542   0.562 128.710  0.00  0.00    -0.461 OA
BRANCH  19  20
ATOM     20  C   LIG A   1      -7.841  -0.186 129.813  0.00  0.00    +0.307 C 
ATOM     21  O   LIG A   1      -8.647   0.119 130.673  0.00  0.00    -0.251 OA
BRANCH  20  22
ATOM     22  C   LIG A   1      -7.118  -1.517 129.763  0.00  0.00    +0.120 C 
BRANCH  22  23
ATOM     23  C   LIG A   1      -8.025  -2.738 129.915  0.00  0.00    +0.008 C 
ATOM     24  C   LIG A   1      -8.164  -3.556 128.647  0.00  0.00    +0.004 C 
ENDBRANCH  22  23
ENDBRANCH  20  22
ENDBRANCH  19  20
ENDBRANCH   3  19
BRANCH   9  25
ATOM     25  O   LIG A   1      -7.004   3.224 123.652  0.00  0.00    -0.424 OA
BRANCH  25  26
ATOM     26  C   LIG A   1      -7.356   3.156 122.340  0.00  0.00    +0.307 C 
ATOM     27  C   LIG A   1      -6.126   3.208 121.480  0.00  0.00    +0.136 C 
ATOM     28  O   LIG A   1      -8.480   3.136 121.911  0.00  0.00    -0.251 OA
ENDBRANCH  25  26
ENDBRANCH   9  25
BRANCH  15  29
ATOM     29  C   LIG A   1      -6.482  -0.761 124.332  0.00  0.00    +0.034 C 
BRANCH  29  30
ATOM     30  C   LIG A   1      -5.629  -1.969 124.061  0.00  0.00    -0.023 C 
ATOM     31  C   LIG A   1      -5.893  -3.286 124.095  0.00  0.00    -0.055 C 
ATOM     32  C   LIG A   1      -4.810  -4.262 123.683  0.00  0.00    +0.043 C 
BRANCH  31  33
ATOM     33  C   LIG A   1      -7.142  -3.875 124.514  0.00  0.00    -0.005 C 
ATOM     34  C   LIG A   1      -8.315  -3.680 123.903  0.00  0.00    +0.008 C 
ENDBRANCH  31  33
ENDBRANCH  29  30
ENDBRANCH  15  29
TORSDOF 10
ENDMDL
MODEL 2
REMARK VINA RESULT:      -8.1      2.679      7.120
REMARK  Name = NuBBE_235
REMARK  16 active torsions:
REMARK  status: ('A' for Active; 'I' for Inactive)
REMARK    1  A    between atoms: C_1  and  C_2
REMARK    2  A    between atoms: C_4  and  O_6
REMARK    3  A    between atoms: O_6  and  C_7
REMARK    4  A    between atoms: C_7  and  C_8
REMARK    5  A    between atoms: C_8  and  C_9
REMARK    6  A    between atoms: C_9  and  C_10
REMARK    7  A    between atoms: C_17  and  O_19
REMARK    8  A    between atoms: O_19  and  C_20
REMARK    9  A    between atoms: C_20  and  C_21
REMARK   10  A    between atoms: C_25  and  O_27
REMARK   11  A    between atoms: O_27  and  C_28
REMARK   12  A    between atoms: C_32  and  C_33
REMARK   13  A    between atoms: C_32  and  C_34
REMARK   14  A    between atoms: C_34  and  C_35
REMARK   15  A    between atoms: C_36  and  C_37
REMARK   16  A    between atoms: C_36  and  C_39
REMARK                            x       y       z     vdW  Elec       q    Type
REMARK                         _______ _______ _______ _____ _____    ______ ____
ROOT
ATOM      1  C   LIG A   1      -8.623   2.161 126.945  0.00  0.00    +0.012 C 
ATOM      2  C   LIG A   1      -7.486   1.677 126.033  0.00  0.00    +0.033 C 
ATOM      3  C   LIG A   1      -8.165   1.315 124.713  0.00  0.00    +0.181 C 
ATOM      4  C   LIG A   1      -8.772  -0.087 124.729  0.00  0.00    +0.064 C 
ATOM      5  C   LIG A   1      -7.953  -1.265 125.341  0.00  0.00    +0.083 C 
ATOM      6  C   LIG A   1      -7.923  -2.372 124.314  0.00  0.00    +0.049 C 
ATOM      7  C   LIG A   1      -9.233  -2.961 124.301  0.00  0.00    +0.339 C 
ATOM      8  O   LIG A   1      -9.850  -2.698 125.484  0.00  0.00    -0.420 OA
ATOM      9  C   LIG A   1      -8.857  -2.106 126.310  0.00  0.00    +0.381 C 
ATOM     10  O   LIG A   1      -9.749  -3.594 123.351  0.00  0.00    -0.245 OA
ATOM     11  C   LIG A   1      -6.870  -2.932 123.747  0.00  0.00    +0.015 C 
ATOM     12  C   LIG A   1      -5.464  -2.532 124.062  0.00  0.00    +0.142 C 
ATOM     13  C   LIG A   1      -5.324  -1.428 125.145  0.00  0.00    +0.041 C 
ATOM     14  C   LIG A   1      -6.570  -0.893 125.934  0.00  0.00    +0.016 C 
ATOM     15  C   LIG A   1      -6.446   0.583 126.582  0.00  0.00    -0.019 C 
ATOM     16  C   LIG A   1      -5.008   1.191 126.362  0.00  0.00    +0.012 C 
ENDROOT
BRANCH  12  17
ATOM     17  O   LIG A   1      -4.768  -3.733 124.429  0.00  0.00    -0.376 OA
ATOM     18  C   LIG A   1      -4.404  -4.557 123.323  0.00  0.00    +0.194 C 
ENDBRANCH  12  17
BRANCH   3  19
ATOM     19  O   LIG A   1      -7.247   1.469 123.635  0.00  0.00    -0.461 OA
BRANCH  19  20
ATOM     20  C   LIG A   1      -7.448   2.484 122.744  0.00  0.00    +0.307 C 
ATOM     21  O   LIG A   1      -8.524   2.804 122.272  0.00  0.00    -0.251 OA
BRANCH  20  22
ATOM     22  C   LIG A   1      -6.159   3.245 122.509  0.00  0.00    +0.120 C 
BRANCH  22  23
ATOM     23  C   LIG A   1      -5.623   3.160 121.081  0.00  0.00    +0.008 C 
ATOM     24  C   LIG A   1      -5.711   4.465 120.317  0.00  0.00    +0.004 C 
ENDBRANCH  22  23
ENDBRANCH  20  22
ENDBRANCH  19  20
ENDBRANCH   3  19
BRANCH   9  25
ATOM     25  O   LIG A   1      -8.085  -3.135 126.961  0.00  0.00    -0.424 OA
BRANCH  25  26
ATOM     26  C   LIG A   1      -8.633  -3.599 128.117  0.00  0.00    +0.307 C 
ATOM     27  C   LIG A   1      -7.791  -3.174 129.286  0.00  0.00    +0.136 C 
ATOM     28  O   LIG A   1      -9.599  -4.311 128.203  0.00  0.00    -0.251 OA
ENDBRANCH  25  26
ENDBRANCH   9  25
BRANCH  15  29
ATOM     29  C   LIG A   1      -6.516   0.432 128.155  0.00  0.00    +0.034 C 
BRANCH  29  30
ATOM     30  C   LIG A   1      -5.451  -0.405 128.808  0.00  0.00    -0.023 C 
ATOM     31  C   LIG A   1      -4.635  -0.175 129.850  0.00  0.00    -0.055 C 
ATOM     32  C   LIG A   1      -3.708  -1.280 130.314  0.00  0.00    +0.043 C 
BRANCH  31  33
ATOM     33  C   LIG A   1      -4.546   1.066 130.581  0.00  0.00    -0.005 C 
ATOM     34  C   LIG A   1      -4.093   2.216 130.071  0.00  0.00    +0.008 C 
ENDBRANCH  31  33
ENDBRANCH  29  30
ENDBRANCH  15  29
TORSDOF 10
ENDMDL
MODEL 3
REMARK VINA RESULT:      -7.8      1.174      2.015
REMARK  Name = NuBBE_235
REMARK  16 active torsions:
REMARK  status: ('A' for Active; 'I' for Inactive)
REMARK    1  A    between atoms: C_1  and  C_2
REMARK    2  A    between atoms: C_4  and  O_6
REMARK    3  A    between atoms: O_6  and  C_7
REMARK    4  A    between atoms: C_7  and  C_8
REMARK    5  A    between atoms: C_8  and  C_9
REMARK    6  A    between atoms: C_9  and  C_10
REMARK    7  A    between atoms: C_17  and  O_19
REMARK    8  A    between atoms: O_19  and  C_20
REMARK    9  A    between atoms: C_20  and  C_21
REMARK   10  A    between atoms: C_25  and  O_27
REMARK   11  A    between atoms: O_27  and  C_28
REMARK   12  A    between atoms: C_32  and  C_33
REMARK   13  A    between atoms: C_32  and  C_34
REMARK   14  A    between atoms: C_34  and  C_35
REMARK   15  A    between atoms: C_36  and  C_37
REMARK   16  A    between atoms: C_36  and  C_39
REMARK                            x       y       z     vdW  Elec       q    Type
REMARK                         _______ _______ _______ _____ _____    ______ ____
ROOT
ATOM      1  C   LIG A   1      -8.947  -1.165 126.000  0.00  0.00    +0.012 C 
ATOM      2  C   LIG A   1      -7.756  -0.582 126.777  0.00  0.00    +0.033 C 
ATOM      3  C   LIG A   1      -8.361   0.502 127.669  0.00  0.00    +0.181 C 
ATOM      4  C   LIG A   1      -8.554   1.828 126.935  0.00  0.00    +0.064 C 
ATOM      5  C   LIG A   1      -7.417   2.359 126.009  0.00  0.00    +0.083 C 
ATOM      6  C   LIG A   1      -7.123   3.780 126.431  0.00  0.00    +0.049 C 
ATOM      7  C   LIG A   1      -8.217   4.586 125.966  0.00  0.00    +0.339 C 
ATOM      8  O   LIG A   1      -8.835   3.945 124.938  0.00  0.00    -0.420 OA
ATOM      9  C   LIG A   1      -8.013   2.827 124.635  0.00  0.00    +0.381 C 
ATOM     10  O   LIG A   1      -8.574   5.689 126.439  0.00  0.00    -0.245 OA
ATOM     11  C   LIG A   1      -5.979   4.285 126.856  0.00  0.00    +0.015 C 
ATOM     12  C   LIG A   1      -4.728   3.477 126.986  0.00  0.00    +0.142 C 
ATOM     13  C   LIG A   1      -4.856   1.994 126.542  0.00  0.00    +0.041 C 
ATOM     14  C   LIG A   1      -6.169   1.450 125.878  0.00  0.00    +0.016 C 
ATOM     15  C   LIG A   1      -6.433  -0.142 125.979  0.00  0.00    -0.019 C 
ATOM     16  C   LIG A   1      -5.231  -0.883 126.679  0.00  0.00    +0.012 C 
ENDROOT
BRANCH  12  17
ATOM     17  O   LIG A   1      -3.711   4.170 126.246  0.00  0.00    -0.376 OA
ATOM     18  C   LIG A   1      -2.379   3.835 126.631  0.00  0.00    +0.194 C 
ENDBRANCH  12  17
BRANCH   3  19
ATOM     19  O   LIG A   1      -7.566   0.669 128.838  0.00  0.00    -0.461 OA
BRANCH  19  20
ATOM     20  C   LIG A   1      -8.027   1.483 129.833  0.00  0.00    +0.307 C 
ATOM     21  O   LIG A   1      -8.991   1.254 130.540  0.00  0.00    -0.251 OA
BRANCH  20  22
ATOM     22  C   LIG A   1      -7.099   2.666 130.023  0.00  0.00    +0.120 C 
BRANCH  22  23
ATOM     23  C   LIG A   1      -7.751   3.887 130.670  0.00  0.00    +0.008 C 
ATOM     24  C   LIG A   1      -8.661   4.659 129.736  0.00  0.00    +0.004 C 
ENDBRANCH  22  23
ENDBRANCH  20  22
ENDBRANCH  19  20
ENDBRANCH   3  19
BRANCH   9  25
ATOM     25  O   LIG A   1      -6.961   3.223 123.732  0.00  0.00    -0.424 OA
BRANCH  25  26
ATOM     26  C   LIG A   1      -7.305   3.180 122.417  0.00  0.00    +0.307 C 
ATOM     27  C   LIG A   1      -6.069   3.228 121.565  0.00  0.00    +0.136 C 
ATOM     28  O   LIG A   1      -8.426   3.183 121.981  0.00  0.00    -0.251 OA
ENDBRANCH  25  26
ENDBRANCH   9  25
BRANCH  15  29
ATOM     29  C   LIG A   1      -6.395  -0.737 124.514  0.00  0.00    +0.034 C 
BRANCH  29  30
ATOM     30  C   LIG A   1      -5.571  -1.976 124.303  0.00  0.00    -0.023 C 
ATOM     31  C   LIG A   1      -5.907  -3.253 124.056  0.00  0.00    -0.055 C 
ATOM     32  C   LIG A   1      -4.808  -4.267 123.810  0.00  0.00    +0.043 C 
BRANCH  31  33
ATOM     33  C   LIG A   1      -7.255  -3.766 124.015  0.00  0.00    -0.005 C 
ATOM     34  C   LIG A   1      -7.911  -4.260 125.071  0.00  0.00    +0.008 C 
ENDBRANCH  31  33
ENDBRANCH  29  30
ENDBRANCH  15  29
TORSDOF 10
ENDMDL
MODEL 4
REMARK VINA RESULT:      -7.6      2.188      3.091
REMARK  Name = NuBBE_235
REMARK  16 active torsions:
REMARK  status: ('A' for Active; 'I' for Inactive)
REMARK    1  A    between atoms: C_1  and  C_2
REMARK    2  A    between atoms: C_4  and  O_6
REMARK    3  A    between atoms: O_6  and  C_7
REMARK    4  A    between atoms: C_7  and  C_8
REMARK    5  A    between atoms: C_8  and  C_9
REMARK    6  A    between atoms: C_9  and  C_10
REMARK    7  A    between atoms: C_17  and  O_19
REMARK    8  A    between atoms: O_19  and  C_20
REMARK    9  A    between atoms: C_20  and  C_21
REMARK   10  A    between atoms: C_25  and  O_27
REMARK   11  A    between atoms: O_27  and  C_28
REMARK   12  A    between atoms: C_32  and  C_33
REMARK   13  A    between atoms: C_32  and  C_34
REMARK   14  A    between atoms: C_34  and  C_35
REMARK   15  A    between atoms: C_36  and  C_37
REMARK   16  A    between atoms: C_36  and  C_39
REMARK                            x       y       z     vdW  Elec       q    Type
REMARK                         _______ _______ _______ _____ _____    ______ ____
ROOT
ATOM      1  C   LIG A   1      -8.445  -2.884 129.124  0.00  0.00    +0.012 C 
ATOM      2  C   LIG A   1      -7.054  -2.246 128.986  0.00  0.00    +0.033 C 
ATOM      3  C   LIG A   1      -7.007  -1.167 130.068  0.00  0.00    +0.181 C 
ATOM      4  C   LIG A   1      -7.668   0.138 129.627  0.00  0.00    +0.064 C 
ATOM      5  C   LIG A   1      -7.386   0.689 128.195  0.00  0.00    +0.083 C 
ATOM      6  C   LIG A   1      -6.947   2.128 128.348  0.00  0.00    +0.049 C 
ATOM      7  C   LIG A   1      -8.121   2.886 128.679  0.00  0.00    +0.339 C 
ATOM      8  O   LIG A   1      -9.221   2.205 128.263  0.00  0.00    -0.420 OA
ATOM      9  C   LIG A   1      -8.729   1.110 127.503  0.00  0.00    +0.381 C 
ATOM     10  O   LIG A   1      -8.144   3.985 129.279  0.00  0.00    -0.245 OA
ATOM     11  C   LIG A   1      -5.810   2.680 127.965  0.00  0.00    +0.015 C 
ATOM     12  C   LIG A   1      -4.724   1.917 127.275  0.00  0.00    +0.142 C 
ATOM     13  C   LIG A   1      -5.045   0.423 127.000  0.00  0.00    +0.041 C 
ATOM     14  C   LIG A   1      -6.462  -0.178 127.304  0.00  0.00    +0.016 C 
ATOM     15  C   LIG A   1      -6.542  -1.776 127.537  0.00  0.00    -0.019 C 
ATOM     16  C   LIG A   1      -5.139  -2.463 127.322  0.00  0.00    +0.012 C 
ENDROOT
BRANCH  12  17
ATOM     17  O   LIG A   1      -4.425   2.631 126.066  0.00  0.00    -0.376 OA
ATOM     18  C   LIG A   1      -3.816   3.904 126.276  0.00  0.00    +0.194 C 
ENDBRANCH  12  17
BRANCH   3  19
ATOM     19  O   LIG A   1      -5.661  -0.951 130.479  0.00  0.00    -0.461 OA
BRANCH  19  20
ATOM     20  C   LIG A   1      -5.185  -1.647 131.553  0.00  0.00    +0.307 C 
ATOM     21  O   LIG A   1      -5.574  -1.525 132.700  0.00  0.00    -0.251 OA
BRANCH  20  22
ATOM     22  C   LIG A   1      -4.181  -2.690 131.106  0.00  0.00    +0.120 C 
BRANCH  22  23
ATOM     23  C   LIG A   1      -4.461  -4.102 131.619  0.00  0.00    +0.008 C 
ATOM     24  C   LIG A   1      -5.473  -4.863 130.788  0.00  0.00    +0.004 C 
ENDBRANCH  22  23
ENDBRANCH  20  22
ENDBRANCH  19  20
ENDBRANCH   3  19
BRANCH   9  25
ATOM     25  O   LIG A   1      -8.493   1.526 126.142  0.00  0.00    -0.424 OA
BRANCH  25  26
ATOM     26  C   LIG A   1      -9.407   1.062 125.248  0.00  0.00    +0.307 C 
ATOM     27  C   LIG A   1      -9.430   1.950 124.037  0.00  0.00    +0.136 C 
ATOM     28  O   LIG A   1     -10.150   0.131 125.417  0.00  0.00    -0.251 OA
ENDBRANCH  25  26
ENDBRANCH   9  25
BRANCH  15  29
ATOM     29  C   LIG A   1      -7.409  -2.397 126.369  0.00  0.00    +0.034 C 
BRANCH  29  30
ATOM     30  C   LIG A   1      -7.143  -1.890 124.979  0.00  0.00    -0.023 C 
ATOM     31  C   LIG A   1      -6.467  -2.413 123.942  0.00  0.00    -0.055 C 
ATOM     32  C   LIG A   1      -6.452  -1.665 122.624  0.00  0.00    +0.043 C 
BRANCH  31  33
ATOM     33  C   LIG A   1      -5.720  -3.647 123.971  0.00  0.00    -0.005 C 
ATOM     34  C   LIG A   1      -4.455  -3.779 123.560  0.00  0.00    +0.008 C 
ENDBRANCH  31  33
ENDBRANCH  29  30
ENDBRANCH  15  29
TORSDOF 10
ENDMDL
MODEL 5
REMARK VINA RESULT:      -7.4      2.227      3.411
REMARK  Name = NuBBE_235
REMARK  16 active torsions:
REMARK  status: ('A' for Active; 'I' for Inactive)
REMARK    1  A    between atoms: C_1  and  C_2
REMARK    2  A    between atoms: C_4  and  O_6
REMARK    3  A    between atoms: O_6  and  C_7
REMARK    4  A    between atoms: C_7  and  C_8
REMARK    5  A    between atoms: C_8  and  C_9
REMARK    6  A    between atoms: C_9  and  C_10
REMARK    7  A    between atoms: C_17  and  O_19
REMARK    8  A    between atoms: O_19  and  C_20
REMARK    9  A    between atoms: C_20  and  C_21
REMARK   10  A    between atoms: C_25  and  O_27
REMARK   11  A    between atoms: O_27  and  C_28
REMARK   12  A    between atoms: C_32  and  C_33
REMARK   13  A    between atoms: C_32  and  C_34
REMARK   14  A    between atoms: C_34  and  C_35
REMARK   15  A    between atoms: C_36  and  C_37
REMARK   16  A    between atoms: C_36  and  C_39
REMARK                            x       y       z     vdW  Elec       q    Type
REMARK                         _______ _______ _______ _____ _____    ______ ____
ROOT
ATOM      1  C   LIG A   1      -8.305  -2.974 129.022  0.00  0.00    +0.012 C 
ATOM      2  C   LIG A   1      -6.937  -2.285 128.901  0.00  0.00    +0.033 C 
ATOM      3  C   LIG A   1      -6.949  -1.195 129.973  0.00  0.00    +0.181 C 
ATOM      4  C   LIG A   1      -7.651   0.080 129.508  0.00  0.00    +0.064 C 
ATOM      5  C   LIG A   1      -7.364   0.629 128.077  0.00  0.00    +0.083 C 
ATOM      6  C   LIG A   1      -6.982   2.083 128.223  0.00  0.00    +0.049 C 
ATOM      7  C   LIG A   1      -8.190   2.800 128.526  0.00  0.00    +0.339 C 
ATOM      8  O   LIG A   1      -9.256   2.075 128.097  0.00  0.00    -0.420 OA
ATOM      9  C   LIG A   1      -8.710   0.992 127.357  0.00  0.00    +0.381 C 
ATOM     10  O   LIG A   1      -8.264   3.903 129.115  0.00  0.00    -0.245 OA
ATOM     11  C   LIG A   1      -5.860   2.675 127.854  0.00  0.00    +0.015 C 
ATOM     12  C   LIG A   1      -4.735   1.947 127.190  0.00  0.00    +0.142 C 
ATOM     13  C   LIG A   1      -4.995   0.439 126.925  0.00  0.00    +0.041 C 
ATOM     14  C   LIG A   1      -6.393  -0.212 127.210  0.00  0.00    +0.016 C 
ATOM     15  C   LIG A   1      -6.417  -1.810 127.457  0.00  0.00    -0.019 C 
ATOM     16  C   LIG A   1      -4.987  -2.445 127.273  0.00  0.00    +0.012 C 
ENDROOT
BRANCH  12  17
ATOM     17  O   LIG A   1      -4.441   2.661 125.979  0.00  0.00    -0.376 OA
ATOM     18  C   LIG A   1      -4.199   4.054 126.168  0.00  0.00    +0.194 C 
ENDBRANCH  12  17
BRANCH   3  19
ATOM     19  O   LIG A   1      -5.619  -0.924 130.406  0.00  0.00    -0.461 OA
BRANCH  19  20
ATOM     20  C   LIG A   1      -5.413   0.099 131.286  0.00  0.00    +0.307 C 
ATOM     21  O   LIG A   1      -5.939   0.205 132.379  0.00  0.00    -0.251 OA
BRANCH  20  22
ATOM     22  C   LIG A   1      -4.340   1.035 130.767  0.00  0.00    +0.120 C 
BRANCH  22  23
ATOM     23  C   LIG A   1      -4.127   2.288 131.616  0.00  0.00    +0.008 C 
ATOM     24  C   LIG A   1      -3.845   3.535 130.802  0.00  0.00    +0.004 C 
ENDBRANCH  22  23
ENDBRANCH  20  22
ENDBRANCH  19  20
ENDBRANCH   3  19
BRANCH   9  25
ATOM     25  O   LIG A   1      -8.465   1.404 125.997  0.00  0.00    -0.424 OA
BRANCH  25  26
ATOM     26  C   LIG A   1      -9.316   0.860 125.085  0.00  0.00    +0.307 C 
ATOM     27  C   LIG A   1      -8.706   0.930 123.715  0.00  0.00    +0.136 C 
ATOM     28  O   LIG A   1     -10.425   0.453 125.311  0.00  0.00    -0.251 OA
ENDBRANCH  25  26
ENDBRANCH   9  25
BRANCH  15  29
ATOM     29  C   LIG A   1      -7.240  -2.473 126.281  0.00  0.00    +0.034 C 
BRANCH  29  30
ATOM     30  C   LIG A   1      -6.953  -1.985 124.888  0.00  0.00    -0.023 C 
ATOM     31  C   LIG A   1      -6.270  -2.525 123.865  0.00  0.00    -0.055 C 
ATOM     32  C   LIG A   1      -6.233  -1.793 122.539  0.00  0.00    +0.043 C 
BRANCH  31  33
ATOM     33  C   LIG A   1      -5.535  -3.766 123.917  0.00  0.00    -0.005 C 
ATOM     34  C   LIG A   1      -4.268  -3.915 123.516  0.00  0.00    +0.008 C 
ENDBRANCH  31  33
ENDBRANCH  29  30
ENDBRANCH  15  29
TORSDOF 10
ENDMDL
MODEL 6
REMARK VINA RESULT:      -7.3      4.833      8.660
REMARK  Name = NuBBE_235
REMARK  16 active torsions:
REMARK  status: ('A' for Active; 'I' for Inactive)
REMARK    1  A    between atoms: C_1  and  C_2
REMARK    2  A    between atoms: C_4  and  O_6
REMARK    3  A    between atoms: O_6  and  C_7
REMARK    4  A    between atoms: C_7  and  C_8
REMARK    5  A    between atoms: C_8  and  C_9
REMARK    6  A    between atoms: C_9  and  C_10
REMARK    7  A    between atoms: C_17  and  O_19
REMARK    8  A    between atoms: O_19  and  C_20
REMARK    9  A    between atoms: C_20  and  C_21
REMARK   10  A    between atoms: C_25  and  O_27
REMARK   11  A    between atoms: O_27  and  C_28
REMARK   12  A    between atoms: C_32  and  C_33
REMARK   13  A    between atoms: C_32  and  C_34
REMARK   14  A    between atoms: C_34  and  C_35
REMARK   15  A    between atoms: C_36  and  C_37
REMARK   16  A    between atoms: C_36  and  C_39
REMARK                            x       y       z     vdW  Elec       q    Type
REMARK                         _______ _______ _______ _____ _____    ______ ____
ROOT
ATOM      1  C   LIG A   1      -3.757   8.575 130.427  0.00  0.00    +0.012 C 
ATOM      2  C   LIG A   1      -3.801   7.253 131.208  0.00  0.00    +0.033 C 
ATOM      3  C   LIG A   1      -2.522   6.517 130.809  0.00  0.00    +0.181 C 
ATOM      4  C   LIG A   1      -2.665   5.762 129.488  0.00  0.00    +0.064 C 
ATOM      5  C   LIG A   1      -3.959   4.934 129.221  0.00  0.00    +0.083 C 
ATOM      6  C   LIG A   1      -3.526   3.543 128.819  0.00  0.00    +0.049 C 
ATOM      7  C   LIG A   1      -3.013   3.639 127.481  0.00  0.00    +0.339 C 
ATOM      8  O   LIG A   1      -3.528   4.747 126.886  0.00  0.00    -0.420 OA
ATOM      9  C   LIG A   1      -4.511   5.242 127.785  0.00  0.00    +0.381 C 
ATOM     10  O   LIG A   1      -2.198   2.852 126.945  0.00  0.00    -0.245 OA
ATOM     11  C   LIG A   1      -3.820   2.395 129.403  0.00  0.00    +0.015 C 
ATOM     12  C   LIG A   1      -4.684   2.297 130.620  0.00  0.00    +0.142 C 
ATOM     13  C   LIG A   1      -5.251   3.648 131.133  0.00  0.00    +0.041 C 
ATOM     14  C   LIG A   1      -5.037   4.981 130.333  0.00  0.00    +0.016 C 
ATOM     15  C   LIG A   1      -5.136   6.359 131.173  0.00  0.00    -0.019 C 
ATOM     16  C   LIG A   1      -5.528   6.094 132.676  0.00  0.00    +0.012 C 
ENDROOT
BRANCH  12  17
ATOM     17  O   LIG A   1      -5.728   1.362 130.309  0.00  0.00    -0.376 OA
ATOM     18  C   LIG A   1      -5.689   0.165 131.084  0.00  0.00    +0.194 C 
ENDBRANCH  12  17
BRANCH   3  19
ATOM     19  O   LIG A   1      -2.113   5.647 131.860  0.00  0.00    -0.461 OA
BRANCH  19  20
ATOM     20  C   LIG A   1      -1.534   6.190 132.971  0.00  0.00    +0.307 C 
ATOM     21  O   LIG A   1      -1.866   5.963 134.120  0.00  0.00    -0.251 OA
BRANCH  20  22
ATOM     22  C   LIG A   1      -0.332   7.028 132.586  0.00  0.00    +0.120 C 
BRANCH  22  23
ATOM     23  C   LIG A   1      -0.202   8.343 133.356  0.00  0.00    +0.008 C 
ATOM     24  C   LIG A   1      -1.409   9.248 133.224  0.00  0.00    +0.004 C 
ENDBRANCH  22  23
ENDBRANCH  20  22
ENDBRANCH  19  20
ENDBRANCH   3  19
BRANCH   9  25
ATOM     25  O   LIG A   1      -5.763   4.561 127.564  0.00  0.00    -0.424 OA
BRANCH  25  26
ATOM     26  C   LIG A   1      -6.192   4.581 126.272  0.00  0.00    +0.307 C 
ATOM     27  C   LIG A   1      -6.366   3.176 125.772  0.00  0.00    +0.136 C 
ATOM     28  O   LIG A   1      -6.338   5.563 125.593  0.00  0.00    -0.251 OA
ENDBRANCH  25  26
ENDBRANCH   9  25
BRANCH  15  29
ATOM     29  C   LIG A   1      -6.381   7.171 130.633  0.00  0.00    +0.034 C 
BRANCH  29  30
ATOM     30  C   LIG A   1      -7.719   6.846 131.234  0.00  0.00    -0.023 C 
ATOM     31  C   LIG A   1      -8.702   6.012 130.854  0.00  0.00    -0.055 C 
ATOM     32  C   LIG A   1      -9.918   5.856 131.744  0.00  0.00    +0.043 C 
BRANCH  31  33
ATOM     33  C   LIG A   1      -8.714   5.240 129.635  0.00  0.00    -0.005 C 
ATOM     34  C   LIG A   1      -8.597   3.909 129.579  0.00  0.00    +0.008 C 
ENDBRANCH  31  33
ENDBRANCH  29  30
ENDBRANCH  15  29
TORSDOF 10
ENDMDL
MODEL 7
REMARK VINA RESULT:      -7.3      4.063      7.757
REMARK  Name = NuBBE_235
REMARK  16 active torsions:
REMARK  status: ('A' for Active; 'I' for Inactive)
REMARK    1  A    between atoms: C_1  and  C_2
REMARK    2  A    between atoms: C_4  and  O_6
REMARK    3  A    between atoms: O_6  and  C_7
REMARK    4  A    between atoms: C_7  and  C_8
REMARK    5  A    between atoms: C_8  and  C_9
REMARK    6  A    between atoms: C_9  and  C_10
REMARK    7  A    between atoms: C_17  and  O_19
REMARK    8  A    between atoms: O_19  and  C_20
REMARK    9  A    between atoms: C_20  and  C_21
REMARK   10  A    between atoms: C_25  and  O_27
REMARK   11  A    between atoms: O_27  and  C_28
REMARK   12  A    between atoms: C_32  and  C_33
REMARK   13  A    between atoms: C_32  and  C_34
REMARK   14  A    between atoms: C_34  and  C_35
REMARK   15  A    between atoms: C_36  and  C_37
REMARK   16  A    between atoms: C_36  and  C_39
REMARK                            x       y       z     vdW  Elec       q    Type
REMARK                         _______ _______ _______ _____ _____    ______ ____
ROOT
ATOM      1  C   LIG A   1      -9.000   3.901 133.959  0.00  0.00    +0.012 C 
ATOM      2  C   LIG A   1      -9.361   3.146 132.671  0.00  0.00    +0.033 C 
ATOM      3  C   LIG A   1      -8.508   1.878 132.704  0.00  0.00    +0.181 C 
ATOM      4  C   LIG A   1      -7.088   2.111 132.190  0.00  0.00    +0.064 C 
ATOM      5  C   LIG A   1      -6.874   2.962 130.900  0.00  0.00    +0.083 C 
ATOM      6  C   LIG A   1      -6.010   2.148 129.965  0.00  0.00    +0.049 C 
ATOM      7  C   LIG A   1      -4.678   2.176 130.503  0.00  0.00    +0.339 C 
ATOM      8  O   LIG A   1      -4.547   3.261 131.311  0.00  0.00    -0.420 OA
ATOM      9  C   LIG A   1      -5.736   4.017 131.131  0.00  0.00    +0.381 C 
ATOM     10  O   LIG A   1      -3.780   1.327 130.293  0.00  0.00    -0.245 OA
ATOM     11  C   LIG A   1      -6.289   1.742 128.740  0.00  0.00    +0.015 C 
ATOM     12  C   LIG A   1      -7.581   2.051 128.053  0.00  0.00    +0.142 C 
ATOM     13  C   LIG A   1      -8.567   2.928 128.873  0.00  0.00    +0.041 C 
ATOM     14  C   LIG A   1      -8.155   3.547 130.254  0.00  0.00    +0.016 C 
ATOM     15  C   LIG A   1      -9.354   3.930 131.268  0.00  0.00    -0.019 C 
ATOM     16  C   LIG A   1     -10.767   3.677 130.616  0.00  0.00    +0.012 C 
ENDROOT
BRANCH  12  17
ATOM     17  O   LIG A   1      -7.243   2.658 126.797  0.00  0.00    -0.376 OA
ATOM     18  C   LIG A   1      -8.189   2.412 125.757  0.00  0.00    +0.194 C 
ENDBRANCH  12  17
BRANCH   3  19
ATOM     19  O   LIG A   1      -9.155   0.837 131.980  0.00  0.00    -0.461 OA
BRANCH  19  20
ATOM     20  C   LIG A   1      -8.532  -0.374 131.877  0.00  0.00    +0.307 C 
ATOM     21  O   LIG A   1      -8.242  -1.098 132.812  0.00  0.00    -0.251 OA
BRANCH  20  22
ATOM     22  C   LIG A   1      -8.356  -0.758 130.422  0.00  0.00    +0.120 C 
BRANCH  22  23
ATOM     23  C   LIG A   1      -7.337  -1.870 130.177  0.00  0.00    +0.008 C 
ATOM     24  C   LIG A   1      -7.949  -3.153 129.652  0.00  0.00    +0.004 C 
ENDBRANCH  22  23
ENDBRANCH  20  22
ENDBRANCH  19  20
ENDBRANCH   3  19
BRANCH   9  25
ATOM     25  O   LIG A   1      -5.600   4.878 129.981  0.00  0.00    -0.424 OA
BRANCH  25  26
ATOM     26  C   LIG A   1      -5.317   6.174 130.282  0.00  0.00    +0.307 C 
ATOM     27  C   LIG A   1      -5.900   6.525 131.621  0.00  0.00    +0.136 C 
ATOM     28  O   LIG A   1      -4.755   6.958 129.563  0.00  0.00    -0.251 OA
ENDBRANCH  25  26
ENDBRANCH   9  25
BRANCH  15  29
ATOM     29  C   LIG A   1      -9.345   5.500 131.465  0.00  0.00    +0.034 C 
BRANCH  29  30
ATOM     30  C   LIG A   1     -10.646   6.221 131.252  0.00  0.00    -0.023 C 
ATOM     31  C   LIG A   1     -11.051   7.097 130.317  0.00  0.00    -0.055 C 
ATOM     32  C   LIG A   1     -12.483   7.589 130.344  0.00  0.00    +0.043 C 
BRANCH  31  33
ATOM     33  C   LIG A   1     -10.221   7.639 129.268  0.00  0.00    -0.005 C 
ATOM     34  C   LIG A   1     -10.645   8.493 128.330  0.00  0.00    +0.008 C 
ENDBRANCH  31  33
ENDBRANCH  29  30
ENDBRANCH  15  29
TORSDOF 10
ENDMDL
MODEL 8
REMARK VINA RESULT:      -7.3      4.556      8.541
REMARK  Name = NuBBE_235
REMARK  16 active torsions:
REMARK  status: ('A' for Active; 'I' for Inactive)
REMARK    1  A    between atoms: C_1  and  C_2
REMARK    2  A    between atoms: C_4  and  O_6
REMARK    3  A    between atoms: O_6  and  C_7
REMARK    4  A    between atoms: C_7  and  C_8
REMARK    5  A    between atoms: C_8  and  C_9
REMARK    6  A    between atoms: C_9  and  C_10
REMARK    7  A    between atoms: C_17  and  O_19
REMARK    8  A    between atoms: O_19  and  C_20
REMARK    9  A    between atoms: C_20  and  C_21
REMARK   10  A    between atoms: C_25  and  O_27
REMARK   11  A    between atoms: O_27  and  C_28
REMARK   12  A    between atoms: C_32  and  C_33
REMARK   13  A    between atoms: C_32  and  C_34
REMARK   14  A    between atoms: C_34  and  C_35
REMARK   15  A    between atoms: C_36  and  C_37
REMARK   16  A    between atoms: C_36  and  C_39
REMARK                            x       y       z     vdW  Elec       q    Type
REMARK                         _______ _______ _______ _____ _____    ______ ____
ROOT
ATOM      1  C   LIG A   1      -9.774   5.711 132.628  0.00  0.00    +0.012 C 
ATOM      2  C   LIG A   1      -8.936   6.124 131.409  0.00  0.00    +0.033 C 
ATOM      3  C   LIG A   1      -9.706   5.590 130.202  0.00  0.00    +0.181 C 
ATOM      4  C   LIG A   1      -9.414   4.116 129.923  0.00  0.00    +0.064 C 
ATOM      5  C   LIG A   1      -7.942   3.605 129.989  0.00  0.00    +0.083 C 
ATOM      6  C   LIG A   1      -7.664   2.874 128.696  0.00  0.00    +0.049 C 
ATOM      7  C   LIG A   1      -8.365   1.622 128.769  0.00  0.00    +0.339 C 
ATOM      8  O   LIG A   1      -8.591   1.315 130.073  0.00  0.00    -0.420 OA
ATOM      9  C   LIG A   1      -7.867   2.279 130.825  0.00  0.00    +0.381 C 
ATOM     10  O   LIG A   1      -8.739   0.928 127.795  0.00  0.00    -0.245 OA
ATOM     11  C   LIG A   1      -6.736   3.134 127.794  0.00  0.00    +0.015 C 
ATOM     12  C   LIG A   1      -5.758   4.257 127.930  0.00  0.00    +0.142 C 
ATOM     13  C   LIG A   1      -5.884   5.082 129.240  0.00  0.00    +0.041 C 
ATOM     14  C   LIG A   1      -6.875   4.658 130.380  0.00  0.00    +0.016 C 
ATOM     15  C   LIG A   1      -7.358   5.819 131.397  0.00  0.00    -0.019 C 
ATOM     16  C   LIG A   1      -6.647   7.191 131.086  0.00  0.00    +0.012 C 
ENDROOT
BRANCH  12  17
ATOM     17  O   LIG A   1      -4.450   3.684 127.783  0.00  0.00    -0.376 OA
ATOM     18  C   LIG A   1      -3.389   4.637 127.816  0.00  0.00    +0.194 C 
ENDBRANCH  12  17
BRANCH   3  19
ATOM     19  O   LIG A   1      -9.436   6.395 129.058  0.00  0.00    -0.461 OA
BRANCH  19  20
ATOM     20  C   LIG A   1     -10.293   7.415 128.759  0.00  0.00    +0.307 C 
ATOM     21  O   LIG A   1      -9.974   8.479 128.259  0.00  0.00    -0.251 OA
BRANCH  20  22
ATOM     22  C   LIG A   1     -11.725   6.999 129.023  0.00  0.00    +0.120 C 
BRANCH  22  23
ATOM     23  C   LIG A   1     -12.522   7.975 129.888  0.00  0.00    +0.008 C 
ATOM     24  C   LIG A   1     -12.822   7.453 131.278  0.00  0.00    +0.004 C 
ENDBRANCH  22  23
ENDBRANCH  20  22
ENDBRANCH  19  20
ENDBRANCH   3  19
BRANCH   9  25
ATOM     25  O   LIG A   1      -6.499   1.852 130.980  0.00  0.00    -0.424 OA
BRANCH  25  26
ATOM     26  C   LIG A   1      -6.225   1.271 132.179  0.00  0.00    +0.307 C 
ATOM     27  C   LIG A   1      -7.107   1.859 133.242  0.00  0.00    +0.136 C 
ATOM     28  O   LIG A   1      -5.358   0.464 132.390  0.00  0.00    -0.251 OA
ENDBRANCH  25  26
ENDBRANCH   9  25
BRANCH  15  29
ATOM     29  C   LIG A   1      -6.809   5.466 132.837  0.00  0.00    +0.034 C 
BRANCH  29  30
ATOM     30  C   LIG A   1      -5.467   6.032 133.212  0.00  0.00    -0.023 C 
ATOM     31  C   LIG A   1      -4.230   5.509 133.193  0.00  0.00    -0.055 C 
ATOM     32  C   LIG A   1      -3.055   6.389 133.569  0.00  0.00    +0.043 C 
BRANCH  31  33
ATOM     33  C   LIG A   1      -3.907   4.144 132.852  0.00  0.00    -0.005 C 
ATOM     34  C   LIG A   1      -3.495   3.741 131.646  0.00  0.00    +0.008 C 
ENDBRANCH  31  33
ENDBRANCH  29  30
ENDBRANCH  15  29
TORSDOF 10
ENDMDL
MODEL 9
REMARK VINA RESULT:      -7.2      2.809      5.950
REMARK  Name = NuBBE_235
REMARK  16 active torsions:
REMARK  status: ('A' for Active; 'I' for Inactive)
REMARK    1  A    between atoms: C_1  and  C_2
REMARK    2  A    between atoms: C_4  and  O_6
REMARK    3  A    between atoms: O_6  and  C_7
REMARK    4  A    between atoms: C_7  and  C_8
REMARK    5  A    between atoms: C_8  and  C_9
REMARK    6  A    between atoms: C_9  and  C_10
REMARK    7  A    between atoms: C_17  and  O_19
REMARK    8  A    between atoms: O_19  and  C_20
REMARK    9  A    between atoms: C_20  and  C_21
REMARK   10  A    between atoms: C_25  and  O_27
REMARK   11  A    between atoms: O_27  and  C_28
REMARK   12  A    between atoms: C_32  and  C_33
REMARK   13  A    between atoms: C_32  and  C_34
REMARK   14  A    between atoms: C_34  and  C_35
REMARK   15  A    between atoms: C_36  and  C_37
REMARK   16  A    between atoms: C_36  and  C_39
REMARK                            x       y       z     vdW  Elec       q    Type
REMARK                         _______ _______ _______ _____ _____    ______ ____
ROOT
ATOM      1  C   LIG A   1      -8.053   3.049 125.330  0.00  0.00    +0.012 C 
ATOM      2  C   LIG A   1      -7.283   1.838 125.877  0.00  0.00    +0.033 C 
ATOM      3  C   LIG A   1      -8.349   0.954 126.525  0.00  0.00    +0.181 C 
ATOM      4  C   LIG A   1      -8.696   1.397 127.946  0.00  0.00    +0.064 C 
ATOM      5  C   LIG A   1      -7.547   1.791 128.924  0.00  0.00    +0.083 C 
ATOM      6  C   LIG A   1      -7.745   0.995 130.193  0.00  0.00    +0.049 C 
ATOM      7  C   LIG A   1      -8.864   1.579 130.878  0.00  0.00    +0.339 C 
ATOM      8  O   LIG A   1      -9.023   2.861 130.456  0.00  0.00    -0.420 OA
ATOM      9  C   LIG A   1      -7.890   3.141 129.646  0.00  0.00    +0.381 C 
ATOM     10  O   LIG A   1      -9.601   1.004 131.711  0.00  0.00    -0.245 OA
ATOM     11  C   LIG A   1      -6.913   0.140 130.760  0.00  0.00    +0.015 C 
ATOM     12  C   LIG A   1      -5.565  -0.181 130.198  0.00  0.00    +0.142 C 
ATOM     13  C   LIG A   1      -5.189   0.599 128.908  0.00  0.00    +0.041 C 
ATOM     14  C   LIG A   1      -6.112   1.735 128.342  0.00  0.00    +0.016 C 
ATOM     15  C   LIG A   1      -5.967   2.075 126.767  0.00  0.00    -0.019 C 
ATOM     16  C   LIG A   1      -4.822   1.226 126.095  0.00  0.00    +0.012 C 
ENDROOT
BRANCH  12  17
ATOM     17  O   LIG A   1      -4.616   0.041 131.252  0.00  0.00    -0.376 OA
ATOM     18  C   LIG A   1      -4.177   1.393 131.366  0.00  0.00    +0.194 C 
ENDBRANCH  12  17
BRANCH   3  19
ATOM     19  O   LIG A   1      -7.935  -0.408 126.496  0.00  0.00    -0.461 OA
BRANCH  19  20
ATOM     20  C   LIG A   1      -8.833  -1.356 126.096  0.00  0.00    +0.307 C 
ATOM     21  O   LIG A   1      -9.675  -1.208 125.230  0.00  0.00    -0.251 OA
BRANCH  20  22
ATOM     22  C   LIG A   1      -8.560  -2.672 126.797  0.00  0.00    +0.120 C 
BRANCH  22  23
ATOM     23  C   LIG A   1      -7.593  -2.576 127.976  0.00  0.00    +0.008 C 
ATOM     24  C   LIG A   1      -8.199  -2.999 129.298  0.00  0.00    +0.004 C 
ENDBRANCH  22  23
ENDBRANCH  20  22
ENDBRANCH  19  20
ENDBRANCH   3  19
BRANCH   9  25
ATOM     25  O   LIG A   1      -6.790   3.569 130.475  0.00  0.00    -0.424 OA
BRANCH  25  26
ATOM     26  C   LIG A   1      -6.691   4.918 130.623  0.00  0.00    +0.307 C 
ATOM     27  C   LIG A   1      -5.833   5.238 131.813  0.00  0.00    +0.136 C 
ATOM     28  O   LIG A   1      -7.261   5.743 129.960  0.00  0.00    -0.251 OA
ENDBRANCH  25  26
ENDBRANCH   9  25
BRANCH  15  29
ATOM     29  C   LIG A   1      -5.419   3.553 126.637  0.00  0.00    +0.034 C 
BRANCH  29  30
ATOM     30  C   LIG A   1      -4.632   4.093 127.798  0.00  0.00    -0.023 C 
ATOM     31  C   LIG A   1      -3.324   4.359 127.956  0.00  0.00    -0.055 C 
ATOM     32  C   LIG A   1      -2.854   4.984 129.254  0.00  0.00    +0.043 C 
BRANCH  31  33
ATOM     33  C   LIG A   1      -2.294   4.083 126.984  0.00  0.00    -0.005 C 
ATOM     34  C   LIG A   1      -1.674   2.906 126.848  0.00  0.00    +0.008 C 
ENDBRANCH  31  33
ENDBRANCH  29  30
ENDBRANCH  15  29
TORSDOF 10
ENDMDL
