MODEL 1
REMARK VINA RESULT:      -7.0      0.000      0.000
REMARK  Name = NuBBE_1992
REMARK  12 active torsions:
REMARK  status: ('A' for Active; 'I' for Inactive)
REMARK    1  A    between atoms: C_1  and  O_2
REMARK    2  A    between atoms: O_2  and  C_3
REMARK    3  A    between atoms: C_7  and  C_9
REMARK    4  A    between atoms: C_11  and  O_12
REMARK    5  A    between atoms: O_12  and  C_13
REMARK    6  A    between atoms: C_14  and  O_15
REMARK    7  A    between atoms: O_15  and  C_16
REMARK    8  A    between atoms: C_17  and  O_18
REMARK    9  A    between atoms: O_18  and  C_19
REMARK   10  A    between atoms: C_21  and  C_23
REMARK   11  A    between atoms: C_26  and  C_27
REMARK   12  A    between atoms: C_27  and  C_28
REMARK                            x       y       z     vdW  Elec       q    Type
REMARK                         _______ _______ _______ _____ _____    ______ ____
ROOT
ATOM      1  C   LIG A   1     -10.747   7.616 128.182  0.00  0.00    +0.166 A 
ATOM      2  C   LIG A   1     -10.363   6.471 128.898  0.00  0.00    +0.204 A 
ATOM      3  C   LIG A   1     -10.896   6.202 130.162  0.00  0.00    +0.167 A 
ATOM      4  O   LIG A   1     -10.555   5.111 130.922  0.00  0.00    -0.477 OA
ATOM      5  C   LIG A   1      -9.657   4.175 130.270  0.00  0.00    +0.244 C 
ATOM      6  C   LIG A   1      -8.696   4.934 129.327  0.00  0.00    +0.216 C 
ATOM      7  C   LIG A   1      -7.708   4.087 128.537  0.00  0.00    +0.056 C 
ATOM      8  O   LIG A   1      -9.459   5.623 128.320  0.00  0.00    -0.478 OA
ATOM      9  C   LIG A   1     -11.813   7.089 130.727  0.00  0.00    +0.053 A 
ATOM     10  C   LIG A   1     -12.169   8.265 130.050  0.00  0.00    -0.036 A 
ATOM     11  C   LIG A   1     -11.640   8.504 128.776  0.00  0.00    +0.053 A 
ENDROOT
BRANCH   5  12
ATOM     12  C   LIG A   1      -8.974   3.392 131.393  0.00  0.00    +0.003 A 
ATOM     13  C   LIG A   1      -8.451   4.052 132.509  0.00  0.00    +0.057 A 
ATOM     14  C   LIG A   1      -7.779   3.341 133.516  0.00  0.00    +0.166 A 
ATOM     15  C   LIG A   1      -7.495   1.956 133.375  0.00  0.00    +0.203 A 
ATOM     16  C   LIG A   1      -8.057   1.253 132.282  0.00  0.00    +0.166 A 
ATOM     17  C   LIG A   1      -8.797   1.992 131.322  0.00  0.00    +0.057 A 
BRANCH  14  18
ATOM     18  O   LIG A   1      -7.364   3.949 134.686  0.00  0.00    -0.491 OA
ATOM     19  C   LIG A   1      -7.246   5.370 134.629  0.00  0.00    +0.277 C 
ENDBRANCH  14  18
BRANCH  15  20
ATOM     20  O   LIG A   1      -6.625   1.501 134.351  0.00  0.00    -0.488 OA
ATOM     21  C   LIG A   1      -5.306   1.318 133.921  0.00  0.00    +0.277 C 
ENDBRANCH  15  20
BRANCH  16  22
ATOM     22  O   LIG A   1      -7.823  -0.055 131.895  0.00  0.00    -0.491 OA
ATOM     23  C   LIG A   1      -8.090  -0.467 130.546  0.00  0.00    +0.277 C 
ENDBRANCH  16  22
ENDBRANCH   5  12
BRANCH   1  25
ATOM     24  C   LIG A   1     -11.121   7.794 125.845  0.00  0.00    +0.277 C 
ATOM     25  O   LIG A   1     -10.202   7.808 126.936  0.00  0.00    -0.491 OA
ENDBRANCH   1  25
BRANCH  10  26
ATOM     26  C   LIG A   1     -13.150   9.251 130.636  0.00  0.00    +0.061 C 
BRANCH  26  27
ATOM     27  C   LIG A   1     -13.371  10.547 129.867  0.00  0.00    -0.030 C 
ATOM     28  C   LIG A   1     -13.635  11.750 130.295  0.00  0.00    +0.004 C 
ENDBRANCH  26  27
ENDBRANCH  10  26
TORSDOF 7
ENDMDL
MODEL 2
REMARK VINA RESULT:      -6.8      5.447      7.848
REMARK  Name = NuBBE_1992
REMARK  12 active torsions:
REMARK  status: ('A' for Active; 'I' for Inactive)
REMARK    1  A    between atoms: C_1  and  O_2
REMARK    2  A    between atoms: O_2  and  C_3
REMARK    3  A    between atoms: C_7  and  C_9
REMARK    4  A    between atoms: C_11  and  O_12
REMARK    5  A    between atoms: O_12  and  C_13
REMARK    6  A    between atoms: C_14  and  O_15
REMARK    7  A    between atoms: O_15  and  C_16
REMARK    8  A    between atoms: C_17  and  O_18
REMARK    9  A    between atoms: O_18  and  C_19
REMARK   10  A    between atoms: C_21  and  C_23
REMARK   11  A    between atoms: C_26  and  C_27
REMARK   12  A    between atoms: C_27  and  C_28
REMARK                            x       y       z     vdW  Elec       q    Type
REMARK                         _______ _______ _______ _____ _____    ______ ____
ROOT
ATOM      1  C   LIG A   1      -8.574   2.628 123.276  0.00  0.00    +0.166 A 
ATOM      2  C   LIG A   1      -7.917   3.132 124.410  0.00  0.00    +0.204 A 
ATOM      3  C   LIG A   1      -6.697   3.804 124.293  0.00  0.00    +0.167 A 
ATOM      4  O   LIG A   1      -5.995   4.310 125.359  0.00  0.00    -0.477 OA
ATOM      5  C   LIG A   1      -6.666   4.188 126.640  0.00  0.00    +0.244 C 
ATOM      6  C   LIG A   1      -7.517   2.897 126.670  0.00  0.00    +0.216 C 
ATOM      7  C   LIG A   1      -8.317   2.640 127.940  0.00  0.00    +0.056 C 
ATOM      8  O   LIG A   1      -8.509   2.954 125.630  0.00  0.00    -0.478 OA
ATOM      9  C   LIG A   1      -6.116   3.965 123.035  0.00  0.00    +0.053 A 
ATOM     10  C   LIG A   1      -6.730   3.423 121.897  0.00  0.00    -0.036 A 
ATOM     11  C   LIG A   1      -7.962   2.773 122.033  0.00  0.00    +0.053 A 
ENDROOT
BRANCH   5  12
ATOM     12  C   LIG A   1      -5.568   4.261 127.703  0.00  0.00    +0.003 A 
ATOM     13  C   LIG A   1      -5.828   4.814 128.961  0.00  0.00    +0.057 A 
ATOM     14  C   LIG A   1      -4.810   4.929 129.921  0.00  0.00    +0.166 A 
ATOM     15  C   LIG A   1      -3.461   4.611 129.605  0.00  0.00    +0.203 A 
ATOM     16  C   LIG A   1      -3.180   4.001 128.358  0.00  0.00    +0.166 A 
ATOM     17  C   LIG A   1      -4.249   3.829 127.441  0.00  0.00    +0.057 A 
BRANCH  14  18
ATOM     18  O   LIG A   1      -5.067   5.354 131.210  0.00  0.00    -0.491 OA
ATOM     19  C   LIG A   1      -6.094   6.337 131.338  0.00  0.00    +0.277 C 
ENDBRANCH  14  18
BRANCH  15  20
ATOM     20  O   LIG A   1      -2.584   5.016 130.596  0.00  0.00    -0.488 OA
ATOM     21  C   LIG A   1      -1.977   6.256 130.371  0.00  0.00    +0.277 C 
ENDBRANCH  15  20
BRANCH  16  22
ATOM     22  O   LIG A   1      -1.943   3.714 127.807  0.00  0.00    -0.491 OA
ATOM     23  C   LIG A   1      -1.849   3.221 126.462  0.00  0.00    +0.277 C 
ENDBRANCH  16  22
ENDBRANCH   5  12
BRANCH   1  25
ATOM     24  C   LIG A   1      -9.847   0.641 123.027  0.00  0.00    +0.277 C 
ATOM     25  O   LIG A   1      -9.781   1.998 123.460  0.00  0.00    -0.491 OA
ENDBRANCH   1  25
BRANCH  10  26
ATOM     26  C   LIG A   1      -6.124   3.571 120.523  0.00  0.00    +0.061 C 
BRANCH  26  27
ATOM     27  C   LIG A   1      -5.435   4.893 120.210  0.00  0.00    -0.030 C 
ATOM     28  C   LIG A   1      -5.513   5.659 119.158  0.00  0.00    +0.004 C 
ENDBRANCH  26  27
ENDBRANCH  10  26
TORSDOF 7
ENDMDL
MODEL 3
REMARK VINA RESULT:      -6.8      2.071      9.049
REMARK  Name = NuBBE_1992
REMARK  12 active torsions:
REMARK  status: ('A' for Active; 'I' for Inactive)
REMARK    1  A    between atoms: C_1  and  O_2
REMARK    2  A    between atoms: O_2  and  C_3
REMARK    3  A    between atoms: C_7  and  C_9
REMARK    4  A    between atoms: C_11  and  O_12
REMARK    5  A    between atoms: O_12  and  C_13
REMARK    6  A    between atoms: C_14  and  O_15
REMARK    7  A    between atoms: O_15  and  C_16
REMARK    8  A    between atoms: C_17  and  O_18
REMARK    9  A    between atoms: O_18  and  C_19
REMARK   10  A    between atoms: C_21  and  C_23
REMARK   11  A    between atoms: C_26  and  C_27
REMARK   12  A    between atoms: C_27  and  C_28
REMARK                            x       y       z     vdW  Elec       q    Type
REMARK                         _______ _______ _______ _____ _____    ______ ____
ROOT
ATOM      1  C   LIG A   1      -6.818  -1.500 132.748  0.00  0.00    +0.166 A 
ATOM      2  C   LIG A   1      -7.514  -0.330 132.408  0.00  0.00    +0.204 A 
ATOM      3  C   LIG A   1      -8.163  -0.214 131.175  0.00  0.00    +0.167 A 
ATOM      4  O   LIG A   1      -8.850   0.905 130.772  0.00  0.00    -0.477 OA
ATOM      5  C   LIG A   1      -8.948   1.949 131.775  0.00  0.00    +0.244 C 
ATOM      6  C   LIG A   1      -7.677   1.958 132.655  0.00  0.00    +0.216 C 
ATOM      7  C   LIG A   1      -7.639   2.979 133.784  0.00  0.00    +0.056 C 
ATOM      8  O   LIG A   1      -7.547   0.688 133.319  0.00  0.00    -0.478 OA
ATOM      9  C   LIG A   1      -8.107  -1.269 130.264  0.00  0.00    +0.053 A 
ATOM     10  C   LIG A   1      -7.372  -2.425 130.564  0.00  0.00    -0.036 A 
ATOM     11  C   LIG A   1      -6.748  -2.530 131.813  0.00  0.00    +0.053 A 
ENDROOT
BRANCH   5  12
ATOM     12  C   LIG A   1      -9.211   3.248 131.009  0.00  0.00    +0.003 A 
ATOM     13  C   LIG A   1      -8.505   3.543 129.839  0.00  0.00    +0.057 A 
ATOM     14  C   LIG A   1      -8.708   4.756 129.162  0.00  0.00    +0.166 A 
ATOM     15  C   LIG A   1      -9.535   5.775 129.709  0.00  0.00    +0.203 A 
ATOM     16  C   LIG A   1     -10.301   5.483 130.864  0.00  0.00    +0.166 A 
ATOM     17  C   LIG A   1     -10.128   4.215 131.479  0.00  0.00    +0.057 A 
BRANCH  14  18
ATOM     18  O   LIG A   1      -8.118   5.018 127.941  0.00  0.00    -0.491 OA
ATOM     19  C   LIG A   1      -7.757   3.869 127.175  0.00  0.00    +0.277 C 
ENDBRANCH  14  18
BRANCH  15  20
ATOM     20  O   LIG A   1      -9.413   6.969 129.021  0.00  0.00    -0.488 OA
ATOM     21  C   LIG A   1     -10.480   7.262 128.164  0.00  0.00    +0.277 C 
ENDBRANCH  15  20
BRANCH  16  22
ATOM     22  O   LIG A   1     -11.074   6.348 131.618  0.00  0.00    -0.491 OA
ATOM     23  C   LIG A   1     -12.337   6.810 131.116  0.00  0.00    +0.277 C 
ENDBRANCH  16  22
ENDBRANCH   5  12
BRANCH   1  25
ATOM     24  C   LIG A   1      -6.238  -2.831 134.626  0.00  0.00    +0.277 C 
ATOM     25  O   LIG A   1      -6.222  -1.557 133.985  0.00  0.00    -0.491 OA
ENDBRANCH   1  25
BRANCH  10  26
ATOM     26  C   LIG A   1      -7.283  -3.581 129.597  0.00  0.00    +0.061 C 
BRANCH  26  27
ATOM     27  C   LIG A   1      -8.088  -3.468 128.309  0.00  0.00    -0.030 C 
ATOM     28  C   LIG A   1      -9.231  -4.000 127.977  0.00  0.00    +0.004 C 
ENDBRANCH  26  27
ENDBRANCH  10  26
TORSDOF 7
ENDMDL
MODEL 4
REMARK VINA RESULT:      -6.7      2.160      8.720
REMARK  Name = NuBBE_1992
REMARK  12 active torsions:
REMARK  status: ('A' for Active; 'I' for Inactive)
REMARK    1  A    between atoms: C_1  and  O_2
REMARK    2  A    between atoms: O_2  and  C_3
REMARK    3  A    between atoms: C_7  and  C_9
REMARK    4  A    between atoms: C_11  and  O_12
REMARK    5  A    between atoms: O_12  and  C_13
REMARK    6  A    between atoms: C_14  and  O_15
REMARK    7  A    between atoms: O_15  and  C_16
REMARK    8  A    between atoms: C_17  and  O_18
REMARK    9  A    between atoms: O_18  and  C_19
REMARK   10  A    between atoms: C_21  and  C_23
REMARK   11  A    between atoms: C_26  and  C_27
REMARK   12  A    between atoms: C_27  and  C_28
REMARK                            x       y       z     vdW  Elec       q    Type
REMARK                         _______ _______ _______ _____ _____    ______ ____
ROOT
ATOM      1  C   LIG A   1      -7.273  -1.314 132.831  0.00  0.00    +0.166 A 
ATOM      2  C   LIG A   1      -7.830  -0.095 132.414  0.00  0.00    +0.204 A 
ATOM      3  C   LIG A   1      -8.302   0.069 131.109  0.00  0.00    +0.167 A 
ATOM      4  O   LIG A   1      -8.845   1.237 130.631  0.00  0.00    -0.477 OA
ATOM      5  C   LIG A   1      -8.994   2.286 131.622  0.00  0.00    +0.244 C 
ATOM      6  C   LIG A   1      -7.851   2.200 132.659  0.00  0.00    +0.216 C 
ATOM      7  C   LIG A   1      -7.884   3.216 133.793  0.00  0.00    +0.056 C 
ATOM      8  O   LIG A   1      -7.904   0.924 133.323  0.00  0.00    -0.478 OA
ATOM      9  C   LIG A   1      -8.207  -0.987 130.203  0.00  0.00    +0.053 A 
ATOM     10  C   LIG A   1      -7.606  -2.196 130.585  0.00  0.00    -0.036 A 
ATOM     11  C   LIG A   1      -7.160  -2.346 131.903  0.00  0.00    +0.053 A 
ENDROOT
BRANCH   5  12
ATOM     12  C   LIG A   1      -9.057   3.601 130.841  0.00  0.00    +0.003 A 
ATOM     13  C   LIG A   1      -9.901   4.637 131.253  0.00  0.00    +0.057 A 
ATOM     14  C   LIG A   1      -9.998   5.824 130.510  0.00  0.00    +0.166 A 
ATOM     15  C   LIG A   1      -9.347   5.962 129.254  0.00  0.00    +0.203 A 
ATOM     16  C   LIG A   1      -8.446   4.952 128.839  0.00  0.00    +0.166 A 
ATOM     17  C   LIG A   1      -8.314   3.798 129.655  0.00  0.00    +0.057 A 
BRANCH  14  18
ATOM     18  O   LIG A   1     -10.727   6.908 130.960  0.00  0.00    -0.491 OA
ATOM     19  C   LIG A   1     -11.910   6.591 131.691  0.00  0.00    +0.277 C 
ENDBRANCH  14  18
BRANCH  15  20
ATOM     20  O   LIG A   1      -9.759   7.097 128.577  0.00  0.00    -0.488 OA
ATOM     21  C   LIG A   1     -10.666   6.863 127.538  0.00  0.00    +0.277 C 
ENDBRANCH  15  20
BRANCH  16  22
ATOM     22  O   LIG A   1      -7.800   4.830 127.621  0.00  0.00    -0.491 OA
ATOM     23  C   LIG A   1      -6.761   3.856 127.450  0.00  0.00    +0.277 C 
ENDBRANCH  16  22
ENDBRANCH   5  12
BRANCH   1  25
ATOM     24  C   LIG A   1      -5.446  -1.582 134.322  0.00  0.00    +0.277 C 
ATOM     25  O   LIG A   1      -6.850  -1.415 134.134  0.00  0.00    -0.491 OA
ENDBRANCH   1  25
BRANCH  10  26
ATOM     26  C   LIG A   1      -7.479  -3.355 129.628  0.00  0.00    +0.061 C 
BRANCH  26  27
ATOM     27  C   LIG A   1      -8.076  -3.173 128.239  0.00  0.00    -0.030 C 
ATOM     28  C   LIG A   1      -8.951  -3.893 127.593  0.00  0.00    +0.004 C 
ENDBRANCH  26  27
ENDBRANCH  10  26
TORSDOF 7
ENDMDL
MODEL 5
REMARK VINA RESULT:      -6.7      5.700      9.353
REMARK  Name = NuBBE_1992
REMARK  12 active torsions:
REMARK  status: ('A' for Active; 'I' for Inactive)
REMARK    1  A    between atoms: C_1  and  O_2
REMARK    2  A    between atoms: O_2  and  C_3
REMARK    3  A    between atoms: C_7  and  C_9
REMARK    4  A    between atoms: C_11  and  O_12
REMARK    5  A    between atoms: O_12  and  C_13
REMARK    6  A    between atoms: C_14  and  O_15
REMARK    7  A    between atoms: O_15  and  C_16
REMARK    8  A    between atoms: C_17  and  O_18
REMARK    9  A    between atoms: O_18  and  C_19
REMARK   10  A    between atoms: C_21  and  C_23
REMARK   11  A    between atoms: C_26  and  C_27
REMARK   12  A    between atoms: C_27  and  C_28
REMARK                            x       y       z     vdW  Elec       q    Type
REMARK                         _______ _______ _______ _____ _____    ______ ____
ROOT
ATOM      1  C   LIG A   1      -8.547  -0.268 124.213  0.00  0.00    +0.166 A 
ATOM      2  C   LIG A   1      -7.664   0.644 124.812  0.00  0.00    +0.204 A 
ATOM      3  C   LIG A   1      -6.368   0.258 125.170  0.00  0.00    +0.167 A 
ATOM      4  O   LIG A   1      -5.458   1.093 125.770  0.00  0.00    -0.477 OA
ATOM      5  C   LIG A   1      -5.904   2.466 125.923  0.00  0.00    +0.244 C 
ATOM      6  C   LIG A   1      -7.431   2.504 126.157  0.00  0.00    +0.216 C 
ATOM      7  C   LIG A   1      -8.064   3.881 126.302  0.00  0.00    +0.056 C 
ATOM      8  O   LIG A   1      -8.103   1.920 125.026  0.00  0.00    -0.478 OA
ATOM      9  C   LIG A   1      -5.951  -1.053 124.943  0.00  0.00    +0.053 A 
ATOM     10  C   LIG A   1      -6.836  -1.993 124.394  0.00  0.00    -0.036 A 
ATOM     11  C   LIG A   1      -8.121  -1.580 124.022  0.00  0.00    +0.053 A 
ENDROOT
BRANCH   5  12
ATOM     12  C   LIG A   1      -5.063   3.062 127.054  0.00  0.00    +0.003 A 
ATOM     13  C   LIG A   1      -4.887   2.367 128.255  0.00  0.00    +0.057 A 
ATOM     14  C   LIG A   1      -4.158   2.933 129.313  0.00  0.00    +0.166 A 
ATOM     15  C   LIG A   1      -3.688   4.273 129.250  0.00  0.00    +0.203 A 
ATOM     16  C   LIG A   1      -3.807   4.979 128.028  0.00  0.00    +0.166 A 
ATOM     17  C   LIG A   1      -4.483   4.346 126.952  0.00  0.00    +0.057 A 
BRANCH  14  18
ATOM     18  O   LIG A   1      -3.864   2.220 130.460  0.00  0.00    -0.491 OA
ATOM     19  C   LIG A   1      -4.476   0.935 130.557  0.00  0.00    +0.277 C 
ENDBRANCH  14  18
BRANCH  15  20
ATOM     20  O   LIG A   1      -3.212   4.716 130.472  0.00  0.00    -0.488 OA
ATOM     21  C   LIG A   1      -4.084   5.556 131.171  0.00  0.00    +0.277 C 
ENDBRANCH  15  20
BRANCH  16  22
ATOM     22  O   LIG A   1      -3.523   6.311 127.779  0.00  0.00    -0.491 OA
ATOM     23  C   LIG A   1      -2.244   6.854 128.135  0.00  0.00    +0.277 C 
ENDBRANCH  16  22
ENDBRANCH   5  12
BRANCH   1  25
ATOM     24  C   LIG A   1     -10.043   0.320 122.467  0.00  0.00    +0.277 C 
ATOM     25  O   LIG A   1      -9.797   0.182 123.865  0.00  0.00    -0.491 OA
ENDBRANCH   1  25
BRANCH  10  26
ATOM     26  C   LIG A   1      -6.420  -3.421 124.143  0.00  0.00    +0.061 C 
BRANCH  26  27
ATOM     27  C   LIG A   1      -4.934  -3.681 123.933  0.00  0.00    -0.030 C 
ATOM     28  C   LIG A   1      -4.313  -4.750 123.517  0.00  0.00    +0.004 C 
ENDBRANCH  26  27
ENDBRANCH  10  26
TORSDOF 7
ENDMDL
MODEL 6
REMARK VINA RESULT:      -6.6      5.701      9.205
REMARK  Name = NuBBE_1992
REMARK  12 active torsions:
REMARK  status: ('A' for Active; 'I' for Inactive)
REMARK    1  A    between atoms: C_1  and  O_2
REMARK    2  A    between atoms: O_2  and  C_3
REMARK    3  A    between atoms: C_7  and  C_9
REMARK    4  A    between atoms: C_11  and  O_12
REMARK    5  A    between atoms: O_12  and  C_13
REMARK    6  A    between atoms: C_14  and  O_15
REMARK    7  A    between atoms: O_15  and  C_16
REMARK    8  A    between atoms: C_17  and  O_18
REMARK    9  A    between atoms: O_18  and  C_19
REMARK   10  A    between atoms: C_21  and  C_23
REMARK   11  A    between atoms: C_26  and  C_27
REMARK   12  A    between atoms: C_27  and  C_28
REMARK                            x       y       z     vdW  Elec       q    Type
REMARK                         _______ _______ _______ _____ _____    ______ ____
ROOT
ATOM      1  C   LIG A   1      -8.005   0.109 123.817  0.00  0.00    +0.166 A 
ATOM      2  C   LIG A   1      -7.185   0.979 124.553  0.00  0.00    +0.204 A 
ATOM      3  C   LIG A   1      -6.027   0.512 125.182  0.00  0.00    +0.167 A 
ATOM      4  O   LIG A   1      -5.188   1.303 125.928  0.00  0.00    -0.477 OA
ATOM      5  C   LIG A   1      -5.533   2.712 125.939  0.00  0.00    +0.244 C 
ATOM      6  C   LIG A   1      -7.067   2.881 125.853  0.00  0.00    +0.216 C 
ATOM      7  C   LIG A   1      -7.593   4.310 125.817  0.00  0.00    +0.056 C 
ATOM      8  O   LIG A   1      -7.546   2.295 124.629  0.00  0.00    -0.478 OA
ATOM      9  C   LIG A   1      -5.688  -0.838 125.091  0.00  0.00    +0.053 A 
ATOM     10  C   LIG A   1      -6.523  -1.733 124.405  0.00  0.00    -0.036 A 
ATOM     11  C   LIG A   1      -7.666  -1.240 123.763  0.00  0.00    +0.053 A 
ENDROOT
BRANCH   5  12
ATOM     12  C   LIG A   1      -4.889   3.297 127.197  0.00  0.00    +0.003 A 
ATOM     13  C   LIG A   1      -3.840   4.217 127.101  0.00  0.00    +0.057 A 
ATOM     14  C   LIG A   1      -3.214   4.717 128.254  0.00  0.00    +0.166 A 
ATOM     15  C   LIG A   1      -3.534   4.212 129.544  0.00  0.00    +0.203 A 
ATOM     16  C   LIG A   1      -4.627   3.321 129.674  0.00  0.00    +0.166 A 
ATOM     17  C   LIG A   1      -5.287   2.895 128.492  0.00  0.00    +0.057 A 
BRANCH  14  18
ATOM     18  O   LIG A   1      -2.262   5.717 128.192  0.00  0.00    -0.491 OA
ATOM     19  C   LIG A   1      -2.774   7.045 128.098  0.00  0.00    +0.277 C 
ENDBRANCH  14  18
BRANCH  15  20
ATOM     20  O   LIG A   1      -2.647   4.654 130.510  0.00  0.00    -0.488 OA
ATOM     21  C   LIG A   1      -3.218   5.453 131.507  0.00  0.00    +0.277 C 
ENDBRANCH  15  20
BRANCH  16  22
ATOM     22  O   LIG A   1      -5.036   2.630 130.801  0.00  0.00    -0.491 OA
ATOM     23  C   LIG A   1      -4.256   1.532 131.297  0.00  0.00    +0.277 C 
ENDBRANCH  16  22
ENDBRANCH   5  12
BRANCH   1  25
ATOM     24  C   LIG A   1      -9.921  -0.283 122.472  0.00  0.00    +0.277 C 
ATOM     25  O   LIG A   1      -9.115   0.638 123.204  0.00  0.00    -0.491 OA
ENDBRANCH   1  25
BRANCH  10  26
ATOM     26  C   LIG A   1      -6.192  -3.200 124.294  0.00  0.00    +0.061 C 
BRANCH  26  27
ATOM     27  C   LIG A   1      -4.882  -3.563 123.606  0.00  0.00    -0.030 C 
ATOM     28  C   LIG A   1      -4.212  -4.682 123.598  0.00  0.00    +0.004 C 
ENDBRANCH  26  27
ENDBRANCH  10  26
TORSDOF 7
ENDMDL
MODEL 7
REMARK VINA RESULT:      -6.6      3.244      6.135
REMARK  Name = NuBBE_1992
REMARK  12 active torsions:
REMARK  status: ('A' for Active; 'I' for Inactive)
REMARK    1  A    between atoms: C_1  and  O_2
REMARK    2  A    between atoms: O_2  and  C_3
REMARK    3  A    between atoms: C_7  and  C_9
REMARK    4  A    between atoms: C_11  and  O_12
REMARK    5  A    between atoms: O_12  and  C_13
REMARK    6  A    between atoms: C_14  and  O_15
REMARK    7  A    between atoms: O_15  and  C_16
REMARK    8  A    between atoms: C_17  and  O_18
REMARK    9  A    between atoms: O_18  and  C_19
REMARK   10  A    between atoms: C_21  and  C_23
REMARK   11  A    between atoms: C_26  and  C_27
REMARK   12  A    between atoms: C_27  and  C_28
REMARK                            x       y       z     vdW  Elec       q    Type
REMARK                         _______ _______ _______ _____ _____    ______ ____
ROOT
ATOM      1  C   LIG A   1      -9.138   5.453 132.288  0.00  0.00    +0.166 A 
ATOM      2  C   LIG A   1      -8.664   5.014 131.042  0.00  0.00    +0.204 A 
ATOM      3  C   LIG A   1      -9.383   5.269 129.870  0.00  0.00    +0.167 A 
ATOM      4  O   LIG A   1      -8.985   4.857 128.622  0.00  0.00    -0.477 OA
ATOM      5  C   LIG A   1      -7.687   4.210 128.582  0.00  0.00    +0.244 C 
ATOM      6  C   LIG A   1      -7.446   3.427 129.892  0.00  0.00    +0.216 C 
ATOM      7  C   LIG A   1      -6.105   2.717 130.024  0.00  0.00    +0.056 C 
ATOM      8  O   LIG A   1      -7.476   4.337 131.006  0.00  0.00    -0.478 OA
ATOM      9  C   LIG A   1     -10.594   5.957 129.940  0.00  0.00    +0.053 A 
ATOM     10  C   LIG A   1     -11.111   6.358 131.181  0.00  0.00    -0.036 A 
ATOM     11  C   LIG A   1     -10.364   6.112 132.340  0.00  0.00    +0.053 A 
ENDROOT
BRANCH   5  12
ATOM     12  C   LIG A   1      -7.676   3.359 127.310  0.00  0.00    +0.003 A 
ATOM     13  C   LIG A   1      -7.248   3.898 126.093  0.00  0.00    +0.057 A 
ATOM     14  C   LIG A   1      -7.284   3.135 124.916  0.00  0.00    +0.166 A 
ATOM     15  C   LIG A   1      -7.875   1.842 124.894  0.00  0.00    +0.203 A 
ATOM     16  C   LIG A   1      -8.268   1.253 126.120  0.00  0.00    +0.166 A 
ATOM     17  C   LIG A   1      -8.145   2.026 127.304  0.00  0.00    +0.057 A 
BRANCH  14  18
ATOM     18  O   LIG A   1      -6.752   3.599 123.728  0.00  0.00    -0.491 OA
ATOM     19  C   LIG A   1      -5.513   4.298 123.843  0.00  0.00    +0.277 C 
ENDBRANCH  14  18
BRANCH  15  20
ATOM     20  O   LIG A   1      -8.028   1.361 123.605  0.00  0.00    -0.488 OA
ATOM     21  C   LIG A   1      -7.209   0.273 123.285  0.00  0.00    +0.277 C 
ENDBRANCH  15  20
BRANCH  16  22
ATOM     22  O   LIG A   1      -8.957   0.068 126.317  0.00  0.00    -0.491 OA
ATOM     23  C   LIG A   1      -8.241  -1.153 126.548  0.00  0.00    +0.277 C 
ENDBRANCH  16  22
ENDBRANCH   5  12
BRANCH   1  25
ATOM     24  C   LIG A   1      -8.785   4.078 134.190  0.00  0.00    +0.277 C 
ATOM     25  O   LIG A   1      -8.371   5.189 133.396  0.00  0.00    -0.491 OA
ENDBRANCH   1  25
BRANCH  10  26
ATOM     26  C   LIG A   1     -12.422   7.096 131.293  0.00  0.00    +0.061 C 
BRANCH  26  27
ATOM     27  C   LIG A   1     -12.898   7.849 130.058  0.00  0.00    -0.030 C 
ATOM     28  C   LIG A   1     -12.781   9.108 129.738  0.00  0.00    +0.004 C 
ENDBRANCH  26  27
ENDBRANCH  10  26
TORSDOF 7
ENDMDL
MODEL 8
REMARK VINA RESULT:      -6.5      7.469      8.432
REMARK  Name = NuBBE_1992
REMARK  12 active torsions:
REMARK  status: ('A' for Active; 'I' for Inactive)
REMARK    1  A    between atoms: C_1  and  O_2
REMARK    2  A    between atoms: O_2  and  C_3
REMARK    3  A    between atoms: C_7  and  C_9
REMARK    4  A    between atoms: C_11  and  O_12
REMARK    5  A    between atoms: O_12  and  C_13
REMARK    6  A    between atoms: C_14  and  O_15
REMARK    7  A    between atoms: O_15  and  C_16
REMARK    8  A    between atoms: C_17  and  O_18
REMARK    9  A    between atoms: O_18  and  C_19
REMARK   10  A    between atoms: C_21  and  C_23
REMARK   11  A    between atoms: C_26  and  C_27
REMARK   12  A    between atoms: C_27  and  C_28
REMARK                            x       y       z     vdW  Elec       q    Type
REMARK                         _______ _______ _______ _____ _____    ______ ____
ROOT
ATOM      1  C   LIG A   1      -8.417  -0.582 124.945  0.00  0.00    +0.166 A 
ATOM      2  C   LIG A   1      -8.151  -1.066 126.235  0.00  0.00    +0.204 A 
ATOM      3  C   LIG A   1      -7.229  -0.424 127.067  0.00  0.00    +0.167 A 
ATOM      4  O   LIG A   1      -6.911  -0.851 128.333  0.00  0.00    -0.477 OA
ATOM      5  C   LIG A   1      -7.686  -1.984 128.803  0.00  0.00    +0.244 C 
ATOM      6  C   LIG A   1      -8.042  -2.910 127.618  0.00  0.00    +0.216 C 
ATOM      7  C   LIG A   1      -8.889  -4.134 127.941  0.00  0.00    +0.056 C 
ATOM      8  O   LIG A   1      -8.824  -2.179 126.657  0.00  0.00    -0.478 OA
ATOM      9  C   LIG A   1      -6.554   0.706 126.606  0.00  0.00    +0.053 A 
ATOM     10  C   LIG A   1      -6.767   1.175 125.301  0.00  0.00    -0.036 A 
ATOM     11  C   LIG A   1      -7.711   0.530 124.492  0.00  0.00    +0.053 A 
ENDROOT
BRANCH   5  12
ATOM     12  C   LIG A   1      -6.853  -2.639 129.907  0.00  0.00    +0.003 A 
ATOM     13  C   LIG A   1      -7.397  -2.861 131.176  0.00  0.00    +0.057 A 
ATOM     14  C   LIG A   1      -6.620  -3.416 132.205  0.00  0.00    +0.166 A 
ATOM     15  C   LIG A   1      -5.228  -3.648 132.033  0.00  0.00    +0.203 A 
ATOM     16  C   LIG A   1      -4.664  -3.482 130.744  0.00  0.00    +0.166 A 
ATOM     17  C   LIG A   1      -5.500  -2.991 129.707  0.00  0.00    +0.057 A 
BRANCH  14  18
ATOM     18  O   LIG A   1      -7.165  -3.761 133.427  0.00  0.00    -0.491 OA
ATOM     19  C   LIG A   1      -8.151  -2.862 133.933  0.00  0.00    +0.277 C 
ENDBRANCH  14  18
BRANCH  15  20
ATOM     20  O   LIG A   1      -4.602  -3.967 133.226  0.00  0.00    -0.488 OA
ATOM     21  C   LIG A   1      -4.108  -5.274 133.297  0.00  0.00    +0.277 C 
ENDBRANCH  15  20
BRANCH  16  22
ATOM     22  O   LIG A   1      -3.330  -3.543 130.381  0.00  0.00    -0.491 OA
ATOM     23  C   LIG A   1      -2.965  -3.780 129.013  0.00  0.00    +0.277 C 
ENDBRANCH  16  22
ENDBRANCH   5  12
BRANCH   1  25
ATOM     24  C   LIG A   1      -8.835  -2.068 123.143  0.00  0.00    +0.277 C 
ATOM     25  O   LIG A   1      -9.351  -1.247 124.189  0.00  0.00    -0.491 OA
ENDBRANCH   1  25
BRANCH  10  26
ATOM     26  C   LIG A   1      -6.047   2.389 124.767  0.00  0.00    +0.061 C 
BRANCH  26  27
ATOM     27  C   LIG A   1      -6.768   3.207 123.704  0.00  0.00    -0.030 C 
ATOM     28  C   LIG A   1      -6.432   3.477 122.473  0.00  0.00    +0.004 C 
ENDBRANCH  26  27
ENDBRANCH  10  26
TORSDOF 7
ENDMDL
MODEL 9
REMARK VINA RESULT:      -6.5      5.086      8.531
REMARK  Name = NuBBE_1992
REMARK  12 active torsions:
REMARK  status: ('A' for Active; 'I' for Inactive)
REMARK    1  A    between atoms: C_1  and  O_2
REMARK    2  A    between atoms: O_2  and  C_3
REMARK    3  A    between atoms: C_7  and  C_9
REMARK    4  A    between atoms: C_11  and  O_12
REMARK    5  A    between atoms: O_12  and  C_13
REMARK    6  A    between atoms: C_14  and  O_15
REMARK    7  A    between atoms: O_15  and  C_16
REMARK    8  A    between atoms: C_17  and  O_18
REMARK    9  A    between atoms: O_18  and  C_19
REMARK   10  A    between atoms: C_21  and  C_23
REMARK   11  A    between atoms: C_26  and  C_27
REMARK   12  A    between atoms: C_27  and  C_28
REMARK                            x       y       z     vdW  Elec       q    Type
REMARK                         _______ _______ _______ _____ _____    ______ ____
ROOT
ATOM      1  C   LIG A   1      -7.230   0.624 124.145  0.00  0.00    +0.166 A 
ATOM      2  C   LIG A   1      -7.120   0.535 125.541  0.00  0.00    +0.204 A 
ATOM      3  C   LIG A   1      -6.485  -0.556 126.143  0.00  0.00    +0.167 A 
ATOM      4  O   LIG A   1      -6.354  -0.714 127.501  0.00  0.00    -0.477 OA
ATOM      5  C   LIG A   1      -6.840   0.403 128.290  0.00  0.00    +0.244 C 
ATOM      6  C   LIG A   1      -8.048   1.062 127.587  0.00  0.00    +0.216 C 
ATOM      7  C   LIG A   1      -8.656   2.278 128.274  0.00  0.00    +0.056 C 
ATOM      8  O   LIG A   1      -7.643   1.549 126.295  0.00  0.00    -0.478 OA
ATOM      9  C   LIG A   1      -5.966  -1.577 125.347  0.00  0.00    +0.053 A 
ATOM     10  C   LIG A   1      -6.113  -1.532 123.953  0.00  0.00    -0.036 A 
ATOM     11  C   LIG A   1      -6.732  -0.420 123.370  0.00  0.00    +0.053 A 
ENDROOT
BRANCH   5  12
ATOM     12  C   LIG A   1      -7.132  -0.159 129.684  0.00  0.00    +0.003 A 
ATOM     13  C   LIG A   1      -7.375   0.698 130.762  0.00  0.00    +0.057 A 
ATOM     14  C   LIG A   1      -7.593   0.187 132.052  0.00  0.00    +0.166 A 
ATOM     15  C   LIG A   1      -7.448  -1.200 132.329  0.00  0.00    +0.203 A 
ATOM     16  C   LIG A   1      -7.255  -2.093 131.247  0.00  0.00    +0.166 A 
ATOM     17  C   LIG A   1      -7.115  -1.547 129.945  0.00  0.00    +0.057 A 
BRANCH  14  18
ATOM     18  O   LIG A   1      -7.957   1.001 133.107  0.00  0.00    -0.491 OA
ATOM     19  C   LIG A   1      -7.043   2.052 133.414  0.00  0.00    +0.277 C 
ENDBRANCH  14  18
BRANCH  15  20
ATOM     20  O   LIG A   1      -7.466  -1.464 133.687  0.00  0.00    -0.488 OA
ATOM     21  C   LIG A   1      -6.213  -1.730 134.250  0.00  0.00    +0.277 C 
ENDBRANCH  15  20
BRANCH  16  22
ATOM     22  O   LIG A   1      -6.981  -3.449 131.297  0.00  0.00    -0.491 OA
ATOM     23  C   LIG A   1      -6.335  -4.096 130.191  0.00  0.00    +0.277 C 
ENDBRANCH  16  22
ENDBRANCH   5  12
BRANCH   1  25
ATOM     24  C   LIG A   1      -7.030   2.566 122.795  0.00  0.00    +0.277 C 
ATOM     25  O   LIG A   1      -7.845   1.734 123.619  0.00  0.00    -0.491 OA
ENDBRANCH   1  25
BRANCH  10  26
ATOM     26  C   LIG A   1      -5.572  -2.624 123.063  0.00  0.00    +0.061 C 
BRANCH  26  27
ATOM     27  C   LIG A   1      -4.524  -3.551 123.666  0.00  0.00    -0.030 C 
ATOM     28  C   LIG A   1      -4.391  -4.845 123.583  0.00  0.00    +0.004 C 
ENDBRANCH  26  27
ENDBRANCH  10  26
TORSDOF 7
ENDMDL
