MODEL 1
REMARK VINA RESULT:      -8.3      0.000      0.000
REMARK  Name = NuBBE_63
REMARK  16 active torsions:
REMARK  status: ('A' for Active; 'I' for Inactive)
REMARK    1  A    between atoms: O_1  and  C_2
REMARK    2  A    between atoms: C_5  and  C_6
REMARK    3  A    between atoms: C_10  and  O_49
REMARK    4  A    between atoms: C_12  and  O_48
REMARK    5  A    between atoms: C_13  and  C_14
REMARK    6  A    between atoms: C_17  and  C_25
REMARK    7  A    between atoms: C_19  and  O_24
REMARK    8  A    between atoms: C_21  and  O_23
REMARK    9  A    between atoms: C_25  and  O_26
REMARK   10  A    between atoms: O_26  and  C_27
REMARK   11  A    between atoms: C_30  and  C_38
REMARK   12  A    between atoms: C_32  and  O_37
REMARK   13  A    between atoms: C_34  and  O_36
REMARK   14  A    between atoms: C_38  and  O_39
REMARK   15  A    between atoms: C_40  and  O_42
REMARK   16  A    between atoms: C_43  and  O_45
REMARK                            x       y       z     vdW  Elec       q    Type
REMARK                         _______ _______ _______ _____ _____    ______ ____
ROOT
ATOM      1  C   LIG A   1      -7.662   3.130 127.811  0.00  0.00    +0.187 C 
ATOM      2  O   LIG A   1      -7.859   1.854 127.150  0.00  0.00    -0.361 OA
ATOM      3  C   LIG A   1      -7.880   1.883 125.706  0.00  0.00    +0.176 C 
ATOM      4  C   LIG A   1      -7.826   3.288 125.079  0.00  0.00    +0.176 C 
ATOM      5  C   LIG A   1      -6.771   4.195 125.728  0.00  0.00    +0.177 C 
ATOM      6  C   LIG A   1      -6.436   3.809 127.182  0.00  0.00    +0.179 C 
ENDROOT
BRANCH   1  14
ATOM      7  C   LIG A   1     -10.297   4.891 130.567  0.00  0.00    +0.211 C 
ATOM      8  C   LIG A   1      -9.948   5.056 132.039  0.00  0.00    +0.129 C 
ATOM      9  C   LIG A   1      -9.298   3.799 132.529  0.00  0.00    +0.174 C 
ATOM     10  C   LIG A   1      -8.376   3.137 131.584  0.00  0.00    +0.101 A 
ATOM     11  C   LIG A   1      -7.478   2.170 132.045  0.00  0.00    +0.134 A 
ATOM     12  C   LIG A   1      -6.569   1.594 131.169  0.00  0.00    +0.092 A 
ATOM     13  C   LIG A   1      -6.606   1.932 129.819  0.00  0.00    +0.130 A 
ATOM     14  C   LIG A   1      -7.531   2.862 129.308  0.00  0.00    +0.068 A 
ATOM     15  C   LIG A   1      -8.384   3.512 130.232  0.00  0.00    +0.145 A 
ATOM     16  O   LIG A   1      -9.155   4.550 129.761  0.00  0.00    -0.482 OA
ATOM     17  O   LIG A   1      -9.434   3.374 133.659  0.00  0.00    -0.292 OA
BRANCH   7  21
ATOM     18  C   LIG A   1     -12.004   8.603 129.125  0.00  0.00    +0.117 A 
ATOM     19  C   LIG A   1     -10.816   8.140 128.572  0.00  0.00    +0.046 A 
ATOM     20  C   LIG A   1     -10.276   6.927 129.013  0.00  0.00    +0.011 A 
ATOM     21  C   LIG A   1     -10.910   6.175 130.021  0.00  0.00    -0.007 A 
ATOM     22  C   LIG A   1     -12.120   6.656 130.547  0.00  0.00    +0.011 A 
ATOM     23  C   LIG A   1     -12.665   7.864 130.097  0.00  0.00    +0.046 A 
BRANCH  18  24
ATOM     24  O   LIG A   1     -12.559   9.788 128.742  0.00  0.00    -0.507 OA
ATOM     25  H   LIG A   1     -13.434   9.614 128.358  0.00  0.00    +0.292 HD
ENDBRANCH  18  24
ENDBRANCH   7  21
BRANCH  13  26
ATOM     26  O   LIG A   1      -5.696   1.291 129.024  0.00  0.00    -0.506 OA
ATOM     27  H   LIG A   1      -4.812   1.416 129.426  0.00  0.00    +0.292 HD
ENDBRANCH  13  26
BRANCH  11  28
ATOM     28  O   LIG A   1      -7.417   1.760 133.350  0.00  0.00    -0.506 OA
ATOM     29  H   LIG A   1      -7.344   0.779 133.364  0.00  0.00    +0.292 HD
ENDBRANCH  11  28
ENDBRANCH   1  14
BRANCH   5  30
ATOM     30  O   LIG A   1      -5.568   4.201 124.945  0.00  0.00    -0.387 OA
ATOM     31  H   LIG A   1      -5.551   3.336 124.497  0.00  0.00    +0.210 HD
ENDBRANCH   5  30
BRANCH   4  32
ATOM     32  O   LIG A   1      -9.127   3.891 125.248  0.00  0.00    -0.387 OA
ATOM     33  H   LIG A   1      -9.117   4.744 124.777  0.00  0.00    +0.210 HD
ENDBRANCH   4  32
BRANCH   6  34
ATOM     34  O   LIG A   1      -5.969   4.991 127.843  0.00  0.00    -0.386 OA
ATOM     35  H   LIG A   1      -6.412   5.024 128.710  0.00  0.00    +0.210 HD
ENDBRANCH   6  34
BRANCH   3  36
ATOM     36  C   LIG A   1      -6.781   0.949 125.143  0.00  0.00    +0.197 C 
BRANCH  36  37
ATOM     37  O   LIG A   1      -5.945   0.411 126.175  0.00  0.00    -0.346 OA
BRANCH  37  38
ATOM     38  C   LIG A   1      -5.840  -1.022 126.099  0.00  0.00    +0.282 C 
ATOM     39  O   LIG A   1      -6.835  -1.529 125.207  0.00  0.00    -0.341 OA
ATOM     40  C   LIG A   1      -7.483  -2.731 125.645  0.00  0.00    +0.178 C 
ATOM     41  C   LIG A   1      -8.257  -2.413 126.930  0.00  0.00    +0.177 C 
ATOM     42  C   LIG A   1      -7.309  -1.912 128.038  0.00  0.00    +0.179 C 
ATOM     43  C   LIG A   1      -5.882  -1.603 127.540  0.00  0.00    +0.201 C 
BRANCH  42  44
ATOM     44  O   LIG A   1      -7.930  -0.787 128.678  0.00  0.00    -0.386 OA
ATOM     45  H   LIG A   1      -8.889  -0.939 128.728  0.00  0.00    +0.210 HD
ENDBRANCH  42  44
BRANCH  41  46
ATOM     46  O   LIG A   1      -9.012  -3.539 127.398  0.00  0.00    -0.387 OA
ATOM     47  H   LIG A   1      -9.187  -4.096 126.616  0.00  0.00    +0.210 HD
ENDBRANCH  41  46
BRANCH  43  48
ATOM     48  O   LIG A   1      -5.113  -2.824 127.568  0.00  0.00    -0.384 OA
ATOM     49  H   LIG A   1      -5.567  -3.485 127.015  0.00  0.00    +0.210 HD
ENDBRANCH  43  48
BRANCH  40  50
ATOM     50  C   LIG A   1      -8.403  -3.217 124.511  0.00  0.00    +0.190 C 
BRANCH  50  51
ATOM     51  O   LIG A   1      -9.780  -2.936 124.724  0.00  0.00    -0.392 OA
ATOM     52  H   LIG A   1     -10.235  -3.104 123.874  0.00  0.00    +0.209 HD
ENDBRANCH  50  51
ENDBRANCH  40  50
ENDBRANCH  37  38
ENDBRANCH  36  37
ENDBRANCH   3  36
TORSDOF 16
ENDMDL
MODEL 2
REMARK VINA RESULT:      -8.3      3.147      7.891
REMARK  Name = NuBBE_63
REMARK  16 active torsions:
REMARK  status: ('A' for Active; 'I' for Inactive)
REMARK    1  A    between atoms: O_1  and  C_2
REMARK    2  A    between atoms: C_5  and  C_6
REMARK    3  A    between atoms: C_10  and  O_49
REMARK    4  A    between atoms: C_12  and  O_48
REMARK    5  A    between atoms: C_13  and  C_14
REMARK    6  A    between atoms: C_17  and  C_25
REMARK    7  A    between atoms: C_19  and  O_24
REMARK    8  A    between atoms: C_21  and  O_23
REMARK    9  A    between atoms: C_25  and  O_26
REMARK   10  A    between atoms: O_26  and  C_27
REMARK   11  A    between atoms: C_30  and  C_38
REMARK   12  A    between atoms: C_32  and  O_37
REMARK   13  A    between atoms: C_34  and  O_36
REMARK   14  A    between atoms: C_38  and  O_39
REMARK   15  A    between atoms: C_40  and  O_42
REMARK   16  A    between atoms: C_43  and  O_45
REMARK                            x       y       z     vdW  Elec       q    Type
REMARK                         _______ _______ _______ _____ _____    ______ ____
ROOT
ATOM      1  C   LIG A   1      -5.716   3.083 126.549  0.00  0.00    +0.187 C 
ATOM      2  O   LIG A   1      -5.083   2.456 127.693  0.00  0.00    -0.361 OA
ATOM      3  C   LIG A   1      -3.847   3.055 128.142  0.00  0.00    +0.176 C 
ATOM      4  C   LIG A   1      -3.309   4.191 127.253  0.00  0.00    +0.176 C 
ATOM      5  C   LIG A   1      -4.396   5.191 126.835  0.00  0.00    +0.177 C 
ATOM      6  C   LIG A   1      -5.816   4.592 126.825  0.00  0.00    +0.179 C 
ENDROOT
BRANCH   1  14
ATOM      7  C   LIG A   1      -7.173   2.366 122.676  0.00  0.00    +0.211 C 
ATOM      8  C   LIG A   1      -8.652   2.142 122.388  0.00  0.00    +0.129 C 
ATOM      9  C   LIG A   1      -9.218   1.233 123.436  0.00  0.00    +0.174 C 
ATOM     10  C   LIG A   1      -8.719   1.439 124.810  0.00  0.00    +0.101 A 
ATOM     11  C   LIG A   1      -9.410   0.891 125.895  0.00  0.00    +0.134 A 
ATOM     12  C   LIG A   1      -8.977   1.137 127.189  0.00  0.00    +0.092 A 
ATOM     13  C   LIG A   1      -7.813   1.873 127.397  0.00  0.00    +0.130 A 
ATOM     14  C   LIG A   1      -7.062   2.397 126.328  0.00  0.00    +0.068 A 
ATOM     15  C   LIG A   1      -7.572   2.218 125.020  0.00  0.00    +0.145 A 
ATOM     16  O   LIG A   1      -6.938   2.887 123.996  0.00  0.00    -0.482 OA
ATOM     17  O   LIG A   1     -10.098   0.426 123.213  0.00  0.00    -0.292 OA
BRANCH   7  21
ATOM     18  C   LIG A   1      -5.570   5.207 119.824  0.00  0.00    +0.117 A 
ATOM     19  C   LIG A   1      -4.849   4.920 120.977  0.00  0.00    +0.046 A 
ATOM     20  C   LIG A   1      -5.349   3.981 121.887  0.00  0.00    +0.011 A 
ATOM     21  C   LIG A   1      -6.578   3.334 121.660  0.00  0.00    -0.007 A 
ATOM     22  C   LIG A   1      -7.274   3.628 120.477  0.00  0.00    +0.011 A 
ATOM     23  C   LIG A   1      -6.769   4.558 119.562  0.00  0.00    +0.046 A 
BRANCH  18  24
ATOM     24  O   LIG A   1      -5.135   6.128 118.918  0.00  0.00    -0.507 OA
ATOM     25  H   LIG A   1      -4.511   6.729 119.358  0.00  0.00    +0.292 HD
ENDBRANCH  18  24
ENDBRANCH   7  21
BRANCH  13  26
ATOM     26  O   LIG A   1      -7.444   2.039 128.704  0.00  0.00    -0.506 OA
ATOM     27  H   LIG A   1      -6.590   2.519 128.710  0.00  0.00    +0.292 HD
ENDBRANCH  13  26
BRANCH  11  28
ATOM     28  O   LIG A   1     -10.536   0.123 125.759  0.00  0.00    -0.506 OA
ATOM     29  H   LIG A   1     -10.303  -0.809 125.971  0.00  0.00    +0.292 HD
ENDBRANCH  11  28
ENDBRANCH   1  14
BRANCH   5  30
ATOM     30  O   LIG A   1      -4.369   6.344 127.690  0.00  0.00    -0.387 OA
ATOM     31  H   LIG A   1      -4.633   6.016 128.569  0.00  0.00    +0.210 HD
ENDBRANCH   5  30
BRANCH   4  32
ATOM     32  O   LIG A   1      -2.748   3.588 126.068  0.00  0.00    -0.387 OA
ATOM     33  H   LIG A   1      -2.331   4.299 125.548  0.00  0.00    +0.210 HD
ENDBRANCH   4  32
BRANCH   6  34
ATOM     34  O   LIG A   1      -6.595   5.348 125.890  0.00  0.00    -0.386 OA
ATOM     35  H   LIG A   1      -6.123   6.187 125.744  0.00  0.00    +0.210 HD
ENDBRANCH   6  34
BRANCH   3  36
ATOM     36  C   LIG A   1      -3.975   3.483 129.625  0.00  0.00    +0.197 C 
BRANCH  36  37
ATOM     37  O   LIG A   1      -5.206   3.045 130.211  0.00  0.00    -0.346 OA
BRANCH  37  38
ATOM     38  C   LIG A   1      -5.611   3.877 131.314  0.00  0.00    +0.282 C 
ATOM     39  O   LIG A   1      -6.620   3.206 132.073  0.00  0.00    -0.341 OA
ATOM     40  C   LIG A   1      -7.696   4.043 132.518  0.00  0.00    +0.178 C 
ATOM     41  C   LIG A   1      -8.440   4.560 131.281  0.00  0.00    +0.177 C 
ATOM     42  C   LIG A   1      -7.500   5.378 130.372  0.00  0.00    +0.179 C 
ATOM     43  C   LIG A   1      -6.012   5.274 130.765  0.00  0.00    +0.201 C 
BRANCH  42  44
ATOM     44  O   LIG A   1      -7.745   4.986 129.013  0.00  0.00    -0.386 OA
ATOM     45  H   LIG A   1      -7.110   4.295 128.762  0.00  0.00    +0.210 HD
ENDBRANCH  42  44
BRANCH  41  46
ATOM     46  O   LIG A   1      -9.592   5.339 131.630  0.00  0.00    -0.387 OA
ATOM     47  H   LIG A   1      -9.635   5.344 132.605  0.00  0.00    +0.210 HD
ENDBRANCH  41  46
BRANCH  43  48
ATOM     48  O   LIG A   1      -5.736   6.265 131.780  0.00  0.00    -0.384 OA
ATOM     49  H   LIG A   1      -5.347   5.813 132.550  0.00  0.00    +0.210 HD
ENDBRANCH  43  48
BRANCH  40  50
ATOM     50  C   LIG A   1      -8.601   3.205 133.439  0.00  0.00    +0.190 C 
BRANCH  50  51
ATOM     51  O   LIG A   1      -9.726   3.913 133.944  0.00  0.00    -0.392 OA
ATOM     52  H   LIG A   1      -9.387   4.762 134.295  0.00  0.00    +0.209 HD
ENDBRANCH  50  51
ENDBRANCH  40  50
ENDBRANCH  37  38
ENDBRANCH  36  37
ENDBRANCH   3  36
TORSDOF 16
ENDMDL
MODEL 3
REMARK VINA RESULT:      -8.2      2.669      9.224
REMARK  Name = NuBBE_63
REMARK  16 active torsions:
REMARK  status: ('A' for Active; 'I' for Inactive)
REMARK    1  A    between atoms: O_1  and  C_2
REMARK    2  A    between atoms: C_5  and  C_6
REMARK    3  A    between atoms: C_10  and  O_49
REMARK    4  A    between atoms: C_12  and  O_48
REMARK    5  A    between atoms: C_13  and  C_14
REMARK    6  A    between atoms: C_17  and  C_25
REMARK    7  A    between atoms: C_19  and  O_24
REMARK    8  A    between atoms: C_21  and  O_23
REMARK    9  A    between atoms: C_25  and  O_26
REMARK   10  A    between atoms: O_26  and  C_27
REMARK   11  A    between atoms: C_30  and  C_38
REMARK   12  A    between atoms: C_32  and  O_37
REMARK   13  A    between atoms: C_34  and  O_36
REMARK   14  A    between atoms: C_38  and  O_39
REMARK   15  A    between atoms: C_40  and  O_42
REMARK   16  A    between atoms: C_43  and  O_45
REMARK                            x       y       z     vdW  Elec       q    Type
REMARK                         _______ _______ _______ _____ _____    ______ ____
ROOT
ATOM      1  C   LIG A   1      -7.971   1.454 130.147  0.00  0.00    +0.187 C 
ATOM      2  O   LIG A   1      -9.265   2.023 130.468  0.00  0.00    -0.361 OA
ATOM      3  C   LIG A   1      -9.348   2.750 131.714  0.00  0.00    +0.176 C 
ATOM      4  C   LIG A   1      -8.082   2.697 132.588  0.00  0.00    +0.176 C 
ATOM      5  C   LIG A   1      -6.792   2.931 131.789  0.00  0.00    +0.177 C 
ATOM      6  C   LIG A   1      -6.912   2.557 130.299  0.00  0.00    +0.179 C 
ENDROOT
BRANCH   1  14
ATOM      7  C   LIG A   1      -7.691  -2.691 129.527  0.00  0.00    +0.211 C 
ATOM      8  C   LIG A   1      -7.298  -3.291 128.184  0.00  0.00    +0.129 C 
ATOM      9  C   LIG A   1      -8.014  -2.553 127.093  0.00  0.00    +0.174 C 
ATOM     10  C   LIG A   1      -8.150  -1.095 127.281  0.00  0.00    +0.101 A 
ATOM     11  C   LIG A   1      -8.491  -0.280 126.197  0.00  0.00    +0.134 A 
ATOM     12  C   LIG A   1      -8.557   1.096 126.358  0.00  0.00    +0.092 A 
ATOM     13  C   LIG A   1      -8.352   1.652 127.618  0.00  0.00    +0.130 A 
ATOM     14  C   LIG A   1      -8.059   0.860 128.744  0.00  0.00    +0.068 A 
ATOM     15  C   LIG A   1      -7.899  -0.532 128.541  0.00  0.00    +0.145 A 
ATOM     16  O   LIG A   1      -7.432  -1.278 129.600  0.00  0.00    -0.482 OA
ATOM     17  O   LIG A   1      -8.393  -3.083 126.068  0.00  0.00    -0.292 OA
BRANCH   7  21
ATOM     18  C   LIG A   1      -5.651  -4.717 132.768  0.00  0.00    +0.117 A 
ATOM     19  C   LIG A   1      -5.371  -5.079 131.456  0.00  0.00    +0.046 A 
ATOM     20  C   LIG A   1      -6.006  -4.407 130.405  0.00  0.00    +0.011 A 
ATOM     21  C   LIG A   1      -6.935  -3.381 130.656  0.00  0.00    -0.007 A 
ATOM     22  C   LIG A   1      -7.183  -3.022 131.991  0.00  0.00    +0.011 A 
ATOM     23  C   LIG A   1      -6.541  -3.685 133.041  0.00  0.00    +0.046 A 
BRANCH  18  24
ATOM     24  O   LIG A   1      -5.075  -5.354 133.827  0.00  0.00    -0.507 OA
ATOM     25  H   LIG A   1      -5.773  -5.771 134.358  0.00  0.00    +0.292 HD
ENDBRANCH  18  24
ENDBRANCH   7  21
BRANCH  13  26
ATOM     26  O   LIG A   1      -8.469   3.013 127.690  0.00  0.00    -0.506 OA
ATOM     27  H   LIG A   1      -7.867   3.398 127.020  0.00  0.00    +0.292 HD
ENDBRANCH  13  26
BRANCH  11  28
ATOM     28  O   LIG A   1      -8.747  -0.764 124.942  0.00  0.00    -0.506 OA
ATOM     29  H   LIG A   1      -8.502  -0.073 124.286  0.00  0.00    +0.292 HD
ENDBRANCH  11  28
ENDBRANCH   1  14
BRANCH   5  30
ATOM     30  O   LIG A   1      -6.372   4.299 131.908  0.00  0.00    -0.387 OA
ATOM     31  H   LIG A   1      -5.967   4.517 131.048  0.00  0.00    +0.210 HD
ENDBRANCH   5  30
BRANCH   4  32
ATOM     32  O   LIG A   1      -8.025   1.389 133.195  0.00  0.00    -0.387 OA
ATOM     33  H   LIG A   1      -8.746   1.339 133.848  0.00  0.00    +0.210 HD
ENDBRANCH   4  32
BRANCH   6  34
ATOM     34  O   LIG A   1      -5.599   2.232 129.830  0.00  0.00    -0.386 OA
ATOM     35  H   LIG A   1      -4.991   2.363 130.580  0.00  0.00    +0.210 HD
ENDBRANCH   6  34
BRANCH   3  36
ATOM     36  C   LIG A   1      -9.816   4.201 131.448  0.00  0.00    +0.197 C 
BRANCH  36  37
ATOM     37  O   LIG A   1     -10.544   4.321 130.221  0.00  0.00    -0.346 OA
BRANCH  37  38
ATOM     38  C   LIG A   1     -11.543   5.356 130.277  0.00  0.00    +0.282 C 
ATOM     39  O   LIG A   1     -12.072   5.581 128.968  0.00  0.00    -0.341 OA
ATOM     40  C   LIG A   1     -12.287   6.959 128.634  0.00  0.00    +0.178 C 
ATOM     41  C   LIG A   1     -10.925   7.662 128.614  0.00  0.00    +0.177 C 
ATOM     42  C   LIG A   1     -10.236   7.574 129.991  0.00  0.00    +0.179 C 
ATOM     43  C   LIG A   1     -10.930   6.604 130.970  0.00  0.00    +0.201 C 
BRANCH  42  44
ATOM     44  O   LIG A   1      -8.854   7.252 129.776  0.00  0.00    -0.386 OA
ATOM     45  H   LIG A   1      -8.771   6.298 129.612  0.00  0.00    +0.210 HD
ENDBRANCH  42  44
BRANCH  41  46
ATOM     46  O   LIG A   1     -11.030   9.032 128.201  0.00  0.00    -0.387 OA
ATOM     47  H   LIG A   1     -10.632   9.565 128.915  0.00  0.00    +0.210 HD
ENDBRANCH  41  46
BRANCH  43  48
ATOM     48  O   LIG A   1     -11.985   7.318 131.651  0.00  0.00    -0.384 OA
ATOM     49  H   LIG A   1     -12.588   7.686 130.980  0.00  0.00    +0.210 HD
ENDBRANCH  43  48
BRANCH  40  50
ATOM     50  C   LIG A   1     -12.994   7.012 127.267  0.00  0.00    +0.190 C 
BRANCH  50  51
ATOM     51  O   LIG A   1     -12.142   6.731 126.164  0.00  0.00    -0.392 OA
ATOM     52  H   LIG A   1     -12.445   5.882 125.785  0.00  0.00    +0.209 HD
ENDBRANCH  50  51
ENDBRANCH  40  50
ENDBRANCH  37  38
ENDBRANCH  36  37
ENDBRANCH   3  36
TORSDOF 16
ENDMDL
MODEL 4
REMARK VINA RESULT:      -8.2      3.955      8.331
REMARK  Name = NuBBE_63
REMARK  16 active torsions:
REMARK  status: ('A' for Active; 'I' for Inactive)
REMARK    1  A    between atoms: O_1  and  C_2
REMARK    2  A    between atoms: C_5  and  C_6
REMARK    3  A    between atoms: C_10  and  O_49
REMARK    4  A    between atoms: C_12  and  O_48
REMARK    5  A    between atoms: C_13  and  C_14
REMARK    6  A    between atoms: C_17  and  C_25
REMARK    7  A    between atoms: C_19  and  O_24
REMARK    8  A    between atoms: C_21  and  O_23
REMARK    9  A    between atoms: C_25  and  O_26
REMARK   10  A    between atoms: O_26  and  C_27
REMARK   11  A    between atoms: C_30  and  C_38
REMARK   12  A    between atoms: C_32  and  O_37
REMARK   13  A    between atoms: C_34  and  O_36
REMARK   14  A    between atoms: C_38  and  O_39
REMARK   15  A    between atoms: C_40  and  O_42
REMARK   16  A    between atoms: C_43  and  O_45
REMARK                            x       y       z     vdW  Elec       q    Type
REMARK                         _______ _______ _______ _____ _____    ______ ____
ROOT
ATOM      1  C   LIG A   1      -5.619   3.082 126.512  0.00  0.00    +0.187 C 
ATOM      2  O   LIG A   1      -4.966   2.462 127.648  0.00  0.00    -0.361 OA
ATOM      3  C   LIG A   1      -3.720   3.062 128.069  0.00  0.00    +0.176 C 
ATOM      4  C   LIG A   1      -3.197   4.190 127.162  0.00  0.00    +0.176 C 
ATOM      5  C   LIG A   1      -4.289   5.189 126.757  0.00  0.00    +0.177 C 
ATOM      6  C   LIG A   1      -5.711   4.593 126.779  0.00  0.00    +0.179 C 
ENDROOT
BRANCH   1  14
ATOM      7  C   LIG A   1      -7.165   2.366 122.673  0.00  0.00    +0.211 C 
ATOM      8  C   LIG A   1      -8.650   2.143 122.419  0.00  0.00    +0.129 C 
ATOM      9  C   LIG A   1      -9.193   1.235 123.479  0.00  0.00    +0.174 C 
ATOM     10  C   LIG A   1      -8.663   1.441 124.842  0.00  0.00    +0.101 A 
ATOM     11  C   LIG A   1      -9.329   0.893 125.942  0.00  0.00    +0.134 A 
ATOM     12  C   LIG A   1      -8.867   1.140 127.227  0.00  0.00    +0.092 A 
ATOM     13  C   LIG A   1      -7.698   1.874 127.408  0.00  0.00    +0.130 A 
ATOM     14  C   LIG A   1      -6.970   2.397 126.322  0.00  0.00    +0.068 A 
ATOM     15  C   LIG A   1      -7.510   2.219 125.025  0.00  0.00    +0.145 A 
ATOM     16  O   LIG A   1      -6.900   2.887 123.988  0.00  0.00    -0.482 OA
ATOM     17  O   LIG A   1     -10.079   0.429 123.277  0.00  0.00    -0.292 OA
BRANCH   7  21
ATOM     18  C   LIG A   1      -5.625   5.205 119.785  0.00  0.00    +0.117 A 
ATOM     19  C   LIG A   1      -4.883   4.926 120.927  0.00  0.00    +0.046 A 
ATOM     20  C   LIG A   1      -5.362   3.988 121.848  0.00  0.00    +0.011 A 
ATOM     21  C   LIG A   1      -6.592   3.334 121.644  0.00  0.00    -0.007 A 
ATOM     22  C   LIG A   1      -7.310   3.620 120.472  0.00  0.00    +0.011 A 
ATOM     23  C   LIG A   1      -6.825   4.549 119.545  0.00  0.00    +0.046 A 
BRANCH  18  24
ATOM     24  O   LIG A   1      -5.210   6.125 118.868  0.00  0.00    -0.507 OA
ATOM     25  H   LIG A   1      -4.506   5.731 118.327  0.00  0.00    +0.292 HD
ENDBRANCH  18  24
ENDBRANCH   7  21
BRANCH  13  26
ATOM     26  O   LIG A   1      -7.298   2.039 128.706  0.00  0.00    -0.506 OA
ATOM     27  H   LIG A   1      -6.565   2.689 128.708  0.00  0.00    +0.292 HD
ENDBRANCH  13  26
BRANCH  11  28
ATOM     28  O   LIG A   1     -10.458   0.127 125.832  0.00  0.00    -0.506 OA
ATOM     29  H   LIG A   1     -10.191  -0.786 125.580  0.00  0.00    +0.292 HD
ENDBRANCH  11  28
ENDBRANCH   1  14
BRANCH   5  30
ATOM     30  O   LIG A   1      -4.244   6.348 127.604  0.00  0.00    -0.387 OA
ATOM     31  H   LIG A   1      -5.172   6.524 127.846  0.00  0.00    +0.210 HD
ENDBRANCH   5  30
BRANCH   4  32
ATOM     32  O   LIG A   1      -2.660   3.577 125.970  0.00  0.00    -0.387 OA
ATOM     33  H   LIG A   1      -3.394   3.121 125.520  0.00  0.00    +0.210 HD
ENDBRANCH   4  32
BRANCH   6  34
ATOM     34  O   LIG A   1      -6.505   5.344 125.854  0.00  0.00    -0.386 OA
ATOM     35  H   LIG A   1      -6.825   6.131 126.331  0.00  0.00    +0.210 HD
ENDBRANCH   6  34
BRANCH   3  36
ATOM     36  C   LIG A   1      -3.819   3.500 129.551  0.00  0.00    +0.197 C 
BRANCH  36  37
ATOM     37  O   LIG A   1      -5.121   3.269 130.099  0.00  0.00    -0.346 OA
BRANCH  37  38
ATOM     38  C   LIG A   1      -5.735   4.480 130.577  0.00  0.00    +0.282 C 
ATOM     39  O   LIG A   1      -4.894   5.595 130.271  0.00  0.00    -0.341 OA
ATOM     40  C   LIG A   1      -4.792   6.576 131.312  0.00  0.00    +0.178 C 
ATOM     41  C   LIG A   1      -4.117   5.918 132.521  0.00  0.00    +0.177 C 
ATOM     42  C   LIG A   1      -4.943   4.719 133.031  0.00  0.00    +0.179 C 
ATOM     43  C   LIG A   1      -6.084   4.304 132.081  0.00  0.00    +0.201 C 
BRANCH  42  44
ATOM     44  O   LIG A   1      -4.035   3.643 133.313  0.00  0.00    -0.386 OA
ATOM     45  H   LIG A   1      -4.029   3.026 132.562  0.00  0.00    +0.210 HD
ENDBRANCH  42  44
BRANCH  41  46
ATOM     46  O   LIG A   1      -3.891   6.851 133.587  0.00  0.00    -0.387 OA
ATOM     47  H   LIG A   1      -3.126   7.394 133.318  0.00  0.00    +0.210 HD
ENDBRANCH  41  46
BRANCH  43  48
ATOM     48  O   LIG A   1      -7.246   5.108 132.381  0.00  0.00    -0.384 OA
ATOM     49  H   LIG A   1      -7.774   5.197 131.568  0.00  0.00    +0.210 HD
ENDBRANCH  43  48
BRANCH  40  50
ATOM     50  C   LIG A   1      -3.983   7.767 130.765  0.00  0.00    +0.190 C 
BRANCH  50  51
ATOM     51  O   LIG A   1      -4.608   8.439 129.679  0.00  0.00    -0.392 OA
ATOM     52  H   LIG A   1      -3.975   8.415 128.933  0.00  0.00    +0.209 HD
ENDBRANCH  50  51
ENDBRANCH  40  50
ENDBRANCH  37  38
ENDBRANCH  36  37
ENDBRANCH   3  36
TORSDOF 16
ENDMDL
MODEL 5
REMARK VINA RESULT:      -8.1      1.331      2.221
REMARK  Name = NuBBE_63
REMARK  16 active torsions:
REMARK  status: ('A' for Active; 'I' for Inactive)
REMARK    1  A    between atoms: O_1  and  C_2
REMARK    2  A    between atoms: C_5  and  C_6
REMARK    3  A    between atoms: C_10  and  O_49
REMARK    4  A    between atoms: C_12  and  O_48
REMARK    5  A    between atoms: C_13  and  C_14
REMARK    6  A    between atoms: C_17  and  C_25
REMARK    7  A    between atoms: C_19  and  O_24
REMARK    8  A    between atoms: C_21  and  O_23
REMARK    9  A    between atoms: C_25  and  O_26
REMARK   10  A    between atoms: O_26  and  C_27
REMARK   11  A    between atoms: C_30  and  C_38
REMARK   12  A    between atoms: C_32  and  O_37
REMARK   13  A    between atoms: C_34  and  O_36
REMARK   14  A    between atoms: C_38  and  O_39
REMARK   15  A    between atoms: C_40  and  O_42
REMARK   16  A    between atoms: C_43  and  O_45
REMARK                            x       y       z     vdW  Elec       q    Type
REMARK                         _______ _______ _______ _____ _____    ______ ____
ROOT
ATOM      1  C   LIG A   1      -7.535   3.756 127.862  0.00  0.00    +0.187 C 
ATOM      2  O   LIG A   1      -7.970   2.533 127.218  0.00  0.00    -0.361 OA
ATOM      3  C   LIG A   1      -8.030   2.562 125.774  0.00  0.00    +0.176 C 
ATOM      4  C   LIG A   1      -7.754   3.936 125.136  0.00  0.00    +0.176 C 
ATOM      5  C   LIG A   1      -6.539   4.648 125.746  0.00  0.00    +0.177 C 
ATOM      6  C   LIG A   1      -6.230   4.212 127.192  0.00  0.00    +0.179 C 
ENDROOT
BRANCH   1  14
ATOM      7  C   LIG A   1     -10.314   5.294 130.610  0.00  0.00    +0.211 C 
ATOM      8  C   LIG A   1      -9.995   5.457 132.090  0.00  0.00    +0.129 C 
ATOM      9  C   LIG A   1      -9.269   4.237 132.568  0.00  0.00    +0.174 C 
ATOM     10  C   LIG A   1      -8.294   3.654 131.625  0.00  0.00    +0.101 A 
ATOM     11  C   LIG A   1      -7.340   2.740 132.083  0.00  0.00    +0.134 A 
ATOM     12  C   LIG A   1      -6.384   2.240 131.210  0.00  0.00    +0.092 A 
ATOM     13  C   LIG A   1      -6.426   2.597 129.865  0.00  0.00    +0.130 A 
ATOM     14  C   LIG A   1      -7.404   3.473 129.357  0.00  0.00    +0.068 A 
ATOM     15  C   LIG A   1      -8.310   4.050 130.280  0.00  0.00    +0.145 A 
ATOM     16  O   LIG A   1      -9.142   5.043 129.815  0.00  0.00    -0.482 OA
ATOM     17  O   LIG A   1      -9.391   3.786 133.689  0.00  0.00    -0.292 OA
BRANCH   7  21
ATOM     18  C   LIG A   1     -12.229   8.914 129.196  0.00  0.00    +0.117 A 
ATOM     19  C   LIG A   1     -11.094   8.447 128.546  0.00  0.00    +0.046 A 
ATOM     20  C   LIG A   1     -10.488   7.262 128.981  0.00  0.00    +0.011 A 
ATOM     21  C   LIG A   1     -11.003   6.544 130.076  0.00  0.00    -0.007 A 
ATOM     22  C   LIG A   1     -12.164   7.028 130.701  0.00  0.00    +0.011 A 
ATOM     23  C   LIG A   1     -12.775   8.207 130.259  0.00  0.00    +0.046 A 
BRANCH  18  24
ATOM     24  O   LIG A   1     -12.843  10.073 128.824  0.00  0.00    -0.507 OA
ATOM     25  H   LIG A   1     -12.989  10.618 129.615  0.00  0.00    +0.292 HD
ENDBRANCH  18  24
ENDBRANCH   7  21
BRANCH  13  26
ATOM     26  O   LIG A   1      -5.466   2.031 129.072  0.00  0.00    -0.506 OA
ATOM     27  H   LIG A   1      -5.799   2.043 128.151  0.00  0.00    +0.292 HD
ENDBRANCH  13  26
BRANCH  11  28
ATOM     28  O   LIG A   1      -7.269   2.314 133.382  0.00  0.00    -0.506 OA
ATOM     29  H   LIG A   1      -6.372   2.524 133.729  0.00  0.00    +0.292 HD
ENDBRANCH  11  28
ENDBRANCH   1  14
BRANCH   5  30
ATOM     30  O   LIG A   1      -5.377   4.444 124.926  0.00  0.00    -0.387 OA
ATOM     31  H   LIG A   1      -5.214   3.483 124.949  0.00  0.00    +0.210 HD
ENDBRANCH   5  30
BRANCH   4  32
ATOM     32  O   LIG A   1      -8.925   4.754 125.340  0.00  0.00    -0.387 OA
ATOM     33  H   LIG A   1      -9.206   4.637 126.266  0.00  0.00    +0.210 HD
ENDBRANCH   4  32
BRANCH   6  34
ATOM     34  O   LIG A   1      -5.545   5.297 127.829  0.00  0.00    -0.386 OA
ATOM     35  H   LIG A   1      -5.303   4.992 128.722  0.00  0.00    +0.210 HD
ENDBRANCH   6  34
BRANCH   3  36
ATOM     36  C   LIG A   1      -7.127   1.451 125.185  0.00  0.00    +0.197 C 
BRANCH  36  37
ATOM     37  O   LIG A   1      -7.661   0.902 123.975  0.00  0.00    -0.346 OA
BRANCH  37  38
ATOM     38  C   LIG A   1      -8.674  -0.089 124.225  0.00  0.00    +0.282 C 
ATOM     39  O   LIG A   1      -8.430  -0.714 125.488  0.00  0.00    -0.341 OA
ATOM     40  C   LIG A   1      -8.637  -2.133 125.509  0.00  0.00    +0.178 C 
ATOM     41  C   LIG A   1      -7.613  -2.777 124.567  0.00  0.00    +0.177 C 
ATOM     42  C   LIG A   1      -7.785  -2.259 123.125  0.00  0.00    +0.179 C 
ATOM     43  C   LIG A   1      -8.740  -1.054 123.009  0.00  0.00    +0.201 C 
BRANCH  42  44
ATOM     44  O   LIG A   1      -6.479  -1.986 122.594  0.00  0.00    -0.386 OA
ATOM     45  H   LIG A   1      -6.112  -2.803 122.216  0.00  0.00    +0.210 HD
ENDBRANCH  42  44
BRANCH  41  46
ATOM     46  O   LIG A   1      -7.686  -4.210 124.589  0.00  0.00    -0.387 OA
ATOM     47  H   LIG A   1      -7.908  -4.459 125.506  0.00  0.00    +0.210 HD
ENDBRANCH  41  46
BRANCH  43  48
ATOM     48  O   LIG A   1     -10.091  -1.551 122.888  0.00  0.00    -0.384 OA
ATOM     49  H   LIG A   1     -10.525  -1.469 123.756  0.00  0.00    +0.210 HD
ENDBRANCH  43  48
BRANCH  40  50
ATOM     50  C   LIG A   1      -8.482  -2.615 126.962  0.00  0.00    +0.190 C 
BRANCH  50  51
ATOM     51  O   LIG A   1      -8.981  -3.926 127.193  0.00  0.00    -0.392 OA
ATOM     52  H   LIG A   1      -9.028  -4.041 128.163  0.00  0.00    +0.209 HD
ENDBRANCH  50  51
ENDBRANCH  40  50
ENDBRANCH  37  38
ENDBRANCH  36  37
ENDBRANCH   3  36
TORSDOF 16
ENDMDL
MODEL 6
REMARK VINA RESULT:      -7.8      2.749      4.521
REMARK  Name = NuBBE_63
REMARK  16 active torsions:
REMARK  status: ('A' for Active; 'I' for Inactive)
REMARK    1  A    between atoms: O_1  and  C_2
REMARK    2  A    between atoms: C_5  and  C_6
REMARK    3  A    between atoms: C_10  and  O_49
REMARK    4  A    between atoms: C_12  and  O_48
REMARK    5  A    between atoms: C_13  and  C_14
REMARK    6  A    between atoms: C_17  and  C_25
REMARK    7  A    between atoms: C_19  and  O_24
REMARK    8  A    between atoms: C_21  and  O_23
REMARK    9  A    between atoms: C_25  and  O_26
REMARK   10  A    between atoms: O_26  and  C_27
REMARK   11  A    between atoms: C_30  and  C_38
REMARK   12  A    between atoms: C_32  and  O_37
REMARK   13  A    between atoms: C_34  and  O_36
REMARK   14  A    between atoms: C_38  and  O_39
REMARK   15  A    between atoms: C_40  and  O_42
REMARK   16  A    between atoms: C_43  and  O_45
REMARK                            x       y       z     vdW  Elec       q    Type
REMARK                         _______ _______ _______ _____ _____    ______ ____
ROOT
ATOM      1  C   LIG A   1      -5.729   2.534 128.628  0.00  0.00    +0.187 C 
ATOM      2  O   LIG A   1      -4.990   1.339 128.269  0.00  0.00    -0.361 OA
ATOM      3  C   LIG A   1      -5.780   0.153 128.029  0.00  0.00    +0.176 C 
ATOM      4  C   LIG A   1      -7.284   0.298 128.323  0.00  0.00    +0.176 C 
ATOM      5  C   LIG A   1      -7.883   1.595 127.764  0.00  0.00    +0.177 C 
ATOM      6  C   LIG A   1      -6.852   2.729 127.598  0.00  0.00    +0.179 C 
ENDROOT
BRANCH   1  14
ATOM      7  C   LIG A   1      -6.401   5.820 131.156  0.00  0.00    +0.211 C 
ATOM      8  C   LIG A   1      -5.739   7.172 130.931  0.00  0.00    +0.129 C 
ATOM      9  C   LIG A   1      -4.300   6.957 130.574  0.00  0.00    +0.174 C 
ATOM     10  C   LIG A   1      -4.017   5.801 129.700  0.00  0.00    +0.101 A 
ATOM     11  C   LIG A   1      -2.786   5.705 129.044  0.00  0.00    +0.134 A 
ATOM     12  C   LIG A   1      -2.544   4.652 128.174  0.00  0.00    +0.092 A 
ATOM     13  C   LIG A   1      -3.504   3.657 128.014  0.00  0.00    +0.130 A 
ATOM     14  C   LIG A   1      -4.735   3.691 128.697  0.00  0.00    +0.068 A 
ATOM     15  C   LIG A   1      -5.004   4.823 129.505  0.00  0.00    +0.145 A 
ATOM     16  O   LIG A   1      -6.274   4.945 130.022  0.00  0.00    -0.482 OA
ATOM     17  O   LIG A   1      -3.412   7.719 130.897  0.00  0.00    -0.292 OA
BRANCH   7  21
ATOM     18  C   LIG A   1     -10.640   6.243 131.946  0.00  0.00    +0.117 A 
ATOM     19  C   LIG A   1      -9.832   5.617 132.887  0.00  0.00    +0.046 A 
ATOM     20  C   LIG A   1      -8.457   5.505 132.650  0.00  0.00    +0.011 A 
ATOM     21  C   LIG A   1      -7.882   6.001 131.465  0.00  0.00    -0.007 A 
ATOM     22  C   LIG A   1      -8.720   6.646 130.541  0.00  0.00    +0.011 A 
ATOM     23  C   LIG A   1     -10.092   6.769 130.784  0.00  0.00    +0.046 A 
BRANCH  18  24
ATOM     24  O   LIG A   1     -11.987   6.359 132.122  0.00  0.00    -0.507 OA
ATOM     25  H   LIG A   1     -12.438   5.911 131.387  0.00  0.00    +0.292 HD
ENDBRANCH  18  24
ENDBRANCH   7  21
BRANCH  13  26
ATOM     26  O   LIG A   1      -3.168   2.640 127.162  0.00  0.00    -0.506 OA
ATOM     27  H   LIG A   1      -2.516   2.995 126.523  0.00  0.00    +0.292 HD
ENDBRANCH  13  26
BRANCH  11  28
ATOM     28  O   LIG A   1      -1.783   6.624 129.190  0.00  0.00    -0.506 OA
ATOM     29  H   LIG A   1      -2.175   7.461 129.528  0.00  0.00    +0.292 HD
ENDBRANCH  11  28
ENDBRANCH   1  14
BRANCH   5  30
ATOM     30  O   LIG A   1      -8.528   1.346 126.505  0.00  0.00    -0.387 OA
ATOM     31  H   LIG A   1      -8.478   0.381 126.380  0.00  0.00    +0.210 HD
ENDBRANCH   5  30
BRANCH   4  32
ATOM     32  O   LIG A   1      -7.450   0.286 129.757  0.00  0.00    -0.387 OA
ATOM     33  H   LIG A   1      -6.823   0.933 130.129  0.00  0.00    +0.210 HD
ENDBRANCH   4  32
BRANCH   6  34
ATOM     34  O   LIG A   1      -7.562   3.970 127.675  0.00  0.00    -0.386 OA
ATOM     35  H   LIG A   1      -7.537   4.366 126.785  0.00  0.00    +0.210 HD
ENDBRANCH   6  34
BRANCH   3  36
ATOM     36  C   LIG A   1      -5.511  -0.379 126.600  0.00  0.00    +0.197 C 
BRANCH  36  37
ATOM     37  O   LIG A   1      -6.702  -0.866 125.969  0.00  0.00    -0.346 OA
BRANCH  37  38
ATOM     38  C   LIG A   1      -6.702  -0.630 124.549  0.00  0.00    +0.282 C 
ATOM     39  O   LIG A   1      -7.244   0.665 124.279  0.00  0.00    -0.341 OA
ATOM     40  C   LIG A   1      -8.122   0.728 123.148  0.00  0.00    +0.178 C 
ATOM     41  C   LIG A   1      -9.351  -0.137 123.451  0.00  0.00    +0.177 C 
ATOM     42  C   LIG A   1      -8.947  -1.604 123.701  0.00  0.00    +0.179 C 
ATOM     43  C   LIG A   1      -7.426  -1.812 123.847  0.00  0.00    +0.201 C 
BRANCH  42  44
ATOM     44  O   LIG A   1      -9.684  -2.079 124.838  0.00  0.00    -0.386 OA
ATOM     45  H   LIG A   1     -10.585  -1.714 124.808  0.00  0.00    +0.210 HD
ENDBRANCH  42  44
BRANCH  41  46
ATOM     46  O   LIG A   1     -10.332  -0.066 122.407  0.00  0.00    -0.387 OA
ATOM     47  H   LIG A   1     -10.325   0.856 122.086  0.00  0.00    +0.210 HD
ENDBRANCH  41  46
BRANCH  43  48
ATOM     48  O   LIG A   1      -6.859  -1.982 122.529  0.00  0.00    -0.384 OA
ATOM     49  H   LIG A   1      -6.260  -2.750 122.551  0.00  0.00    +0.210 HD
ENDBRANCH  43  48
BRANCH  40  50
ATOM     50  C   LIG A   1      -8.487   2.205 122.911  0.00  0.00    +0.190 C 
BRANCH  50  51
ATOM     51  O   LIG A   1      -9.458   2.712 123.818  0.00  0.00    -0.392 OA
ATOM     52  H   LIG A   1      -8.964   3.148 124.541  0.00  0.00    +0.209 HD
ENDBRANCH  50  51
ENDBRANCH  40  50
ENDBRANCH  37  38
ENDBRANCH  36  37
ENDBRANCH   3  36
TORSDOF 16
ENDMDL
MODEL 7
REMARK VINA RESULT:      -7.8      4.036      8.270
REMARK  Name = NuBBE_63
REMARK  16 active torsions:
REMARK  status: ('A' for Active; 'I' for Inactive)
REMARK    1  A    between atoms: O_1  and  C_2
REMARK    2  A    between atoms: C_5  and  C_6
REMARK    3  A    between atoms: C_10  and  O_49
REMARK    4  A    between atoms: C_12  and  O_48
REMARK    5  A    between atoms: C_13  and  C_14
REMARK    6  A    between atoms: C_17  and  C_25
REMARK    7  A    between atoms: C_19  and  O_24
REMARK    8  A    between atoms: C_21  and  O_23
REMARK    9  A    between atoms: C_25  and  O_26
REMARK   10  A    between atoms: O_26  and  C_27
REMARK   11  A    between atoms: C_30  and  C_38
REMARK   12  A    between atoms: C_32  and  O_37
REMARK   13  A    between atoms: C_34  and  O_36
REMARK   14  A    between atoms: C_38  and  O_39
REMARK   15  A    between atoms: C_40  and  O_42
REMARK   16  A    between atoms: C_43  and  O_45
REMARK                            x       y       z     vdW  Elec       q    Type
REMARK                         _______ _______ _______ _____ _____    ______ ____
ROOT
ATOM      1  C   LIG A   1      -5.546   3.087 126.505  0.00  0.00    +0.187 C 
ATOM      2  O   LIG A   1      -4.884   2.451 127.627  0.00  0.00    -0.361 OA
ATOM      3  C   LIG A   1      -3.625   3.032 128.034  0.00  0.00    +0.176 C 
ATOM      4  C   LIG A   1      -3.101   4.160 127.127  0.00  0.00    +0.176 C 
ATOM      5  C   LIG A   1      -4.187   5.176 126.745  0.00  0.00    +0.177 C 
ATOM      6  C   LIG A   1      -5.615   4.597 126.783  0.00  0.00    +0.179 C 
ENDROOT
BRANCH   1  14
ATOM      7  C   LIG A   1      -7.146   2.396 122.684  0.00  0.00    +0.211 C 
ATOM      8  C   LIG A   1      -8.636   2.193 122.447  0.00  0.00    +0.129 C 
ATOM      9  C   LIG A   1      -9.179   1.291 123.512  0.00  0.00    +0.174 C 
ATOM     10  C   LIG A   1      -8.630   1.489 124.868  0.00  0.00    +0.101 A 
ATOM     11  C   LIG A   1      -9.292   0.948 125.976  0.00  0.00    +0.134 A 
ATOM     12  C   LIG A   1      -8.811   1.187 127.255  0.00  0.00    +0.092 A 
ATOM     13  C   LIG A   1      -7.630   1.905 127.423  0.00  0.00    +0.130 A 
ATOM     14  C   LIG A   1      -6.908   2.420 126.330  0.00  0.00    +0.068 A 
ATOM     15  C   LIG A   1      -7.465   2.251 125.039  0.00  0.00    +0.145 A 
ATOM     16  O   LIG A   1      -6.858   2.912 123.995  0.00  0.00    -0.482 OA
ATOM     17  O   LIG A   1     -10.078   0.497 123.319  0.00  0.00    -0.292 OA
BRANCH   7  21
ATOM     18  C   LIG A   1      -5.601   5.218 119.780  0.00  0.00    +0.117 A 
ATOM     19  C   LIG A   1      -4.852   4.930 120.914  0.00  0.00    +0.046 A 
ATOM     20  C   LIG A   1      -5.333   3.997 121.841  0.00  0.00    +0.011 A 
ATOM     21  C   LIG A   1      -6.572   3.357 121.649  0.00  0.00    -0.007 A 
ATOM     22  C   LIG A   1      -7.298   3.652 120.484  0.00  0.00    +0.011 A 
ATOM     23  C   LIG A   1      -6.812   4.576 119.552  0.00  0.00    +0.046 A 
BRANCH  18  24
ATOM     24  O   LIG A   1      -5.185   6.133 118.859  0.00  0.00    -0.507 OA
ATOM     25  H   LIG A   1      -4.306   5.874 118.537  0.00  0.00    +0.292 HD
ENDBRANCH  18  24
ENDBRANCH   7  21
BRANCH  13  26
ATOM     26  O   LIG A   1      -7.213   2.064 128.717  0.00  0.00    -0.506 OA
ATOM     27  H   LIG A   1      -7.619   2.888 129.059  0.00  0.00    +0.292 HD
ENDBRANCH  13  26
BRANCH  11  28
ATOM     28  O   LIG A   1     -10.432   0.197 125.878  0.00  0.00    -0.506 OA
ATOM     29  H   LIG A   1     -11.016   0.420 126.638  0.00  0.00    +0.292 HD
ENDBRANCH  11  28
ENDBRANCH   1  14
BRANCH   5  30
ATOM     30  O   LIG A   1      -4.115   6.328 127.599  0.00  0.00    -0.387 OA
ATOM     31  H   LIG A   1      -3.436   6.901 127.198  0.00  0.00    +0.210 HD
ENDBRANCH   5  30
BRANCH   4  32
ATOM     32  O   LIG A   1      -2.589   3.549 125.924  0.00  0.00    -0.387 OA
ATOM     33  H   LIG A   1      -2.564   2.586 126.073  0.00  0.00    +0.210 HD
ENDBRANCH   4  32
BRANCH   6  34
ATOM     34  O   LIG A   1      -6.413   5.364 125.875  0.00  0.00    -0.386 OA
ATOM     35  H   LIG A   1      -7.330   5.327 126.204  0.00  0.00    +0.210 HD
ENDBRANCH   6  34
BRANCH   3  36
ATOM     36  C   LIG A   1      -3.697   3.461 129.520  0.00  0.00    +0.197 C 
BRANCH  36  37
ATOM     37  O   LIG A   1      -2.889   4.611 129.793  0.00  0.00    -0.346 OA
BRANCH  37  38
ATOM     38  C   LIG A   1      -2.988   5.035 131.165  0.00  0.00    +0.282 C 
ATOM     39  O   LIG A   1      -3.730   4.068 131.912  0.00  0.00    -0.341 OA
ATOM     40  C   LIG A   1      -4.657   4.617 132.857  0.00  0.00    +0.178 C 
ATOM     41  C   LIG A   1      -5.729   5.391 132.078  0.00  0.00    +0.177 C 
ATOM     42  C   LIG A   1      -5.098   6.535 131.259  0.00  0.00    +0.179 C 
ATOM     43  C   LIG A   1      -3.558   6.481 131.201  0.00  0.00    +0.201 C 
BRANCH  42  44
ATOM     44  O   LIG A   1      -5.704   6.534 129.957  0.00  0.00    -0.386 OA
ATOM     45  H   LIG A   1      -5.927   7.447 129.710  0.00  0.00    +0.210 HD
ENDBRANCH  42  44
BRANCH  41  46
ATOM     46  O   LIG A   1      -6.754   5.905 132.938  0.00  0.00    -0.387 OA
ATOM     47  H   LIG A   1      -7.516   6.111 132.364  0.00  0.00    +0.210 HD
ENDBRANCH  41  46
BRANCH  43  48
ATOM     48  O   LIG A   1      -3.031   7.154 132.366  0.00  0.00    -0.384 OA
ATOM     49  H   LIG A   1      -3.753   7.256 133.012  0.00  0.00    +0.210 HD
ENDBRANCH  43  48
BRANCH  40  50
ATOM     50  C   LIG A   1      -5.251   3.454 133.672  0.00  0.00    +0.190 C 
BRANCH  50  51
ATOM     51  O   LIG A   1      -4.352   2.369 133.869  0.00  0.00    -0.392 OA
ATOM     52  H   LIG A   1      -4.316   2.208 134.834  0.00  0.00    +0.209 HD
ENDBRANCH  50  51
ENDBRANCH  40  50
ENDBRANCH  37  38
ENDBRANCH  36  37
ENDBRANCH   3  36
TORSDOF 16
ENDMDL
MODEL 8
REMARK VINA RESULT:      -7.6      1.391      2.038
REMARK  Name = NuBBE_63
REMARK  16 active torsions:
REMARK  status: ('A' for Active; 'I' for Inactive)
REMARK    1  A    between atoms: O_1  and  C_2
REMARK    2  A    between atoms: C_5  and  C_6
REMARK    3  A    between atoms: C_10  and  O_49
REMARK    4  A    between atoms: C_12  and  O_48
REMARK    5  A    between atoms: C_13  and  C_14
REMARK    6  A    between atoms: C_17  and  C_25
REMARK    7  A    between atoms: C_19  and  O_24
REMARK    8  A    between atoms: C_21  and  O_23
REMARK    9  A    between atoms: C_25  and  O_26
REMARK   10  A    between atoms: O_26  and  C_27
REMARK   11  A    between atoms: C_30  and  C_38
REMARK   12  A    between atoms: C_32  and  O_37
REMARK   13  A    between atoms: C_34  and  O_36
REMARK   14  A    between atoms: C_38  and  O_39
REMARK   15  A    between atoms: C_40  and  O_42
REMARK   16  A    between atoms: C_43  and  O_45
REMARK                            x       y       z     vdW  Elec       q    Type
REMARK                         _______ _______ _______ _____ _____    ______ ____
ROOT
ATOM      1  C   LIG A   1      -7.299   3.451 128.478  0.00  0.00    +0.187 C 
ATOM      2  O   LIG A   1      -7.472   2.136 127.893  0.00  0.00    -0.361 OA
ATOM      3  C   LIG A   1      -7.486   2.080 126.449  0.00  0.00    +0.176 C 
ATOM      4  C   LIG A   1      -7.453   3.447 125.741  0.00  0.00    +0.176 C 
ATOM      5  C   LIG A   1      -6.416   4.407 126.339  0.00  0.00    +0.177 C 
ATOM      6  C   LIG A   1      -6.081   4.113 127.815  0.00  0.00    +0.179 C 
ENDROOT
BRANCH   1  14
ATOM      7  C   LIG A   1     -10.059   5.208 131.111  0.00  0.00    +0.211 C 
ATOM      8  C   LIG A   1      -9.736   5.473 132.574  0.00  0.00    +0.129 C 
ATOM      9  C   LIG A   1      -9.022   4.284 133.139  0.00  0.00    +0.174 C 
ATOM     10  C   LIG A   1      -8.054   3.625 132.239  0.00  0.00    +0.101 A 
ATOM     11  C   LIG A   1      -7.108   2.737 132.760  0.00  0.00    +0.134 A 
ATOM     12  C   LIG A   1      -6.159   2.166 131.925  0.00  0.00    +0.092 A 
ATOM     13  C   LIG A   1      -6.199   2.427 130.558  0.00  0.00    +0.130 A 
ATOM     14  C   LIG A   1      -7.169   3.274 129.989  0.00  0.00    +0.068 A 
ATOM     15  C   LIG A   1      -8.068   3.924 130.869  0.00  0.00    +0.145 A 
ATOM     16  O   LIG A   1      -8.891   4.889 130.334  0.00  0.00    -0.482 OA
ATOM     17  O   LIG A   1      -9.146   3.915 134.289  0.00  0.00    -0.292 OA
BRANCH   7  21
ATOM     18  C   LIG A   1     -12.013   8.593 129.239  0.00  0.00    +0.117 A 
ATOM     19  C   LIG A   1     -12.630   7.958 130.311  0.00  0.00    +0.046 A 
ATOM     20  C   LIG A   1     -11.989   6.882 130.938  0.00  0.00    +0.011 A 
ATOM     21  C   LIG A   1     -10.737   6.424 130.489  0.00  0.00    -0.007 A 
ATOM     22  C   LIG A   1     -10.127   7.098 129.418  0.00  0.00    +0.011 A 
ATOM     23  C   LIG A   1     -10.763   8.180 128.799  0.00  0.00    +0.046 A 
BRANCH  18  24
ATOM     24  O   LIG A   1     -12.606   9.631 128.584  0.00  0.00    -0.507 OA
ATOM     25  H   LIG A   1     -12.796  10.337 129.224  0.00  0.00    +0.292 HD
ENDBRANCH  18  24
ENDBRANCH   7  21
BRANCH  13  26
ATOM     26  O   LIG A   1      -5.246   1.796 129.806  0.00  0.00    -0.506 OA
ATOM     27  H   LIG A   1      -5.537   0.870 129.676  0.00  0.00    +0.292 HD
ENDBRANCH  13  26
BRANCH  11  28
ATOM     28  O   LIG A   1      -7.039   2.404 134.086  0.00  0.00    -0.506 OA
ATOM     29  H   LIG A   1      -7.692   2.952 134.578  0.00  0.00    +0.292 HD
ENDBRANCH  11  28
ENDBRANCH   1  14
BRANCH   5  30
ATOM     30  O   LIG A   1      -5.209   4.387 125.561  0.00  0.00    -0.387 OA
ATOM     31  H   LIG A   1      -4.487   4.490 126.207  0.00  0.00    +0.210 HD
ENDBRANCH   5  30
BRANCH   4  32
ATOM     32  O   LIG A   1      -8.764   4.036 125.870  0.00  0.00    -0.387 OA
ATOM     33  H   LIG A   1      -9.160   4.066 124.980  0.00  0.00    +0.210 HD
ENDBRANCH   4  32
BRANCH   6  34
ATOM     34  O   LIG A   1      -5.636   5.338 128.406  0.00  0.00    -0.386 OA
ATOM     35  H   LIG A   1      -4.894   5.661 127.864  0.00  0.00    +0.210 HD
ENDBRANCH   6  34
BRANCH   3  36
ATOM     36  C   LIG A   1      -6.370   1.133 125.946  0.00  0.00    +0.197 C 
BRANCH  36  37
ATOM     37  O   LIG A   1      -6.806  -0.230 125.873  0.00  0.00    -0.346 OA
BRANCH  37  38
ATOM     38  C   LIG A   1      -6.915  -0.696 124.516  0.00  0.00    +0.282 C 
ATOM     39  O   LIG A   1      -8.155  -0.256 123.957  0.00  0.00    -0.341 OA
ATOM     40  C   LIG A   1      -8.833  -1.229 123.150  0.00  0.00    +0.178 C 
ATOM     41  C   LIG A   1      -9.225  -2.405 124.053  0.00  0.00    +0.177 C 
ATOM     42  C   LIG A   1      -7.979  -3.051 124.692  0.00  0.00    +0.179 C 
ATOM     43  C   LIG A   1      -6.686  -2.233 124.496  0.00  0.00    +0.201 C 
BRANCH  42  44
ATOM     44  O   LIG A   1      -8.271  -3.305 126.075  0.00  0.00    -0.386 OA
ATOM     45  H   LIG A   1      -7.730  -4.052 126.383  0.00  0.00    +0.210 HD
ENDBRANCH  42  44
BRANCH  41  46
ATOM     46  O   LIG A   1      -9.989  -3.394 123.350  0.00  0.00    -0.387 OA
ATOM     47  H   LIG A   1     -10.892  -3.035 123.266  0.00  0.00    +0.210 HD
ENDBRANCH  41  46
BRANCH  43  48
ATOM     48  O   LIG A   1      -6.103  -2.596 123.225  0.00  0.00    -0.384 OA
ATOM     49  H   LIG A   1      -5.174  -2.305 123.221  0.00  0.00    +0.210 HD
ENDBRANCH  43  48
BRANCH  40  50
ATOM     50  C   LIG A   1     -10.056  -0.548 122.510  0.00  0.00    +0.190 C 
BRANCH  50  51
ATOM     51  O   LIG A   1     -10.373   0.718 123.075  0.00  0.00    -0.392 OA
ATOM     52  H   LIG A   1     -11.141   0.576 123.666  0.00  0.00    +0.209 HD
ENDBRANCH  50  51
ENDBRANCH  40  50
ENDBRANCH  37  38
ENDBRANCH  36  37
ENDBRANCH   3  36
TORSDOF 16
ENDMDL
MODEL 9
REMARK VINA RESULT:      -7.6      3.786      7.954
REMARK  Name = NuBBE_63
REMARK  16 active torsions:
REMARK  status: ('A' for Active; 'I' for Inactive)
REMARK    1  A    between atoms: O_1  and  C_2
REMARK    2  A    between atoms: C_5  and  C_6
REMARK    3  A    between atoms: C_10  and  O_49
REMARK    4  A    between atoms: C_12  and  O_48
REMARK    5  A    between atoms: C_13  and  C_14
REMARK    6  A    between atoms: C_17  and  C_25
REMARK    7  A    between atoms: C_19  and  O_24
REMARK    8  A    between atoms: C_21  and  O_23
REMARK    9  A    between atoms: C_25  and  O_26
REMARK   10  A    between atoms: O_26  and  C_27
REMARK   11  A    between atoms: C_30  and  C_38
REMARK   12  A    between atoms: C_32  and  O_37
REMARK   13  A    between atoms: C_34  and  O_36
REMARK   14  A    between atoms: C_38  and  O_39
REMARK   15  A    between atoms: C_40  and  O_42
REMARK   16  A    between atoms: C_43  and  O_45
REMARK                            x       y       z     vdW  Elec       q    Type
REMARK                         _______ _______ _______ _____ _____    ______ ____
ROOT
ATOM      1  C   LIG A   1      -5.690   3.071 126.552  0.00  0.00    +0.187 C 
ATOM      2  O   LIG A   1      -5.093   2.498 127.743  0.00  0.00    -0.361 OA
ATOM      3  C   LIG A   1      -3.862   3.108 128.193  0.00  0.00    +0.176 C 
ATOM      4  C   LIG A   1      -3.290   4.192 127.260  0.00  0.00    +0.176 C 
ATOM      5  C   LIG A   1      -4.355   5.179 126.764  0.00  0.00    +0.177 C 
ATOM      6  C   LIG A   1      -5.781   4.592 126.748  0.00  0.00    +0.179 C 
ENDROOT
BRANCH   1  14
ATOM      7  C   LIG A   1      -7.157   2.369 122.680  0.00  0.00    +0.211 C 
ATOM      8  C   LIG A   1      -8.636   2.147 122.396  0.00  0.00    +0.129 C 
ATOM      9  C   LIG A   1      -9.201   1.235 123.441  0.00  0.00    +0.174 C 
ATOM     10  C   LIG A   1      -8.698   1.436 124.815  0.00  0.00    +0.101 A 
ATOM     11  C   LIG A   1      -9.387   0.884 125.899  0.00  0.00    +0.134 A 
ATOM     12  C   LIG A   1      -8.951   1.125 127.194  0.00  0.00    +0.092 A 
ATOM     13  C   LIG A   1      -7.786   1.859 127.401  0.00  0.00    +0.130 A 
ATOM     14  C   LIG A   1      -7.037   2.387 126.332  0.00  0.00    +0.068 A 
ATOM     15  C   LIG A   1      -7.550   2.213 125.024  0.00  0.00    +0.145 A 
ATOM     16  O   LIG A   1      -6.919   2.885 124.002  0.00  0.00    -0.482 OA
ATOM     17  O   LIG A   1     -10.083   0.429 123.217  0.00  0.00    -0.292 OA
BRANCH   7  21
ATOM     18  C   LIG A   1      -5.559   5.219 119.835  0.00  0.00    +0.117 A 
ATOM     19  C   LIG A   1      -4.838   4.931 120.987  0.00  0.00    +0.046 A 
ATOM     20  C   LIG A   1      -5.336   3.989 121.896  0.00  0.00    +0.011 A 
ATOM     21  C   LIG A   1      -6.564   3.341 121.667  0.00  0.00    -0.007 A 
ATOM     22  C   LIG A   1      -7.260   3.635 120.484  0.00  0.00    +0.011 A 
ATOM     23  C   LIG A   1      -6.757   4.568 119.571  0.00  0.00    +0.046 A 
BRANCH  18  24
ATOM     24  O   LIG A   1      -5.126   6.142 118.930  0.00  0.00    -0.507 OA
ATOM     25  H   LIG A   1      -5.887   6.665 118.629  0.00  0.00    +0.292 HD
ENDBRANCH  18  24
ENDBRANCH   7  21
BRANCH  13  26
ATOM     26  O   LIG A   1      -7.413   2.020 128.707  0.00  0.00    -0.506 OA
ATOM     27  H   LIG A   1      -8.111   1.620 129.266  0.00  0.00    +0.292 HD
ENDBRANCH  13  26
BRANCH  11  28
ATOM     28  O   LIG A   1     -10.514   0.118 125.764  0.00  0.00    -0.506 OA
ATOM     29  H   LIG A   1     -11.292   0.718 125.703  0.00  0.00    +0.292 HD
ENDBRANCH  11  28
ENDBRANCH   1  14
BRANCH   5  30
ATOM     30  O   LIG A   1      -4.338   6.374 127.559  0.00  0.00    -0.387 OA
ATOM     31  H   LIG A   1      -3.834   6.141 128.360  0.00  0.00    +0.210 HD
ENDBRANCH   5  30
BRANCH   4  32
ATOM     32  O   LIG A   1      -2.706   3.523 126.122  0.00  0.00    -0.387 OA
ATOM     33  H   LIG A   1      -2.807   2.564 126.263  0.00  0.00    +0.210 HD
ENDBRANCH   4  32
BRANCH   6  34
ATOM     34  O   LIG A   1      -6.528   5.306 125.756  0.00  0.00    -0.386 OA
ATOM     35  H   LIG A   1      -7.163   5.870 126.232  0.00  0.00    +0.210 HD
ENDBRANCH   6  34
BRANCH   3  36
ATOM     36  C   LIG A   1      -4.023   3.612 129.647  0.00  0.00    +0.197 C 
BRANCH  36  37
ATOM     37  O   LIG A   1      -5.383   3.934 129.963  0.00  0.00    -0.346 OA
BRANCH  37  38
ATOM     38  C   LIG A   1      -5.557   4.264 131.353  0.00  0.00    +0.282 C 
ATOM     39  O   LIG A   1      -4.379   3.908 132.080  0.00  0.00    -0.341 OA
ATOM     40  C   LIG A   1      -4.619   3.307 133.360  0.00  0.00    +0.178 C 
ATOM     41  C   LIG A   1      -5.337   1.971 133.131  0.00  0.00    +0.177 C 
ATOM     42  C   LIG A   1      -6.683   2.184 132.407  0.00  0.00    +0.179 C 
ATOM     43  C   LIG A   1      -6.873   3.613 131.860  0.00  0.00    +0.201 C 
BRANCH  42  44
ATOM     44  O   LIG A   1      -6.802   1.178 131.389  0.00  0.00    -0.386 OA
ATOM     45  H   LIG A   1      -7.732   0.907 131.317  0.00  0.00    +0.210 HD
ENDBRANCH  42  44
BRANCH  41  46
ATOM     46  O   LIG A   1      -5.543   1.252 134.355  0.00  0.00    -0.387 OA
ATOM     47  H   LIG A   1      -4.820   1.518 134.954  0.00  0.00    +0.210 HD
ENDBRANCH  41  46
BRANCH  43  48
ATOM     48  O   LIG A   1      -7.420   4.437 132.912  0.00  0.00    -0.384 OA
ATOM     49  H   LIG A   1      -8.274   4.057 133.186  0.00  0.00    +0.210 HD
ENDBRANCH  43  48
BRANCH  40  50
ATOM     50  C   LIG A   1      -3.262   3.129 134.064  0.00  0.00    +0.190 C 
BRANCH  50  51
ATOM     51  O   LIG A   1      -3.366   2.752 135.431  0.00  0.00    -0.392 OA
ATOM     52  H   LIG A   1      -3.430   1.775 135.448  0.00  0.00    +0.209 HD
ENDBRANCH  50  51
ENDBRANCH  40  50
ENDBRANCH  37  38
ENDBRANCH  36  37
ENDBRANCH   3  36
TORSDOF 16
ENDMDL
