MODEL 1
REMARK VINA RESULT:      -8.3      0.000      0.000
REMARK  Name = NuBBE_2244
REMARK  6 active torsions:
REMARK  status: ('A' for Active; 'I' for Inactive)
REMARK    1  A    between atoms: C_1  and  C_2
REMARK    2  A    between atoms: C_2  and  C_3
REMARK    3  A    between atoms: C_13  and  C_14
REMARK    4  A    between atoms: C_15  and  O_17
REMARK    5  A    between atoms: C_19  and  C_20
REMARK    6  A    between atoms: C_19  and  C_21
REMARK                            x       y       z     vdW  Elec       q    Type
REMARK                         _______ _______ _______ _____ _____    ______ ____
ROOT
ATOM      1  C   LIG A   1      -9.374  -3.204 124.215  0.00  0.00    +0.018 C 
ATOM      2  C   LIG A   1      -7.946  -3.247 124.814  0.00  0.00    +0.018 C 
ATOM      3  C   LIG A   1      -7.432  -4.701 124.675  0.00  0.00    +0.018 C 
ATOM      4  C   LIG A   1      -6.968  -2.346 124.025  0.00  0.00    -0.068 C 
ATOM      5  C   LIG A   1      -5.659  -2.095 124.731  0.00  0.00    +0.034 C 
ATOM      6  C   LIG A   1      -5.851  -1.327 126.037  0.00  0.00    +0.043 C 
ATOM      7  C   LIG A   1      -6.915  -1.923 126.939  0.00  0.00    +0.108 C 
ATOM      8  O   LIG A   1      -8.233  -1.468 126.518  0.00  0.00    -0.360 OA
ATOM      9  C   LIG A   1      -8.007  -2.858 126.321  0.00  0.00    +0.108 C 
ATOM     10  C   LIG A   1      -8.863  -3.720 127.224  0.00  0.00    +0.039 C 
ATOM     11  C   LIG A   1      -8.809  -3.337 128.698  0.00  0.00    +0.007 C 
ATOM     12  C   LIG A   1      -7.361  -3.098 129.135  0.00  0.00    +0.001 C 
ATOM     13  C   LIG A   1      -6.755  -1.800 128.501  0.00  0.00    +0.029 C 
ATOM     14  C   LIG A   1      -7.471  -0.503 128.973  0.00  0.00    +0.017 C 
ATOM     15  C   LIG A   1      -5.257  -1.737 128.976  0.00  0.00    +0.124 C 
ATOM     16  C   LIG A   1      -5.078  -1.851 130.503  0.00  0.00    +0.042 C 
ATOM     17  C   LIG A   1      -5.785  -3.047 131.171  0.00  0.00    -0.012 C 
ATOM     18  C   LIG A   1      -5.826  -2.788 132.695  0.00  0.00    +0.015 C 
ATOM     19  C   LIG A   1      -7.244  -3.137 130.667  0.00  0.00    +0.015 C 
ATOM     20  C   LIG A   1      -7.200  -1.776 122.829  0.00  0.00    +0.008 C 
ENDROOT
BRANCH  15  21
ATOM     21  O   LIG A   1      -4.654  -0.489 128.609  0.00  0.00    -0.391 OA
ATOM     22  H   LIG A   1      -4.824   0.145 129.328  0.00  0.00    +0.210 HD
ENDBRANCH  15  21
BRANCH  17  23
ATOM     23  C   LIG A   1      -5.030  -4.333 130.826  0.00  0.00    -0.028 C 
ATOM     24  C   LIG A   1      -5.428  -5.598 131.026  0.00  0.00    +0.004 C 
ENDBRANCH  17  23
TORSDOF 2
ENDMDL
MODEL 2
REMARK VINA RESULT:      -8.1      3.907      6.197
REMARK  Name = NuBBE_2244
REMARK  6 active torsions:
REMARK  status: ('A' for Active; 'I' for Inactive)
REMARK    1  A    between atoms: C_1  and  C_2
REMARK    2  A    between atoms: C_2  and  C_3
REMARK    3  A    between atoms: C_13  and  C_14
REMARK    4  A    between atoms: C_15  and  O_17
REMARK    5  A    between atoms: C_19  and  C_20
REMARK    6  A    between atoms: C_19  and  C_21
REMARK                            x       y       z     vdW  Elec       q    Type
REMARK                         _______ _______ _______ _____ _____    ______ ____
ROOT
ATOM      1  C   LIG A   1      -7.134  -3.661 124.559  0.00  0.00    +0.018 C 
ATOM      2  C   LIG A   1      -7.384  -2.320 123.826  0.00  0.00    +0.018 C 
ATOM      3  C   LIG A   1      -6.419  -2.269 122.616  0.00  0.00    +0.018 C 
ATOM      4  C   LIG A   1      -8.820  -2.236 123.260  0.00  0.00    -0.068 C 
ATOM      5  C   LIG A   1      -9.228  -0.852 122.820  0.00  0.00    +0.034 C 
ATOM      6  C   LIG A   1      -9.264   0.131 123.987  0.00  0.00    +0.043 C 
ATOM      7  C   LIG A   1      -8.004   0.117 124.832  0.00  0.00    +0.108 C 
ATOM      8  O   LIG A   1      -8.066  -0.975 125.794  0.00  0.00    -0.360 OA
ATOM      9  C   LIG A   1      -7.071  -1.139 124.792  0.00  0.00    +0.108 C 
ATOM     10  C   LIG A   1      -5.666  -1.054 125.349  0.00  0.00    +0.039 C 
ATOM     11  C   LIG A   1      -5.405   0.172 126.217  0.00  0.00    +0.007 C 
ATOM     12  C   LIG A   1      -5.963   1.430 125.546  0.00  0.00    +0.001 C 
ATOM     13  C   LIG A   1      -7.529   1.448 125.526  0.00  0.00    +0.029 C 
ATOM     14  C   LIG A   1      -8.152   1.516 126.949  0.00  0.00    +0.017 C 
ATOM     15  C   LIG A   1      -7.944   2.747 124.743  0.00  0.00    +0.124 C 
ATOM     16  C   LIG A   1      -7.292   4.038 125.280  0.00  0.00    +0.042 C 
ATOM     17  C   LIG A   1      -5.760   3.995 125.441  0.00  0.00    -0.012 C 
ATOM     18  C   LIG A   1      -5.340   5.188 126.331  0.00  0.00    +0.015 C 
ATOM     19  C   LIG A   1      -5.349   2.694 126.168  0.00  0.00    +0.015 C 
ATOM     20  C   LIG A   1      -9.698  -3.252 123.163  0.00  0.00    +0.008 C 
ENDROOT
BRANCH  15  21
ATOM     21  O   LIG A   1      -9.359   2.967 124.825  0.00  0.00    -0.391 OA
ATOM     22  H   LIG A   1      -9.501   3.828 125.257  0.00  0.00    +0.210 HD
ENDBRANCH  15  21
BRANCH  17  23
ATOM     23  C   LIG A   1      -5.108   4.051 124.057  0.00  0.00    -0.028 C 
ATOM     24  C   LIG A   1      -5.710   4.228 122.872  0.00  0.00    +0.004 C 
ENDBRANCH  17  23
TORSDOF 2
ENDMDL
MODEL 3
REMARK VINA RESULT:      -7.9      1.548      6.099
REMARK  Name = NuBBE_2244
REMARK  6 active torsions:
REMARK  status: ('A' for Active; 'I' for Inactive)
REMARK    1  A    between atoms: C_1  and  C_2
REMARK    2  A    between atoms: C_2  and  C_3
REMARK    3  A    between atoms: C_13  and  C_14
REMARK    4  A    between atoms: C_15  and  O_17
REMARK    5  A    between atoms: C_19  and  C_20
REMARK    6  A    between atoms: C_19  and  C_21
REMARK                            x       y       z     vdW  Elec       q    Type
REMARK                         _______ _______ _______ _____ _____    ______ ____
ROOT
ATOM      1  C   LIG A   1      -5.921  -0.103 131.259  0.00  0.00    +0.018 C 
ATOM      2  C   LIG A   1      -5.935  -1.399 130.411  0.00  0.00    +0.018 C 
ATOM      3  C   LIG A   1      -4.515  -2.011 130.481  0.00  0.00    +0.018 C 
ATOM      4  C   LIG A   1      -6.909  -2.451 130.990  0.00  0.00    -0.068 C 
ATOM      5  C   LIG A   1      -7.208  -3.594 130.053  0.00  0.00    +0.034 C 
ATOM      6  C   LIG A   1      -7.927  -3.124 128.790  0.00  0.00    +0.043 C 
ATOM      7  C   LIG A   1      -7.250  -1.950 128.108  0.00  0.00    +0.108 C 
ATOM      8  O   LIG A   1      -7.647  -0.707 128.755  0.00  0.00    -0.360 OA
ATOM      9  C   LIG A   1      -6.277  -1.043 128.933  0.00  0.00    +0.108 C 
ATOM     10  C   LIG A   1      -5.346  -0.088 128.218  0.00  0.00    +0.039 C 
ATOM     11  C   LIG A   1      -5.689   0.148 126.752  0.00  0.00    +0.007 C 
ATOM     12  C   LIG A   1      -5.991  -1.181 126.054  0.00  0.00    +0.001 C 
ATOM     13  C   LIG A   1      -7.336  -1.818 126.541  0.00  0.00    +0.029 C 
ATOM     14  C   LIG A   1      -8.579  -0.955 126.184  0.00  0.00    +0.017 C 
ATOM     15  C   LIG A   1      -7.464  -3.198 125.800  0.00  0.00    +0.124 C 
ATOM     16  C   LIG A   1      -7.315  -3.104 124.268  0.00  0.00    +0.042 C 
ATOM     17  C   LIG A   1      -6.066  -2.356 123.764  0.00  0.00    -0.012 C 
ATOM     18  C   LIG A   1      -6.278  -2.025 122.268  0.00  0.00    +0.015 C 
ATOM     19  C   LIG A   1      -5.913  -1.020 124.527  0.00  0.00    +0.015 C 
ATOM     20  C   LIG A   1      -7.500  -2.408 132.198  0.00  0.00    +0.008 C 
ENDROOT
BRANCH  15  21
ATOM     21  O   LIG A   1      -8.752  -3.786 126.027  0.00  0.00    -0.391 OA
ATOM     22  H   LIG A   1      -9.320  -3.108 126.434  0.00  0.00    +0.210 HD
ENDBRANCH  15  21
BRANCH  17  23
ATOM     23  C   LIG A   1      -4.831  -3.233 123.989  0.00  0.00    -0.028 C 
ATOM     24  C   LIG A   1      -4.660  -4.517 123.641  0.00  0.00    +0.004 C 
ENDBRANCH  17  23
TORSDOF 2
ENDMDL
MODEL 4
REMARK VINA RESULT:      -7.8      7.243      9.754
REMARK  Name = NuBBE_2244
REMARK  6 active torsions:
REMARK  status: ('A' for Active; 'I' for Inactive)
REMARK    1  A    between atoms: C_1  and  C_2
REMARK    2  A    between atoms: C_2  and  C_3
REMARK    3  A    between atoms: C_13  and  C_14
REMARK    4  A    between atoms: C_15  and  O_17
REMARK    5  A    between atoms: C_19  and  C_20
REMARK    6  A    between atoms: C_19  and  C_21
REMARK                            x       y       z     vdW  Elec       q    Type
REMARK                         _______ _______ _______ _____ _____    ______ ____
ROOT
ATOM      1  C   LIG A   1      -2.261   5.747 130.022  0.00  0.00    +0.018 C 
ATOM      2  C   LIG A   1      -3.522   5.824 129.125  0.00  0.00    +0.018 C 
ATOM      3  C   LIG A   1      -3.532   7.223 128.463  0.00  0.00    +0.018 C 
ATOM      4  C   LIG A   1      -3.474   4.785 127.981  0.00  0.00    -0.068 C 
ATOM      5  C   LIG A   1      -4.791   4.590 127.273  0.00  0.00    +0.034 C 
ATOM      6  C   LIG A   1      -5.862   4.024 128.203  0.00  0.00    +0.043 C 
ATOM      7  C   LIG A   1      -5.991   4.781 129.511  0.00  0.00    +0.108 C 
ATOM      8  O   LIG A   1      -4.979   4.319 130.452  0.00  0.00    -0.360 OA
ATOM      9  C   LIG A   1      -4.793   5.657 130.009  0.00  0.00    +0.108 C 
ATOM     10  C   LIG A   1      -5.006   6.670 131.114  0.00  0.00    +0.039 C 
ATOM     11  C   LIG A   1      -6.311   6.499 131.883  0.00  0.00    +0.007 C 
ATOM     12  C   LIG A   1      -7.475   6.273 130.914  0.00  0.00    +0.001 C 
ATOM     13  C   LIG A   1      -7.400   4.877 130.208  0.00  0.00    +0.029 C 
ATOM     14  C   LIG A   1      -7.545   3.688 131.200  0.00  0.00    +0.017 C 
ATOM     15  C   LIG A   1      -8.604   4.829 129.200  0.00  0.00    +0.124 C 
ATOM     16  C   LIG A   1      -9.970   5.153 129.837  0.00  0.00    +0.042 C 
ATOM     17  C   LIG A   1     -10.031   6.457 130.657  0.00  0.00    -0.012 C 
ATOM     18  C   LIG A   1     -11.314   6.420 131.519  0.00  0.00    +0.015 C 
ATOM     19  C   LIG A   1      -8.819   6.527 131.615  0.00  0.00    +0.015 C 
ATOM     20  C   LIG A   1      -2.404   4.058 127.610  0.00  0.00    +0.008 C 
ENDROOT
BRANCH  15  21
ATOM     21  O   LIG A   1      -8.746   3.519 128.631  0.00  0.00    -0.391 OA
ATOM     22  H   LIG A   1      -7.905   3.292 128.197  0.00  0.00    +0.210 HD
ENDBRANCH  15  21
BRANCH  17  23
ATOM     23  C   LIG A   1     -10.014   7.652 129.701  0.00  0.00    -0.028 C 
ATOM     24  C   LIG A   1     -10.758   7.836 128.601  0.00  0.00    +0.004 C 
ENDBRANCH  17  23
TORSDOF 2
ENDMDL
MODEL 5
REMARK VINA RESULT:      -7.3      3.713      6.235
REMARK  Name = NuBBE_2244
REMARK  6 active torsions:
REMARK  status: ('A' for Active; 'I' for Inactive)
REMARK    1  A    between atoms: C_1  and  C_2
REMARK    2  A    between atoms: C_2  and  C_3
REMARK    3  A    between atoms: C_13  and  C_14
REMARK    4  A    between atoms: C_15  and  O_17
REMARK    5  A    between atoms: C_19  and  C_20
REMARK    6  A    between atoms: C_19  and  C_21
REMARK                            x       y       z     vdW  Elec       q    Type
REMARK                         _______ _______ _______ _____ _____    ______ ____
ROOT
ATOM      1  C   LIG A   1      -6.841   5.224 125.290  0.00  0.00    +0.018 C 
ATOM      2  C   LIG A   1      -5.853   4.033 125.226  0.00  0.00    +0.018 C 
ATOM      3  C   LIG A   1      -5.170   4.075 123.837  0.00  0.00    +0.018 C 
ATOM      4  C   LIG A   1      -4.732   4.162 126.282  0.00  0.00    -0.068 C 
ATOM      5  C   LIG A   1      -3.931   2.901 126.487  0.00  0.00    +0.034 C 
ATOM      6  C   LIG A   1      -4.787   1.763 127.037  0.00  0.00    +0.043 C 
ATOM      7  C   LIG A   1      -6.071   1.540 126.260  0.00  0.00    +0.108 C 
ATOM      8  O   LIG A   1      -7.091   2.478 126.709  0.00  0.00    -0.360 OA
ATOM      9  C   LIG A   1      -6.643   2.699 125.378  0.00  0.00    +0.108 C 
ATOM     10  C   LIG A   1      -7.713   2.408 124.348  0.00  0.00    +0.039 C 
ATOM     11  C   LIG A   1      -8.386   1.049 124.505  0.00  0.00    +0.007 C 
ATOM     12  C   LIG A   1      -7.338  -0.041 124.745  0.00  0.00    +0.001 C 
ATOM     13  C   LIG A   1      -6.660   0.083 126.152  0.00  0.00    +0.029 C 
ATOM     14  C   LIG A   1      -7.656  -0.137 127.325  0.00  0.00    +0.017 C 
ATOM     15  C   LIG A   1      -5.566  -1.043 126.214  0.00  0.00    +0.124 C 
ATOM     16  C   LIG A   1      -6.096  -2.452 125.878  0.00  0.00    +0.042 C 
ATOM     17  C   LIG A   1      -6.889  -2.570 124.563  0.00  0.00    -0.012 C 
ATOM     18  C   LIG A   1      -7.654  -3.914 124.585  0.00  0.00    +0.015 C 
ATOM     19  C   LIG A   1      -7.933  -1.433 124.479  0.00  0.00    +0.015 C 
ATOM     20  C   LIG A   1      -4.452   5.256 127.015  0.00  0.00    +0.008 C 
ENDROOT
BRANCH  15  21
ATOM     21  O   LIG A   1      -5.008  -1.146 127.532  0.00  0.00    -0.391 OA
ATOM     22  H   LIG A   1      -4.145  -1.590 127.455  0.00  0.00    +0.210 HD
ENDBRANCH  15  21
BRANCH  17  23
ATOM     23  C   LIG A   1      -5.919  -2.480 123.381  0.00  0.00    -0.028 C 
ATOM     24  C   LIG A   1      -4.773  -3.154 123.206  0.00  0.00    +0.004 C 
ENDBRANCH  17  23
TORSDOF 2
ENDMDL
MODEL 6
REMARK VINA RESULT:      -7.3      3.710      5.555
REMARK  Name = NuBBE_2244
REMARK  6 active torsions:
REMARK  status: ('A' for Active; 'I' for Inactive)
REMARK    1  A    between atoms: C_1  and  C_2
REMARK    2  A    between atoms: C_2  and  C_3
REMARK    3  A    between atoms: C_13  and  C_14
REMARK    4  A    between atoms: C_15  and  O_17
REMARK    5  A    between atoms: C_19  and  C_20
REMARK    6  A    between atoms: C_19  and  C_21
REMARK                            x       y       z     vdW  Elec       q    Type
REMARK                         _______ _______ _______ _____ _____    ______ ____
ROOT
ATOM      1  C   LIG A   1      -9.027  -2.666 126.169  0.00  0.00    +0.018 C 
ATOM      2  C   LIG A   1      -7.871  -1.961 125.415  0.00  0.00    +0.018 C 
ATOM      3  C   LIG A   1      -6.582  -2.777 125.681  0.00  0.00    +0.018 C 
ATOM      4  C   LIG A   1      -8.099  -1.965 123.886  0.00  0.00    -0.068 C 
ATOM      5  C   LIG A   1      -7.189  -1.031 123.127  0.00  0.00    +0.034 C 
ATOM      6  C   LIG A   1      -7.425   0.429 123.503  0.00  0.00    +0.043 C 
ATOM      7  C   LIG A   1      -7.427   0.678 125.000  0.00  0.00    +0.108 C 
ATOM      8  O   LIG A   1      -8.736   0.359 125.553  0.00  0.00    -0.360 OA
ATOM      9  C   LIG A   1      -7.698  -0.517 125.974  0.00  0.00    +0.108 C 
ATOM     10  C   LIG A   1      -7.381  -0.378 127.447  0.00  0.00    +0.039 C 
ATOM     11  C   LIG A   1      -7.139   1.055 127.908  0.00  0.00    +0.007 C 
ATOM     12  C   LIG A   1      -6.215   1.782 126.926  0.00  0.00    +0.001 C 
ATOM     13  C   LIG A   1      -6.908   2.059 125.550  0.00  0.00    +0.029 C 
ATOM     14  C   LIG A   1      -8.116   3.032 125.665  0.00  0.00    +0.017 C 
ATOM     15  C   LIG A   1      -5.820   2.731 124.636  0.00  0.00    +0.124 C 
ATOM     16  C   LIG A   1      -5.138   3.959 125.272  0.00  0.00    +0.042 C 
ATOM     17  C   LIG A   1      -4.569   3.748 126.688  0.00  0.00    -0.012 C 
ATOM     18  C   LIG A   1      -4.288   5.139 127.303  0.00  0.00    +0.015 C 
ATOM     19  C   LIG A   1      -5.624   3.044 127.574  0.00  0.00    +0.015 C 
ATOM     20  C   LIG A   1      -9.022  -2.683 123.221  0.00  0.00    +0.008 C 
ENDROOT
BRANCH  15  21
ATOM     21  O   LIG A   1      -6.397   3.202 123.410  0.00  0.00    -0.391 OA
ATOM     22  H   LIG A   1      -6.758   2.432 122.937  0.00  0.00    +0.210 HD
ENDBRANCH  15  21
BRANCH  17  23
ATOM     23  C   LIG A   1      -3.303   2.892 126.599  0.00  0.00    -0.028 C 
ATOM     24  C   LIG A   1      -2.028   3.306 126.631  0.00  0.00    +0.004 C 
ENDBRANCH  17  23
TORSDOF 2
ENDMDL
MODEL 7
REMARK VINA RESULT:      -6.9      5.962      8.947
REMARK  Name = NuBBE_2244
REMARK  6 active torsions:
REMARK  status: ('A' for Active; 'I' for Inactive)
REMARK    1  A    between atoms: C_1  and  C_2
REMARK    2  A    between atoms: C_2  and  C_3
REMARK    3  A    between atoms: C_13  and  C_14
REMARK    4  A    between atoms: C_15  and  O_17
REMARK    5  A    between atoms: C_19  and  C_20
REMARK    6  A    between atoms: C_19  and  C_21
REMARK                            x       y       z     vdW  Elec       q    Type
REMARK                         _______ _______ _______ _____ _____    ______ ____
ROOT
ATOM      1  C   LIG A   1      -8.368   3.097 133.090  0.00  0.00    +0.018 C 
ATOM      2  C   LIG A   1      -8.043   4.009 131.881  0.00  0.00    +0.018 C 
ATOM      3  C   LIG A   1      -9.109   3.730 130.794  0.00  0.00    +0.018 C 
ATOM      4  C   LIG A   1      -8.155   5.507 132.248  0.00  0.00    -0.068 C 
ATOM      5  C   LIG A   1      -7.552   6.437 131.225  0.00  0.00    +0.034 C 
ATOM      6  C   LIG A   1      -6.046   6.233 131.084  0.00  0.00    +0.043 C 
ATOM      7  C   LIG A   1      -5.646   4.783 130.886  0.00  0.00    +0.108 C 
ATOM      8  O   LIG A   1      -5.583   4.106 132.175  0.00  0.00    -0.360 OA
ATOM      9  C   LIG A   1      -6.631   3.650 131.330  0.00  0.00    +0.108 C 
ATOM     10  C   LIG A   1      -6.416   2.231 130.850  0.00  0.00    +0.039 C 
ATOM     11  C   LIG A   1      -5.041   1.972 130.244  0.00  0.00    +0.007 C 
ATOM     12  C   LIG A   1      -4.664   3.097 129.276  0.00  0.00    +0.001 C 
ATOM     13  C   LIG A   1      -4.378   4.448 130.015  0.00  0.00    +0.029 C 
ATOM     14  C   LIG A   1      -3.138   4.374 130.952  0.00  0.00    +0.017 C 
ATOM     15  C   LIG A   1      -4.086   5.510 128.894  0.00  0.00    +0.124 C 
ATOM     16  C   LIG A   1      -2.996   5.082 127.892  0.00  0.00    +0.042 C 
ATOM     17  C   LIG A   1      -3.184   3.691 127.254  0.00  0.00    -0.012 C 
ATOM     18  C   LIG A   1      -1.843   3.278 126.605  0.00  0.00    +0.015 C 
ATOM     19  C   LIG A   1      -3.518   2.655 128.352  0.00  0.00    +0.015 C 
ATOM     20  C   LIG A   1      -8.699   6.012 133.371  0.00  0.00    +0.008 C 
ENDROOT
BRANCH  15  21
ATOM     21  O   LIG A   1      -3.625   6.743 129.462  0.00  0.00    -0.391 OA
ATOM     22  H   LIG A   1      -4.358   7.382 129.421  0.00  0.00    +0.210 HD
ENDBRANCH  15  21
BRANCH  17  23
ATOM     23  C   LIG A   1      -4.322   3.758 126.232  0.00  0.00    -0.028 C 
ATOM     24  C   LIG A   1      -5.090   2.751 125.791  0.00  0.00    +0.004 C 
ENDBRANCH  17  23
TORSDOF 2
ENDMDL
MODEL 8
REMARK VINA RESULT:      -6.8      2.993      6.765
REMARK  Name = NuBBE_2244
REMARK  6 active torsions:
REMARK  status: ('A' for Active; 'I' for Inactive)
REMARK    1  A    between atoms: C_1  and  C_2
REMARK    2  A    between atoms: C_2  and  C_3
REMARK    3  A    between atoms: C_13  and  C_14
REMARK    4  A    between atoms: C_15  and  O_17
REMARK    5  A    between atoms: C_19  and  C_20
REMARK    6  A    between atoms: C_19  and  C_21
REMARK                            x       y       z     vdW  Elec       q    Type
REMARK                         _______ _______ _______ _____ _____    ______ ____
ROOT
ATOM      1  C   LIG A   1      -5.310  -2.758 128.486  0.00  0.00    +0.018 C 
ATOM      2  C   LIG A   1      -6.578  -1.881 128.331  0.00  0.00    +0.018 C 
ATOM      3  C   LIG A   1      -7.765  -2.834 128.046  0.00  0.00    +0.018 C 
ATOM      4  C   LIG A   1      -6.913  -1.123 129.636  0.00  0.00    -0.068 C 
ATOM      5  C   LIG A   1      -7.931  -0.024 129.465  0.00  0.00    +0.034 C 
ATOM      6  C   LIG A   1      -7.424   1.086 128.547  0.00  0.00    +0.043 C 
ATOM      7  C   LIG A   1      -6.863   0.577 127.232  0.00  0.00    +0.108 C 
ATOM      8  O   LIG A   1      -5.484   0.147 127.416  0.00  0.00    -0.360 OA
ATOM      9  C   LIG A   1      -6.389  -0.910 127.127  0.00  0.00    +0.108 C 
ATOM     10  C   LIG A   1      -6.143  -1.532 125.769  0.00  0.00    +0.039 C 
ATOM     11  C   LIG A   1      -6.054  -0.529 124.624  0.00  0.00    +0.007 C 
ATOM     12  C   LIG A   1      -7.186   0.498 124.725  0.00  0.00    +0.001 C 
ATOM     13  C   LIG A   1      -7.004   1.468 125.941  0.00  0.00    +0.029 C 
ATOM     14  C   LIG A   1      -5.740   2.365 125.817  0.00  0.00    +0.017 C 
ATOM     15  C   LIG A   1      -8.270   2.399 125.954  0.00  0.00    +0.124 C 
ATOM     16  C   LIG A   1      -8.548   3.100 124.609  0.00  0.00    +0.042 C 
ATOM     17  C   LIG A   1      -8.593   2.179 123.374  0.00  0.00    -0.012 C 
ATOM     18  C   LIG A   1      -8.489   3.068 122.112  0.00  0.00    +0.015 C 
ATOM     19  C   LIG A   1      -7.372   1.231 123.386  0.00  0.00    +0.015 C 
ATOM     20  C   LIG A   1      -6.368  -1.344 130.847  0.00  0.00    +0.008 C 
ENDROOT
BRANCH  15  21
ATOM     21  O   LIG A   1      -8.123   3.453 126.915  0.00  0.00    -0.391 OA
ATOM     22  H   LIG A   1      -9.010   3.683 127.242  0.00  0.00    +0.210 HD
ENDBRANCH  15  21
BRANCH  17  23
ATOM     23  C   LIG A   1      -9.890   1.366 123.400  0.00  0.00    -0.028 C 
ATOM     24  C   LIG A   1     -10.260   0.382 122.568  0.00  0.00    +0.004 C 
ENDBRANCH  17  23
TORSDOF 2
ENDMDL
MODEL 9
REMARK VINA RESULT:      -6.7      1.824      2.247
REMARK  Name = NuBBE_2244
REMARK  6 active torsions:
REMARK  status: ('A' for Active; 'I' for Inactive)
REMARK    1  A    between atoms: C_1  and  C_2
REMARK    2  A    between atoms: C_2  and  C_3
REMARK    3  A    between atoms: C_13  and  C_14
REMARK    4  A    between atoms: C_15  and  O_17
REMARK    5  A    between atoms: C_19  and  C_20
REMARK    6  A    between atoms: C_19  and  C_21
REMARK                            x       y       z     vdW  Elec       q    Type
REMARK                         _______ _______ _______ _____ _____    ______ ____
ROOT
ATOM      1  C   LIG A   1      -8.863  -0.312 124.186  0.00  0.00    +0.018 C 
ATOM      2  C   LIG A   1      -7.481  -0.357 124.884  0.00  0.00    +0.018 C 
ATOM      3  C   LIG A   1      -6.566  -1.274 124.036  0.00  0.00    +0.018 C 
ATOM      4  C   LIG A   1      -6.813   1.037 124.919  0.00  0.00    -0.068 C 
ATOM      5  C   LIG A   1      -5.630   1.128 125.851  0.00  0.00    +0.034 C 
ATOM      6  C   LIG A   1      -6.031   0.905 127.307  0.00  0.00    +0.043 C 
ATOM      7  C   LIG A   1      -6.869  -0.341 127.521  0.00  0.00    +0.108 C 
ATOM      8  O   LIG A   1      -8.265  -0.057 127.217  0.00  0.00    -0.360 OA
ATOM      9  C   LIG A   1      -7.644  -0.960 126.311  0.00  0.00    +0.108 C 
ATOM     10  C   LIG A   1      -8.206  -2.361 126.410  0.00  0.00    +0.039 C 
ATOM     11  C   LIG A   1      -8.258  -2.921 127.827  0.00  0.00    +0.007 C 
ATOM     12  C   LIG A   1      -6.939  -2.648 128.557  0.00  0.00    +0.001 C 
ATOM     13  C   LIG A   1      -6.742  -1.128 128.880  0.00  0.00    +0.029 C 
ATOM     14  C   LIG A   1      -7.803  -0.577 129.874  0.00  0.00    +0.017 C 
ATOM     15  C   LIG A   1      -5.325  -1.001 129.549  0.00  0.00    +0.124 C 
ATOM     16  C   LIG A   1      -5.111  -1.947 130.749  0.00  0.00    +0.042 C 
ATOM     17  C   LIG A   1      -5.435  -3.432 130.494  0.00  0.00    -0.012 C 
ATOM     18  C   LIG A   1      -5.540  -4.140 131.865  0.00  0.00    +0.015 C 
ATOM     19  C   LIG A   1      -6.807  -3.553 129.792  0.00  0.00    +0.015 C 
ATOM     20  C   LIG A   1      -7.209   2.127 124.236  0.00  0.00    +0.008 C 
ENDROOT
BRANCH  15  21
ATOM     21  O   LIG A   1      -5.114   0.322 130.059  0.00  0.00    -0.391 OA
ATOM     22  H   LIG A   1      -4.621   0.243 130.895  0.00  0.00    +0.210 HD
ENDBRANCH  15  21
BRANCH  17  23
ATOM     23  C   LIG A   1      -4.339  -4.041 129.615  0.00  0.00    -0.028 C 
ATOM     24  C   LIG A   1      -3.124  -3.539 129.350  0.00  0.00    +0.004 C 
ENDBRANCH  17  23
TORSDOF 2
ENDMDL
