MODEL 1
REMARK VINA RESULT:      -5.7      0.000      0.000
REMARK  Name = NuBBE_455
REMARK  16 active torsions:
REMARK  status: ('A' for Active; 'I' for Inactive)
REMARK    1  A    between atoms: O_1  and  C_2
REMARK    2  A    between atoms: C_4  and  C_27
REMARK    3  A    between atoms: C_7  and  C_11
REMARK    4  A    between atoms: C_11  and  C_12
REMARK    5  A    between atoms: C_12  and  C_13
REMARK    6  A    between atoms: C_13  and  C_14
REMARK    7  A    between atoms: C_14  and  C_15
REMARK    8  A    between atoms: C_15  and  C_16
REMARK    9  A    between atoms: C_16  and  C_17
REMARK   10  A    between atoms: C_17  and  C_18
REMARK   11  A    between atoms: C_18  and  C_19
REMARK   12  A    between atoms: C_19  and  C_20
REMARK   13  A    between atoms: C_20  and  C_21
REMARK   14  A    between atoms: C_21  and  C_22
REMARK   15  A    between atoms: C_22  and  C_23
REMARK   16  A    between atoms: C_23  and  C_24
REMARK                            x       y       z     vdW  Elec       q    Type
REMARK                         _______ _______ _______ _____ _____    ______ ____
ROOT
ATOM      1  C   LIG A   1      -6.104  -2.326 124.226  0.00  0.00    +0.000 C 
ENDROOT
BRANCH   1   2
ATOM      2  C   LIG A   1      -5.525  -0.980 125.008  0.00  0.00    +0.002 C 
BRANCH   2   3
ATOM      3  C   LIG A   1      -6.133   0.120 126.043  0.00  0.00    +0.019 C 
BRANCH   3   7
ATOM      4  C   LIG A   1      -9.943   1.371 124.239  0.00  0.00    +0.131 C 
ATOM      5  C   LIG A   1      -8.700   2.252 124.031  0.00  0.00    +0.079 C 
ATOM      6  N   LIG A   1      -7.477   1.442 124.301  0.00  0.00    -0.308 NA
ATOM      7  C   LIG A   1      -7.286   1.175 125.761  0.00  0.00    +0.054 C 
ATOM      8  C   LIG A   1      -8.652   0.999 126.437  0.00  0.00    +0.021 C 
ATOM      9  C   LIG A   1      -9.881   0.644 125.575  0.00  0.00    +0.034 C 
ATOM     10  H   LIG A   1      -6.665   1.948 123.942  0.00  0.00    +0.122 HD
ATOM     11  C   LIG A   1      -8.703   2.801 122.604  0.00  0.00    +0.026 C 
BRANCH   4  12
ATOM     12  O   LIG A   1     -10.038   0.383 123.203  0.00  0.00    -0.390 OA
ATOM     13  H   LIG A   1     -10.823   0.637 122.679  0.00  0.00    +0.210 HD
ENDBRANCH   4  12
ENDBRANCH   3   7
ENDBRANCH   2   3
ENDBRANCH   1   2
BRANCH   1  14
ATOM     14  C   LIG A   1      -7.403  -2.381 123.347  0.00  0.00    -0.000 C 
BRANCH  14  15
ATOM     15  C   LIG A   1      -8.876  -2.649 123.937  0.00  0.00    -0.000 C 
BRANCH  15  16
ATOM     16  C   LIG A   1      -9.464  -3.252 125.308  0.00  0.00    -0.000 C 
BRANCH  16  17
ATOM     17  C   LIG A   1      -8.882  -3.032 126.701  0.00  0.00    -0.000 C 
BRANCH  17  18
ATOM     18  C   LIG A   1      -8.991  -3.948 127.955  0.00  0.00    -0.000 C 
BRANCH  18  19
ATOM     19  C   LIG A   1      -8.389  -3.188 129.197  0.00  0.00    +0.000 C 
BRANCH  19  20
ATOM     20  C   LIG A   1      -7.378  -2.106 128.700  0.00  0.00    +0.000 C 
BRANCH  20  21
ATOM     21  C   LIG A   1      -5.942  -2.674 128.435  0.00  0.00    +0.007 C 
BRANCH  21  22
ATOM     22  C   LIG A   1      -4.644  -2.075 129.021  0.00  0.00    +0.074 C 
BRANCH  22  23
ATOM     23  C   LIG A   1      -3.463  -2.787 129.629  0.00  0.00    +0.130 C 
ATOM     24  C   LIG A   1      -2.810  -3.903 128.953  0.00  0.00    +0.086 C 
ATOM     25  O   LIG A   1      -3.141  -2.595 130.865  0.00  0.00    -0.298 OA
ENDBRANCH  22  23
ENDBRANCH  21  22
ENDBRANCH  20  21
ENDBRANCH  19  20
ENDBRANCH  18  19
ENDBRANCH  17  18
ENDBRANCH  16  17
ENDBRANCH  15  16
ENDBRANCH  14  15
ENDBRANCH   1  14
TORSDOF 14
ENDMDL
MODEL 2
REMARK VINA RESULT:      -5.7      2.159      7.115
REMARK  Name = NuBBE_455
REMARK  16 active torsions:
REMARK  status: ('A' for Active; 'I' for Inactive)
REMARK    1  A    between atoms: O_1  and  C_2
REMARK    2  A    between atoms: C_4  and  C_27
REMARK    3  A    between atoms: C_7  and  C_11
REMARK    4  A    between atoms: C_11  and  C_12
REMARK    5  A    between atoms: C_12  and  C_13
REMARK    6  A    between atoms: C_13  and  C_14
REMARK    7  A    between atoms: C_14  and  C_15
REMARK    8  A    between atoms: C_15  and  C_16
REMARK    9  A    between atoms: C_16  and  C_17
REMARK   10  A    between atoms: C_17  and  C_18
REMARK   11  A    between atoms: C_18  and  C_19
REMARK   12  A    between atoms: C_19  and  C_20
REMARK   13  A    between atoms: C_20  and  C_21
REMARK   14  A    between atoms: C_21  and  C_22
REMARK   15  A    between atoms: C_22  and  C_23
REMARK   16  A    between atoms: C_23  and  C_24
REMARK                            x       y       z     vdW  Elec       q    Type
REMARK                         _______ _______ _______ _____ _____    ______ ____
ROOT
ATOM      1  C   LIG A   1      -9.419  -2.909 125.930  0.00  0.00    +0.000 C 
ENDROOT
BRANCH   1   2
ATOM      2  C   LIG A   1      -8.719  -3.733 127.191  0.00  0.00    +0.002 C 
BRANCH   2   3
ATOM      3  C   LIG A   1      -8.671  -3.565 128.809  0.00  0.00    +0.019 C 
BRANCH   3   7
ATOM      4  C   LIG A   1      -4.458  -2.700 129.725  0.00  0.00    +0.131 C 
ATOM      5  C   LIG A   1      -5.359  -3.260 130.838  0.00  0.00    +0.079 C 
ATOM      6  N   LIG A   1      -6.555  -3.904 130.222  0.00  0.00    -0.308 NA
ATOM      7  C   LIG A   1      -7.520  -2.898 129.676  0.00  0.00    +0.054 C 
ATOM      8  C   LIG A   1      -6.750  -1.696 129.112  0.00  0.00    +0.021 C 
ATOM      9  C   LIG A   1      -5.262  -1.859 128.743  0.00  0.00    +0.034 C 
ATOM     10  H   LIG A   1      -7.023  -4.470 130.932  0.00  0.00    +0.122 HD
ATOM     11  C   LIG A   1      -4.560  -4.256 131.680  0.00  0.00    +0.026 C 
BRANCH   4  12
ATOM     12  O   LIG A   1      -3.843  -3.768 128.990  0.00  0.00    -0.390 OA
ATOM     13  H   LIG A   1      -4.287  -3.768 128.120  0.00  0.00    +0.210 HD
ENDBRANCH   4  12
ENDBRANCH   3   7
ENDBRANCH   2   3
ENDBRANCH   1   2
BRANCH   1  14
ATOM     14  C   LIG A   1      -9.365  -3.335 124.421  0.00  0.00    -0.000 C 
BRANCH  14  15
ATOM     15  C   LIG A   1      -8.858  -2.373 123.233  0.00  0.00    -0.000 C 
BRANCH  15  16
ATOM     16  C   LIG A   1      -7.427  -2.001 122.599  0.00  0.00    -0.000 C 
BRANCH  16  17
ATOM     17  C   LIG A   1      -6.152  -1.712 123.384  0.00  0.00    -0.000 C 
BRANCH  17  18
ATOM     18  C   LIG A   1      -5.972  -1.556 124.922  0.00  0.00    -0.000 C 
BRANCH  18  19
ATOM     19  C   LIG A   1      -6.179  -0.043 125.311  0.00  0.00    +0.000 C 
BRANCH  19  20
ATOM     20  C   LIG A   1      -7.474   0.095 126.174  0.00  0.00    +0.000 C 
BRANCH  20  21
ATOM     21  C   LIG A   1      -8.667   0.750 125.400  0.00  0.00    +0.007 C 
BRANCH  21  22
ATOM     22  C   LIG A   1      -8.508   1.774 124.253  0.00  0.00    +0.074 C 
BRANCH  22  23
ATOM     23  C   LIG A   1      -9.294   1.892 122.973  0.00  0.00    +0.130 C 
ATOM     24  C   LIG A   1     -10.235   0.859 122.553  0.00  0.00    +0.086 C 
ATOM     25  O   LIG A   1      -8.988   2.784 122.090  0.00  0.00    -0.298 OA
ENDBRANCH  22  23
ENDBRANCH  21  22
ENDBRANCH  20  21
ENDBRANCH  19  20
ENDBRANCH  18  19
ENDBRANCH  17  18
ENDBRANCH  16  17
ENDBRANCH  15  16
ENDBRANCH  14  15
ENDBRANCH   1  14
TORSDOF 14
ENDMDL
MODEL 3
REMARK VINA RESULT:      -5.6      5.308      7.422
REMARK  Name = NuBBE_455
REMARK  16 active torsions:
REMARK  status: ('A' for Active; 'I' for Inactive)
REMARK    1  A    between atoms: O_1  and  C_2
REMARK    2  A    between atoms: C_4  and  C_27
REMARK    3  A    between atoms: C_7  and  C_11
REMARK    4  A    between atoms: C_11  and  C_12
REMARK    5  A    between atoms: C_12  and  C_13
REMARK    6  A    between atoms: C_13  and  C_14
REMARK    7  A    between atoms: C_14  and  C_15
REMARK    8  A    between atoms: C_15  and  C_16
REMARK    9  A    between atoms: C_16  and  C_17
REMARK   10  A    between atoms: C_17  and  C_18
REMARK   11  A    between atoms: C_18  and  C_19
REMARK   12  A    between atoms: C_19  and  C_20
REMARK   13  A    between atoms: C_20  and  C_21
REMARK   14  A    between atoms: C_21  and  C_22
REMARK   15  A    between atoms: C_22  and  C_23
REMARK   16  A    between atoms: C_23  and  C_24
REMARK                            x       y       z     vdW  Elec       q    Type
REMARK                         _______ _______ _______ _____ _____    ______ ____
ROOT
ATOM      1  C   LIG A   1      -9.771   1.759 132.334  0.00  0.00    +0.000 C 
ENDROOT
BRANCH   1   2
ATOM      2  C   LIG A   1      -9.506   3.304 131.785  0.00  0.00    +0.002 C 
BRANCH   2   3
ATOM      3  C   LIG A   1     -10.007   4.192 130.516  0.00  0.00    +0.019 C 
BRANCH   3   7
ATOM      4  C   LIG A   1     -12.412   7.809 129.834  0.00  0.00    +0.131 C 
ATOM      5  C   LIG A   1     -11.055   7.676 129.123  0.00  0.00    +0.079 C 
ATOM      6  N   LIG A   1     -10.649   6.241 129.110  0.00  0.00    -0.308 NA
ATOM      7  C   LIG A   1     -10.210   5.766 130.460  0.00  0.00    +0.054 C 
ATOM      8  C   LIG A   1     -11.041   6.459 131.548  0.00  0.00    +0.021 C 
ATOM      9  C   LIG A   1     -12.400   7.086 131.174  0.00  0.00    +0.034 C 
ATOM     10  H   LIG A   1      -9.881   6.125 128.447  0.00  0.00    +0.122 HD
ATOM     11  C   LIG A   1     -11.172   8.236 127.705  0.00  0.00    +0.026 C 
BRANCH   4  12
ATOM     12  O   LIG A   1     -13.457   7.238 129.034  0.00  0.00    -0.390 OA
ATOM     13  H   LIG A   1     -13.980   6.690 129.652  0.00  0.00    +0.210 HD
ENDBRANCH   4  12
ENDBRANCH   3   7
ENDBRANCH   2   3
ENDBRANCH   1   2
BRANCH   1  14
ATOM     14  C   LIG A   1      -9.287   0.445 131.626  0.00  0.00    -0.000 C 
BRANCH  14  15
ATOM     15  C   LIG A   1      -7.810   0.243 131.019  0.00  0.00    -0.000 C 
BRANCH  15  16
ATOM     16  C   LIG A   1      -7.022  -0.971 130.314  0.00  0.00    -0.000 C 
BRANCH  16  17
ATOM     17  C   LIG A   1      -7.598  -1.919 129.268  0.00  0.00    -0.000 C 
BRANCH  17  18
ATOM     18  C   LIG A   1      -7.962  -3.425 129.417  0.00  0.00    -0.000 C 
BRANCH  18  19
ATOM     19  C   LIG A   1      -8.829  -3.867 128.178  0.00  0.00    +0.000 C 
BRANCH  19  20
ATOM     20  C   LIG A   1      -8.671  -2.814 127.034  0.00  0.00    +0.000 C 
BRANCH  20  21
ATOM     21  C   LIG A   1      -9.439  -3.200 125.725  0.00  0.00    +0.007 C 
BRANCH  21  22
ATOM     22  C   LIG A   1      -8.790  -3.288 124.325  0.00  0.00    +0.074 C 
BRANCH  22  23
ATOM     23  C   LIG A   1      -8.711  -2.234 123.250  0.00  0.00    +0.130 C 
ATOM     24  C   LIG A   1      -7.446  -1.875 122.621  0.00  0.00    +0.086 C 
ATOM     25  O   LIG A   1      -9.711  -1.449 123.021  0.00  0.00    -0.298 OA
ENDBRANCH  22  23
ENDBRANCH  21  22
ENDBRANCH  20  21
ENDBRANCH  19  20
ENDBRANCH  18  19
ENDBRANCH  17  18
ENDBRANCH  16  17
ENDBRANCH  15  16
ENDBRANCH  14  15
ENDBRANCH   1  14
TORSDOF 14
ENDMDL
MODEL 4
REMARK VINA RESULT:      -5.6      2.785      7.591
REMARK  Name = NuBBE_455
REMARK  16 active torsions:
REMARK  status: ('A' for Active; 'I' for Inactive)
REMARK    1  A    between atoms: O_1  and  C_2
REMARK    2  A    between atoms: C_4  and  C_27
REMARK    3  A    between atoms: C_7  and  C_11
REMARK    4  A    between atoms: C_11  and  C_12
REMARK    5  A    between atoms: C_12  and  C_13
REMARK    6  A    between atoms: C_13  and  C_14
REMARK    7  A    between atoms: C_14  and  C_15
REMARK    8  A    between atoms: C_15  and  C_16
REMARK    9  A    between atoms: C_16  and  C_17
REMARK   10  A    between atoms: C_17  and  C_18
REMARK   11  A    between atoms: C_18  and  C_19
REMARK   12  A    between atoms: C_19  and  C_20
REMARK   13  A    between atoms: C_20  and  C_21
REMARK   14  A    between atoms: C_21  and  C_22
REMARK   15  A    between atoms: C_22  and  C_23
REMARK   16  A    between atoms: C_23  and  C_24
REMARK                            x       y       z     vdW  Elec       q    Type
REMARK                         _______ _______ _______ _____ _____    ______ ____
ROOT
ATOM      1  C   LIG A   1      -8.980  -3.064 126.400  0.00  0.00    +0.000 C 
ENDROOT
BRANCH   1   2
ATOM      2  C   LIG A   1      -8.608  -3.787 127.848  0.00  0.00    +0.002 C 
BRANCH   2   3
ATOM      3  C   LIG A   1      -8.401  -3.285 129.383  0.00  0.00    +0.019 C 
BRANCH   3   7
ATOM      4  C   LIG A   1      -5.410  -4.128 132.493  0.00  0.00    +0.131 C 
ATOM      5  C   LIG A   1      -5.925  -2.688 132.330  0.00  0.00    +0.079 C 
ATOM      6  N   LIG A   1      -7.217  -2.712 131.587  0.00  0.00    -0.308 NA
ATOM      7  C   LIG A   1      -7.028  -3.018 130.134  0.00  0.00    +0.054 C 
ATOM      8  C   LIG A   1      -5.868  -4.008 129.961  0.00  0.00    +0.021 C 
ATOM      9  C   LIG A   1      -5.423  -4.867 131.162  0.00  0.00    +0.034 C 
ATOM     10  H   LIG A   1      -7.666  -1.800 131.683  0.00  0.00    +0.122 HD
ATOM     11  C   LIG A   1      -6.086  -2.051 133.711  0.00  0.00    +0.026 C 
BRANCH   4  12
ATOM     12  O   LIG A   1      -6.237  -4.857 133.411  0.00  0.00    -0.390 OA
ATOM     13  H   LIG A   1      -7.115  -4.901 132.982  0.00  0.00    +0.210 HD
ENDBRANCH   4  12
ENDBRANCH   3   7
ENDBRANCH   2   3
ENDBRANCH   1   2
BRANCH   1  14
ATOM     14  C   LIG A   1      -8.621  -3.627 124.981  0.00  0.00    -0.000 C 
BRANCH  14  15
ATOM     15  C   LIG A   1      -7.146  -3.567 124.337  0.00  0.00    -0.000 C 
BRANCH  15  16
ATOM     16  C   LIG A   1      -5.760  -2.850 124.727  0.00  0.00    -0.000 C 
BRANCH  16  17
ATOM     17  C   LIG A   1      -5.617  -1.566 125.536  0.00  0.00    -0.000 C 
BRANCH  17  18
ATOM     18  C   LIG A   1      -5.749  -1.366 127.074  0.00  0.00    -0.000 C 
BRANCH  18  19
ATOM     19  C   LIG A   1      -6.862  -0.286 127.356  0.00  0.00    +0.000 C 
BRANCH  19  20
ATOM     20  C   LIG A   1      -7.141   0.521 126.048  0.00  0.00    +0.000 C 
BRANCH  20  21
ATOM     21  C   LIG A   1      -8.641   0.477 125.601  0.00  0.00    +0.007 C 
BRANCH  21  22
ATOM     22  C   LIG A   1      -9.126  -0.015 124.218  0.00  0.00    +0.074 C 
BRANCH  22  23
ATOM     23  C   LIG A   1      -9.712   0.783 123.081  0.00  0.00    +0.130 C 
ATOM     24  C   LIG A   1      -9.221   2.116 122.748  0.00  0.00    +0.086 C 
ATOM     25  O   LIG A   1     -10.818   0.420 122.521  0.00  0.00    -0.298 OA
ENDBRANCH  22  23
ENDBRANCH  21  22
ENDBRANCH  20  21
ENDBRANCH  19  20
ENDBRANCH  18  19
ENDBRANCH  17  18
ENDBRANCH  16  17
ENDBRANCH  15  16
ENDBRANCH  14  15
ENDBRANCH   1  14
TORSDOF 14
ENDMDL
MODEL 5
REMARK VINA RESULT:      -5.5      2.848      5.332
REMARK  Name = NuBBE_455
REMARK  16 active torsions:
REMARK  status: ('A' for Active; 'I' for Inactive)
REMARK    1  A    between atoms: O_1  and  C_2
REMARK    2  A    between atoms: C_4  and  C_27
REMARK    3  A    between atoms: C_7  and  C_11
REMARK    4  A    between atoms: C_11  and  C_12
REMARK    5  A    between atoms: C_12  and  C_13
REMARK    6  A    between atoms: C_13  and  C_14
REMARK    7  A    between atoms: C_14  and  C_15
REMARK    8  A    between atoms: C_15  and  C_16
REMARK    9  A    between atoms: C_16  and  C_17
REMARK   10  A    between atoms: C_17  and  C_18
REMARK   11  A    between atoms: C_18  and  C_19
REMARK   12  A    between atoms: C_19  and  C_20
REMARK   13  A    between atoms: C_20  and  C_21
REMARK   14  A    between atoms: C_21  and  C_22
REMARK   15  A    between atoms: C_22  and  C_23
REMARK   16  A    between atoms: C_23  and  C_24
REMARK                            x       y       z     vdW  Elec       q    Type
REMARK                         _______ _______ _______ _____ _____    ______ ____
ROOT
ATOM      1  C   LIG A   1      -8.320  -3.282 128.977  0.00  0.00    +0.000 C 
ENDROOT
BRANCH   1   2
ATOM      2  C   LIG A   1      -8.964  -3.806 127.539  0.00  0.00    +0.002 C 
BRANCH   2   3
ATOM      3  C   LIG A   1      -9.532  -3.098 126.188  0.00  0.00    +0.019 C 
BRANCH   3   7
ATOM      4  C   LIG A   1      -5.948  -1.758 124.020  0.00  0.00    +0.131 C 
ATOM      5  C   LIG A   1      -7.298  -1.094 123.703  0.00  0.00    +0.079 C 
ATOM      6  N   LIG A   1      -8.242  -1.342 124.831  0.00  0.00    -0.308 NA
ATOM      7  C   LIG A   1      -8.724  -2.759 124.864  0.00  0.00    +0.054 C 
ATOM      8  C   LIG A   1      -7.600  -3.697 124.403  0.00  0.00    +0.021 C 
ATOM      9  C   LIG A   1      -6.139  -3.206 124.451  0.00  0.00    +0.034 C 
ATOM     10  H   LIG A   1      -9.043  -0.716 124.730  0.00  0.00    +0.122 HD
ATOM     11  C   LIG A   1      -7.083   0.403 123.474  0.00  0.00    +0.026 C 
BRANCH   4  12
ATOM     12  O   LIG A   1      -5.285  -1.064 125.087  0.00  0.00    -0.390 OA
ATOM     13  H   LIG A   1      -5.639  -0.154 125.058  0.00  0.00    +0.210 HD
ENDBRANCH   4  12
ENDBRANCH   3   7
ENDBRANCH   2   3
ENDBRANCH   1   2
BRANCH   1  14
ATOM     14  C   LIG A   1      -6.798  -3.307 129.358  0.00  0.00    -0.000 C 
BRANCH  14  15
ATOM     15  C   LIG A   1      -6.184  -4.200 130.548  0.00  0.00    -0.000 C 
BRANCH  15  16
ATOM     16  C   LIG A   1      -5.703  -3.914 132.057  0.00  0.00    -0.000 C 
BRANCH  16  17
ATOM     17  C   LIG A   1      -6.574  -3.364 133.182  0.00  0.00    -0.000 C 
BRANCH  17  18
ATOM     18  C   LIG A   1      -7.808  -2.421 133.083  0.00  0.00    -0.000 C 
BRANCH  18  19
ATOM     19  C   LIG A   1      -7.377  -1.089 132.359  0.00  0.00    +0.000 C 
BRANCH  19  20
ATOM     20  C   LIG A   1      -8.653  -0.321 131.888  0.00  0.00    +0.000 C 
BRANCH  20  21
ATOM     21  C   LIG A   1      -8.401   0.595 130.643  0.00  0.00    +0.007 C 
BRANCH  21  22
ATOM     22  C   LIG A   1      -7.372   0.294 129.531  0.00  0.00    +0.074 C 
BRANCH  22  23
ATOM     23  C   LIG A   1      -7.541   0.378 128.036  0.00  0.00    +0.130 C 
ATOM     24  C   LIG A   1      -8.555   1.231 127.426  0.00  0.00    +0.086 C 
ATOM     25  O   LIG A   1      -6.963  -0.475 127.257  0.00  0.00    -0.298 OA
ENDBRANCH  22  23
ENDBRANCH  21  22
ENDBRANCH  20  21
ENDBRANCH  19  20
ENDBRANCH  18  19
ENDBRANCH  17  18
ENDBRANCH  16  17
ENDBRANCH  15  16
ENDBRANCH  14  15
ENDBRANCH   1  14
TORSDOF 14
ENDMDL
MODEL 6
REMARK VINA RESULT:      -5.5      2.385      4.224
REMARK  Name = NuBBE_455
REMARK  16 active torsions:
REMARK  status: ('A' for Active; 'I' for Inactive)
REMARK    1  A    between atoms: O_1  and  C_2
REMARK    2  A    between atoms: C_4  and  C_27
REMARK    3  A    between atoms: C_7  and  C_11
REMARK    4  A    between atoms: C_11  and  C_12
REMARK    5  A    between atoms: C_12  and  C_13
REMARK    6  A    between atoms: C_13  and  C_14
REMARK    7  A    between atoms: C_14  and  C_15
REMARK    8  A    between atoms: C_15  and  C_16
REMARK    9  A    between atoms: C_16  and  C_17
REMARK   10  A    between atoms: C_17  and  C_18
REMARK   11  A    between atoms: C_18  and  C_19
REMARK   12  A    between atoms: C_19  and  C_20
REMARK   13  A    between atoms: C_20  and  C_21
REMARK   14  A    between atoms: C_21  and  C_22
REMARK   15  A    between atoms: C_22  and  C_23
REMARK   16  A    between atoms: C_23  and  C_24
REMARK                            x       y       z     vdW  Elec       q    Type
REMARK                         _______ _______ _______ _____ _____    ______ ____
ROOT
ATOM      1  C   LIG A   1      -9.064  -3.234 126.663  0.00  0.00    +0.000 C 
ENDROOT
BRANCH   1   2
ATOM      2  C   LIG A   1      -8.362  -3.708 125.235  0.00  0.00    +0.002 C 
BRANCH   2   3
ATOM      3  C   LIG A   1      -8.398  -3.195 123.690  0.00  0.00    +0.019 C 
BRANCH   3   7
ATOM      4  C   LIG A   1      -7.990   1.143 124.283  0.00  0.00    +0.131 C 
ATOM      5  C   LIG A   1      -9.178   0.615 123.461  0.00  0.00    +0.079 C 
ATOM      6  N   LIG A   1      -9.387  -0.828 123.774  0.00  0.00    -0.308 NA
ATOM      7  C   LIG A   1      -8.328  -1.697 123.170  0.00  0.00    +0.054 C 
ATOM      8  C   LIG A   1      -6.984  -0.957 123.179  0.00  0.00    +0.021 C 
ATOM      9  C   LIG A   1      -6.781   0.227 124.146  0.00  0.00    +0.034 C 
ATOM     10  H   LIG A   1     -10.300  -1.111 123.415  0.00  0.00    +0.122 HD
ATOM     11  C   LIG A   1     -10.423   1.443 123.784  0.00  0.00    +0.026 C 
BRANCH   4  12
ATOM     12  O   LIG A   1      -8.334   1.214 125.675  0.00  0.00    -0.390 OA
ATOM     13  H   LIG A   1      -7.687   1.832 126.066  0.00  0.00    +0.210 HD
ENDBRANCH   4  12
ENDBRANCH   3   7
ENDBRANCH   2   3
ENDBRANCH   1   2
BRANCH   1  14
ATOM     14  C   LIG A   1      -9.016  -4.033 128.012  0.00  0.00    -0.000 C 
BRANCH  14  15
ATOM     15  C   LIG A   1      -8.207  -3.547 129.316  0.00  0.00    -0.000 C 
BRANCH  15  16
ATOM     16  C   LIG A   1      -6.670  -3.595 129.789  0.00  0.00    -0.000 C 
BRANCH  16  17
ATOM     17  C   LIG A   1      -5.530  -2.771 129.200  0.00  0.00    -0.000 C 
BRANCH  17  18
ATOM     18  C   LIG A   1      -5.405  -2.166 127.772  0.00  0.00    -0.000 C 
BRANCH  18  19
ATOM     19  C   LIG A   1      -6.331  -0.895 127.672  0.00  0.00    +0.000 C 
BRANCH  19  20
ATOM     20  C   LIG A   1      -6.305  -0.128 129.033  0.00  0.00    +0.000 C 
BRANCH  20  21
ATOM     21  C   LIG A   1      -7.726   0.309 129.525  0.00  0.00    +0.007 C 
BRANCH  21  22
ATOM     22  C   LIG A   1      -8.391  -0.191 130.828  0.00  0.00    +0.074 C 
BRANCH  22  23
ATOM     23  C   LIG A   1      -7.800  -0.310 132.208  0.00  0.00    +0.130 C 
ATOM     24  C   LIG A   1      -7.501  -1.608 132.804  0.00  0.00    +0.086 C 
ATOM     25  O   LIG A   1      -7.762   0.709 133.001  0.00  0.00    -0.298 OA
ENDBRANCH  22  23
ENDBRANCH  21  22
ENDBRANCH  20  21
ENDBRANCH  19  20
ENDBRANCH  18  19
ENDBRANCH  17  18
ENDBRANCH  16  17
ENDBRANCH  15  16
ENDBRANCH  14  15
ENDBRANCH   1  14
TORSDOF 14
ENDMDL
MODEL 7
REMARK VINA RESULT:      -5.5      2.030      6.301
REMARK  Name = NuBBE_455
REMARK  16 active torsions:
REMARK  status: ('A' for Active; 'I' for Inactive)
REMARK    1  A    between atoms: O_1  and  C_2
REMARK    2  A    between atoms: C_4  and  C_27
REMARK    3  A    between atoms: C_7  and  C_11
REMARK    4  A    between atoms: C_11  and  C_12
REMARK    5  A    between atoms: C_12  and  C_13
REMARK    6  A    between atoms: C_13  and  C_14
REMARK    7  A    between atoms: C_14  and  C_15
REMARK    8  A    between atoms: C_15  and  C_16
REMARK    9  A    between atoms: C_16  and  C_17
REMARK   10  A    between atoms: C_17  and  C_18
REMARK   11  A    between atoms: C_18  and  C_19
REMARK   12  A    between atoms: C_19  and  C_20
REMARK   13  A    between atoms: C_20  and  C_21
REMARK   14  A    between atoms: C_21  and  C_22
REMARK   15  A    between atoms: C_22  and  C_23
REMARK   16  A    between atoms: C_23  and  C_24
REMARK                            x       y       z     vdW  Elec       q    Type
REMARK                         _______ _______ _______ _____ _____    ______ ____
ROOT
ATOM      1  C   LIG A   1      -9.015  -3.897 127.304  0.00  0.00    +0.000 C 
ENDROOT
BRANCH   1   2
ATOM      2  C   LIG A   1      -8.565  -3.448 128.838  0.00  0.00    +0.002 C 
BRANCH   2   3
ATOM      3  C   LIG A   1      -7.852  -2.148 129.511  0.00  0.00    +0.019 C 
BRANCH   3   7
ATOM      4  C   LIG A   1      -3.624  -1.358 130.425  0.00  0.00    +0.131 C 
ATOM      5  C   LIG A   1      -4.524  -0.184 130.004  0.00  0.00    +0.079 C 
ATOM      6  N   LIG A   1      -5.952  -0.567 130.201  0.00  0.00    -0.308 NA
ATOM      7  C   LIG A   1      -6.420  -1.551 129.174  0.00  0.00    +0.054 C 
ATOM      8  C   LIG A   1      -5.273  -2.501 128.808  0.00  0.00    +0.021 C 
ATOM      9  C   LIG A   1      -4.084  -2.658 129.777  0.00  0.00    +0.034 C 
ATOM     10  H   LIG A   1      -6.526   0.276 130.147  0.00  0.00    +0.122 HD
ATOM     11  C   LIG A   1      -4.158   1.052 130.827  0.00  0.00    +0.026 C 
BRANCH   4  12
ATOM     12  O   LIG A   1      -3.664  -1.537 131.848  0.00  0.00    -0.390 OA
ATOM     13  H   LIG A   1      -3.105  -2.319 132.023  0.00  0.00    +0.210 HD
ENDBRANCH   4  12
ENDBRANCH   3   7
ENDBRANCH   2   3
ENDBRANCH   1   2
BRANCH   1  14
ATOM     14  C   LIG A   1      -9.262  -2.918 126.103  0.00  0.00    -0.000 C 
BRANCH  14  15
ATOM     15  C   LIG A   1      -9.380  -3.390 124.568  0.00  0.00    -0.000 C 
BRANCH  15  16
ATOM     16  C   LIG A   1      -8.883  -2.805 123.154  0.00  0.00    -0.000 C 
BRANCH  16  17
ATOM     17  C   LIG A   1      -7.944  -1.619 122.960  0.00  0.00    -0.000 C 
BRANCH  17  18
ATOM     18  C   LIG A   1      -6.400  -1.624 122.770  0.00  0.00    -0.000 C 
BRANCH  18  19
ATOM     19  C   LIG A   1      -5.779  -2.770 123.655  0.00  0.00    +0.000 C 
BRANCH  19  20
ATOM     20  C   LIG A   1      -5.819  -2.342 125.157  0.00  0.00    +0.000 C 
BRANCH  20  21
ATOM     21  C   LIG A   1      -5.251  -0.903 125.407  0.00  0.00    +0.007 C 
BRANCH  21  22
ATOM     22  C   LIG A   1      -6.038   0.241 126.086  0.00  0.00    +0.074 C 
BRANCH  22  23
ATOM     23  C   LIG A   1      -7.329   0.887 125.657  0.00  0.00    +0.130 C 
ATOM     24  C   LIG A   1      -8.592   0.598 126.328  0.00  0.00    +0.086 C 
ATOM     25  O   LIG A   1      -7.407   1.527 124.537  0.00  0.00    -0.298 OA
ENDBRANCH  22  23
ENDBRANCH  21  22
ENDBRANCH  20  21
ENDBRANCH  19  20
ENDBRANCH  18  19
ENDBRANCH  17  18
ENDBRANCH  16  17
ENDBRANCH  15  16
ENDBRANCH  14  15
ENDBRANCH   1  14
TORSDOF 14
ENDMDL
MODEL 8
REMARK VINA RESULT:      -5.4      3.188      7.373
REMARK  Name = NuBBE_455
REMARK  16 active torsions:
REMARK  status: ('A' for Active; 'I' for Inactive)
REMARK    1  A    between atoms: O_1  and  C_2
REMARK    2  A    between atoms: C_4  and  C_27
REMARK    3  A    between atoms: C_7  and  C_11
REMARK    4  A    between atoms: C_11  and  C_12
REMARK    5  A    between atoms: C_12  and  C_13
REMARK    6  A    between atoms: C_13  and  C_14
REMARK    7  A    between atoms: C_14  and  C_15
REMARK    8  A    between atoms: C_15  and  C_16
REMARK    9  A    between atoms: C_16  and  C_17
REMARK   10  A    between atoms: C_17  and  C_18
REMARK   11  A    between atoms: C_18  and  C_19
REMARK   12  A    between atoms: C_19  and  C_20
REMARK   13  A    between atoms: C_20  and  C_21
REMARK   14  A    between atoms: C_21  and  C_22
REMARK   15  A    between atoms: C_22  and  C_23
REMARK   16  A    between atoms: C_23  and  C_24
REMARK                            x       y       z     vdW  Elec       q    Type
REMARK                         _______ _______ _______ _____ _____    ______ ____
ROOT
ATOM      1  C   LIG A   1      -8.821  -3.708 127.137  0.00  0.00    +0.000 C 
ENDROOT
BRANCH   1   2
ATOM      2  C   LIG A   1      -7.903  -3.035 128.348  0.00  0.00    +0.002 C 
BRANCH   2   3
ATOM      3  C   LIG A   1      -7.846  -3.154 129.970  0.00  0.00    +0.019 C 
BRANCH   3   7
ATOM      4  C   LIG A   1      -5.363  -4.655 133.275  0.00  0.00    +0.131 C 
ATOM      5  C   LIG A   1      -5.702  -3.155 133.223  0.00  0.00    +0.079 C 
ATOM      6  N   LIG A   1      -6.888  -2.952 132.343  0.00  0.00    -0.308 NA
ATOM      7  C   LIG A   1      -6.555  -3.128 130.894  0.00  0.00    +0.054 C 
ATOM      8  C   LIG A   1      -5.492  -4.224 130.738  0.00  0.00    +0.021 C 
ATOM      9  C   LIG A   1      -5.290  -5.247 131.874  0.00  0.00    +0.034 C 
ATOM     10  H   LIG A   1      -7.248  -2.008 132.493  0.00  0.00    +0.122 HD
ATOM     11  C   LIG A   1      -5.964  -2.648 134.641  0.00  0.00    +0.026 C 
BRANCH   4  12
ATOM     12  O   LIG A   1      -6.369  -5.372 134.005  0.00  0.00    -0.390 OA
ATOM     13  H   LIG A   1      -6.100  -6.310 133.954  0.00  0.00    +0.210 HD
ENDBRANCH   4  12
ENDBRANCH   3   7
ENDBRANCH   2   3
ENDBRANCH   1   2
BRANCH   1  14
ATOM     14  C   LIG A   1      -9.439  -2.930 125.923  0.00  0.00    -0.000 C 
BRANCH  14  15
ATOM     15  C   LIG A   1      -9.366  -3.440 124.398  0.00  0.00    -0.000 C 
BRANCH  15  16
ATOM     16  C   LIG A   1      -8.804  -2.833 123.018  0.00  0.00    -0.000 C 
BRANCH  16  17
ATOM     17  C   LIG A   1      -7.765  -1.724 122.889  0.00  0.00    -0.000 C 
BRANCH  17  18
ATOM     18  C   LIG A   1      -6.215  -1.849 122.818  0.00  0.00    -0.000 C 
BRANCH  18  19
ATOM     19  C   LIG A   1      -5.754  -3.034 123.750  0.00  0.00    +0.000 C 
BRANCH  19  20
ATOM     20  C   LIG A   1      -5.753  -2.552 125.236  0.00  0.00    +0.000 C 
BRANCH  20  21
ATOM     21  C   LIG A   1      -5.392  -1.037 125.396  0.00  0.00    +0.007 C 
BRANCH  21  22
ATOM     22  C   LIG A   1      -5.983  -0.107 126.480  0.00  0.00    +0.074 C 
BRANCH  22  23
ATOM     23  C   LIG A   1      -7.400   0.380 126.640  0.00  0.00    +0.130 C 
ATOM     24  C   LIG A   1      -7.970   0.662 127.953  0.00  0.00    +0.086 C 
ATOM     25  O   LIG A   1      -8.230   0.335 125.651  0.00  0.00    -0.298 OA
ENDBRANCH  22  23
ENDBRANCH  21  22
ENDBRANCH  20  21
ENDBRANCH  19  20
ENDBRANCH  18  19
ENDBRANCH  17  18
ENDBRANCH  16  17
ENDBRANCH  15  16
ENDBRANCH  14  15
ENDBRANCH   1  14
TORSDOF 14
ENDMDL
MODEL 9
REMARK VINA RESULT:      -5.4      5.215      7.613
REMARK  Name = NuBBE_455
REMARK  16 active torsions:
REMARK  status: ('A' for Active; 'I' for Inactive)
REMARK    1  A    between atoms: O_1  and  C_2
REMARK    2  A    between atoms: C_4  and  C_27
REMARK    3  A    between atoms: C_7  and  C_11
REMARK    4  A    between atoms: C_11  and  C_12
REMARK    5  A    between atoms: C_12  and  C_13
REMARK    6  A    between atoms: C_13  and  C_14
REMARK    7  A    between atoms: C_14  and  C_15
REMARK    8  A    between atoms: C_15  and  C_16
REMARK    9  A    between atoms: C_16  and  C_17
REMARK   10  A    between atoms: C_17  and  C_18
REMARK   11  A    between atoms: C_18  and  C_19
REMARK   12  A    between atoms: C_19  and  C_20
REMARK   13  A    between atoms: C_20  and  C_21
REMARK   14  A    between atoms: C_21  and  C_22
REMARK   15  A    between atoms: C_22  and  C_23
REMARK   16  A    between atoms: C_23  and  C_24
REMARK                            x       y       z     vdW  Elec       q    Type
REMARK                         _______ _______ _______ _____ _____    ______ ____
ROOT
ATOM      1  C   LIG A   1      -8.005  -0.359 130.569  0.00  0.00    +0.000 C 
ENDROOT
BRANCH   1   2
ATOM      2  C   LIG A   1      -9.100   0.310 131.624  0.00  0.00    +0.002 C 
BRANCH   2   3
ATOM      3  C   LIG A   1      -9.432   1.808 132.166  0.00  0.00    +0.019 C 
BRANCH   3   7
ATOM      4  C   LIG A   1      -8.363   5.821 133.612  0.00  0.00    +0.131 C 
ATOM      5  C   LIG A   1      -7.957   5.413 132.186  0.00  0.00    +0.079 C 
ATOM      6  N   LIG A   1      -8.793   4.259 131.750  0.00  0.00    -0.308 NA
ATOM      7  C   LIG A   1      -8.403   2.987 132.436  0.00  0.00    +0.054 C 
ATOM      8  C   LIG A   1      -7.961   3.289 133.874  0.00  0.00    +0.021 C 
ATOM      9  C   LIG A   1      -8.401   4.611 134.536  0.00  0.00    +0.034 C 
ATOM     10  H   LIG A   1      -8.689   4.143 130.740  0.00  0.00    +0.122 HD
ATOM     11  C   LIG A   1      -8.127   6.612 131.251  0.00  0.00    +0.026 C 
BRANCH   4  12
ATOM     12  O   LIG A   1      -9.669   6.416 133.612  0.00  0.00    -0.390 OA
ATOM     13  H   LIG A   1     -10.137   6.005 134.365  0.00  0.00    +0.210 HD
ENDBRANCH   4  12
ENDBRANCH   3   7
ENDBRANCH   2   3
ENDBRANCH   1   2
BRANCH   1  14
ATOM     14  C   LIG A   1      -7.714  -1.892 130.407  0.00  0.00    -0.000 C 
BRANCH  14  15
ATOM     15  C   LIG A   1      -7.734  -2.665 128.995  0.00  0.00    -0.000 C 
BRANCH  15  16
ATOM     16  C   LIG A   1      -8.590  -3.876 128.370  0.00  0.00    -0.000 C 
BRANCH  16  17
ATOM     17  C   LIG A   1      -9.434  -3.809 127.101  0.00  0.00    -0.000 C 
BRANCH  17  18
ATOM     18  C   LIG A   1      -9.309  -2.824 125.902  0.00  0.00    -0.000 C 
BRANCH  18  19
ATOM     19  C   LIG A   1      -8.647  -3.578 124.687  0.00  0.00    +0.000 C 
BRANCH  19  20
ATOM     20  C   LIG A   1      -9.024  -2.846 123.359  0.00  0.00    +0.000 C 
BRANCH  20  21
ATOM     21  C   LIG A   1      -7.973  -1.769 122.925  0.00  0.00    +0.007 C 
BRANCH  21  22
ATOM     22  C   LIG A   1      -8.005  -0.289 123.369  0.00  0.00    +0.074 C 
BRANCH  22  23
ATOM     23  C   LIG A   1      -9.050   0.435 124.179  0.00  0.00    +0.130 C 
ATOM     24  C   LIG A   1      -8.828   0.787 125.577  0.00  0.00    +0.086 C 
ATOM     25  O   LIG A   1     -10.259   0.553 123.741  0.00  0.00    -0.298 OA
ENDBRANCH  22  23
ENDBRANCH  21  22
ENDBRANCH  20  21
ENDBRANCH  19  20
ENDBRANCH  18  19
ENDBRANCH  17  18
ENDBRANCH  16  17
ENDBRANCH  15  16
ENDBRANCH  14  15
ENDBRANCH   1  14
TORSDOF 14
ENDMDL
