MODEL 1
REMARK VINA RESULT:      -7.2      0.000      0.000
REMARK  Name = NuBBE_2155
REMARK  11 active torsions:
REMARK  status: ('A' for Active; 'I' for Inactive)
REMARK    1  A    between atoms: C_1  and  O_2
REMARK    2  A    between atoms: O_2  and  C_3
REMARK    3  A    between atoms: C_10  and  C_11
REMARK    4  A    between atoms: C_13  and  C_15
REMARK    5  A    between atoms: C_18  and  C_19
REMARK    6  A    between atoms: C_19  and  C_20
REMARK    7  A    between atoms: C_20  and  C_21
REMARK    8  A    between atoms: C_23  and  O_25
REMARK    9  A    between atoms: O_25  and  C_26
REMARK   10  A    between atoms: C_27  and  O_28
REMARK   11  A    between atoms: O_28  and  C_29
REMARK                            x       y       z     vdW  Elec       q    Type
REMARK                         _______ _______ _______ _____ _____    ______ ____
ROOT
ATOM      1  C   LIG A   1      -5.410   0.211 127.177  0.00  0.00    +0.073 C 
ATOM      2  C   LIG A   1      -5.978  -0.019 128.601  0.00  0.00    +0.178 C 
ATOM      3  C   LIG A   1      -4.927  -0.321 129.662  0.00  0.00    +0.052 C 
ATOM      4  O   LIG A   1      -6.726   1.155 128.979  0.00  0.00    -0.488 OA
ATOM      5  C   LIG A   1      -6.786   1.942 127.846  0.00  0.00    +0.150 C 
ATOM      6  C   LIG A   1      -5.625   1.734 126.936  0.00  0.00    +0.045 C 
ATOM      7  C   LIG A   1      -5.843   2.132 125.459  0.00  0.00    +0.055 C 
ATOM      8  C   LIG A   1      -7.276   2.552 125.100  0.00  0.00    +0.193 C 
ATOM      9  C   LIG A   1      -7.857   2.708 127.592  0.00  0.00    +0.203 C 
ATOM     10  C   LIG A   1      -7.883   3.387 126.237  0.00  0.00    +0.229 C 
ATOM     11  O   LIG A   1      -8.408   4.492 126.071  0.00  0.00    -0.286 OA
ENDROOT
BRANCH   1  19
ATOM     12  C   LIG A   1      -5.975  -2.274 124.235  0.00  0.00    +0.166 A 
ATOM     13  C   LIG A   1      -7.332  -2.492 124.382  0.00  0.00    +0.207 A 
ATOM     14  O   LIG A   1      -8.135  -3.279 123.614  0.00  0.00    -0.449 OA
ATOM     15  C   LIG A   1      -9.428  -3.013 124.179  0.00  0.00    +0.467 C 
ATOM     16  O   LIG A   1      -9.370  -2.187 125.357  0.00  0.00    -0.453 OA
ATOM     17  C   LIG A   1      -8.044  -1.874 125.387  0.00  0.00    +0.170 A 
ATOM     18  C   LIG A   1      -7.454  -1.024 126.306  0.00  0.00    +0.053 A 
ATOM     19  C   LIG A   1      -6.078  -0.764 126.194  0.00  0.00    -0.033 A 
ATOM     20  C   LIG A   1      -5.364  -1.388 125.138  0.00  0.00    +0.053 A 
BRANCH  12  22
ATOM     21  C   LIG A   1      -4.519  -4.051 123.630  0.00  0.00    +0.277 C 
ATOM     22  O   LIG A   1      -5.140  -2.812 123.299  0.00  0.00    -0.491 OA
ENDBRANCH  12  22
ENDBRANCH   1  19
BRANCH   8  23
ATOM     23  O   LIG A   1      -7.272   3.273 123.860  0.00  0.00    -0.372 OA
ATOM     24  C   LIG A   1      -6.017   3.837 123.506  0.00  0.00    +0.195 C 
ENDBRANCH   8  23
BRANCH   9  25
ATOM     25  O   LIG A   1      -8.859   2.830 128.545  0.00  0.00    -0.489 OA
ATOM     26  C   LIG A   1      -8.720   3.877 129.505  0.00  0.00    +0.277 C 
ENDBRANCH   9  25
BRANCH   6  27
ATOM     27  C   LIG A   1      -4.389   2.558 127.463  0.00  0.00    +0.015 C 
BRANCH  27  28
ATOM     28  C   LIG A   1      -3.498   3.164 126.355  0.00  0.00    -0.002 C 
ATOM     29  C   LIG A   1      -2.016   3.088 126.687  0.00  0.00    +0.004 C 
ENDBRANCH  27  28
ENDBRANCH   6  27
TORSDOF 6
ENDMDL
MODEL 2
REMARK VINA RESULT:      -7.0      2.096      6.513
REMARK  Name = NuBBE_2155
REMARK  11 active torsions:
REMARK  status: ('A' for Active; 'I' for Inactive)
REMARK    1  A    between atoms: C_1  and  O_2
REMARK    2  A    between atoms: O_2  and  C_3
REMARK    3  A    between atoms: C_10  and  C_11
REMARK    4  A    between atoms: C_13  and  C_15
REMARK    5  A    between atoms: C_18  and  C_19
REMARK    6  A    between atoms: C_19  and  C_20
REMARK    7  A    between atoms: C_20  and  C_21
REMARK    8  A    between atoms: C_23  and  O_25
REMARK    9  A    between atoms: O_25  and  C_26
REMARK   10  A    between atoms: C_27  and  O_28
REMARK   11  A    between atoms: O_28  and  C_29
REMARK                            x       y       z     vdW  Elec       q    Type
REMARK                         _______ _______ _______ _____ _____    ______ ____
ROOT
ATOM      1  C   LIG A   1      -7.905  -0.866 127.600  0.00  0.00    +0.073 C 
ATOM      2  C   LIG A   1      -6.732  -1.773 128.049  0.00  0.00    +0.178 C 
ATOM      3  C   LIG A   1      -7.110  -2.846 129.064  0.00  0.00    +0.052 C 
ATOM      4  O   LIG A   1      -6.171  -2.395 126.874  0.00  0.00    -0.488 OA
ATOM      5  C   LIG A   1      -6.792  -1.790 125.799  0.00  0.00    +0.150 C 
ATOM      6  C   LIG A   1      -8.158  -1.294 126.126  0.00  0.00    +0.045 C 
ATOM      7  C   LIG A   1      -8.708  -0.176 125.212  0.00  0.00    +0.055 C 
ATOM      8  C   LIG A   1      -7.713   0.374 124.180  0.00  0.00    +0.193 C 
ATOM      9  C   LIG A   1      -6.141  -1.597 124.644  0.00  0.00    +0.203 C 
ATOM     10  C   LIG A   1      -6.865  -0.768 123.601  0.00  0.00    +0.229 C 
ATOM     11  O   LIG A   1      -6.725  -0.973 122.392  0.00  0.00    -0.286 OA
ENDROOT
BRANCH   1  19
ATOM     12  C   LIG A   1      -8.165   2.894 128.574  0.00  0.00    +0.166 A 
ATOM     13  C   LIG A   1      -6.877   3.293 128.271  0.00  0.00    +0.207 A 
ATOM     14  O   LIG A   1      -6.347   4.543 128.384  0.00  0.00    -0.449 OA
ATOM     15  C   LIG A   1      -5.039   4.355 127.824  0.00  0.00    +0.467 C 
ATOM     16  O   LIG A   1      -4.750   2.979 127.513  0.00  0.00    -0.453 OA
ATOM     17  C   LIG A   1      -5.954   2.398 127.778  0.00  0.00    +0.170 A 
ATOM     18  C   LIG A   1      -6.247   1.060 127.574  0.00  0.00    +0.053 A 
ATOM     19  C   LIG A   1      -7.545   0.605 127.861  0.00  0.00    -0.033 A 
ATOM     20  C   LIG A   1      -8.491   1.547 128.343  0.00  0.00    +0.053 A 
BRANCH  12  22
ATOM     21  C   LIG A   1      -9.802   3.201 130.268  0.00  0.00    +0.277 C 
ATOM     22  O   LIG A   1      -9.182   3.658 129.069  0.00  0.00    -0.491 OA
ENDBRANCH  12  22
ENDBRANCH   1  19
BRANCH   8  23
ATOM     23  O   LIG A   1      -8.422   1.078 123.151  0.00  0.00    -0.372 OA
ATOM     24  C   LIG A   1      -9.789   0.712 123.016  0.00  0.00    +0.195 C 
ENDBRANCH   8  23
BRANCH   9  25
ATOM     25  O   LIG A   1      -4.875  -2.138 124.466  0.00  0.00    -0.489 OA
ATOM     26  C   LIG A   1      -4.794  -3.413 123.830  0.00  0.00    +0.277 C 
ENDBRANCH   9  25
BRANCH   6  27
ATOM     27  C   LIG A   1      -9.181  -2.492 126.064  0.00  0.00    +0.015 C 
BRANCH  27  28
ATOM     28  C   LIG A   1      -8.843  -3.575 125.015  0.00  0.00    -0.002 C 
ATOM     29  C   LIG A   1      -9.509  -3.320 123.672  0.00  0.00    +0.004 C 
ENDBRANCH  27  28
ENDBRANCH   6  27
TORSDOF 6
ENDMDL
MODEL 3
REMARK VINA RESULT:      -6.9      1.205      2.243
REMARK  Name = NuBBE_2155
REMARK  11 active torsions:
REMARK  status: ('A' for Active; 'I' for Inactive)
REMARK    1  A    between atoms: C_1  and  O_2
REMARK    2  A    between atoms: O_2  and  C_3
REMARK    3  A    between atoms: C_10  and  C_11
REMARK    4  A    between atoms: C_13  and  C_15
REMARK    5  A    between atoms: C_18  and  C_19
REMARK    6  A    between atoms: C_19  and  C_20
REMARK    7  A    between atoms: C_20  and  C_21
REMARK    8  A    between atoms: C_23  and  O_25
REMARK    9  A    between atoms: O_25  and  C_26
REMARK   10  A    between atoms: C_27  and  O_28
REMARK   11  A    between atoms: O_28  and  C_29
REMARK                            x       y       z     vdW  Elec       q    Type
REMARK                         _______ _______ _______ _____ _____    ______ ____
ROOT
ATOM      1  C   LIG A   1      -5.099   1.287 127.447  0.00  0.00    +0.073 C 
ATOM      2  C   LIG A   1      -5.538   1.330 128.933  0.00  0.00    +0.178 C 
ATOM      3  C   LIG A   1      -4.390   1.388 129.933  0.00  0.00    +0.052 C 
ATOM      4  O   LIG A   1      -6.396   2.476 129.112  0.00  0.00    -0.488 OA
ATOM      5  C   LIG A   1      -6.626   2.974 127.845  0.00  0.00    +0.150 C 
ATOM      6  C   LIG A   1      -5.512   2.684 126.900  0.00  0.00    +0.045 C 
ATOM      7  C   LIG A   1      -5.876   2.710 125.398  0.00  0.00    +0.055 C 
ATOM      8  C   LIG A   1      -7.369   2.887 125.089  0.00  0.00    +0.193 C 
ATOM      9  C   LIG A   1      -7.797   3.546 127.529  0.00  0.00    +0.203 C 
ATOM     10  C   LIG A   1      -7.996   3.892 126.067  0.00  0.00    +0.229 C 
ATOM     11  O   LIG A   1      -8.660   4.871 125.713  0.00  0.00    -0.286 OA
ENDROOT
BRANCH   1  19
ATOM     12  C   LIG A   1      -7.425  -1.729 126.645  0.00  0.00    +0.166 A 
ATOM     13  C   LIG A   1      -6.761  -2.238 125.545  0.00  0.00    +0.207 A 
ATOM     14  O   LIG A   1      -7.091  -3.337 124.811  0.00  0.00    -0.449 OA
ATOM     15  C   LIG A   1      -5.986  -3.418 123.897  0.00  0.00    +0.467 C 
ATOM     16  O   LIG A   1      -5.087  -2.298 123.999  0.00  0.00    -0.453 OA
ATOM     17  C   LIG A   1      -5.615  -1.641 125.070  0.00  0.00    +0.170 A 
ATOM     18  C   LIG A   1      -5.073  -0.503 125.643  0.00  0.00    +0.053 A 
ATOM     19  C   LIG A   1      -5.708   0.050 126.768  0.00  0.00    -0.033 A 
ATOM     20  C   LIG A   1      -6.873  -0.594 127.261  0.00  0.00    +0.053 A 
BRANCH  12  22
ATOM     21  C   LIG A   1      -8.428  -3.338 128.077  0.00  0.00    +0.277 C 
ATOM     22  O   LIG A   1      -8.566  -2.204 127.226  0.00  0.00    -0.491 OA
ENDBRANCH  12  22
ENDBRANCH   1  19
BRANCH   8  23
ATOM     23  O   LIG A   1      -7.536   3.303 123.726  0.00  0.00    -0.372 OA
ATOM     24  C   LIG A   1      -6.328   3.642 123.059  0.00  0.00    +0.195 C 
ENDBRANCH   8  23
BRANCH   9  25
ATOM     25  O   LIG A   1      -8.740   3.779 128.521  0.00  0.00    -0.489 OA
ATOM     26  C   LIG A   1      -8.664   5.024 129.214  0.00  0.00    +0.277 C 
ENDBRANCH   9  25
BRANCH   6  27
ATOM     27  C   LIG A   1      -4.353   3.730 127.117  0.00  0.00    +0.015 C 
BRANCH  27  28
ATOM     28  C   LIG A   1      -3.135   3.545 126.185  0.00  0.00    -0.002 C 
ATOM     29  C   LIG A   1      -1.887   3.098 126.931  0.00  0.00    +0.004 C 
ENDBRANCH  27  28
ENDBRANCH   6  27
TORSDOF 6
ENDMDL
MODEL 4
REMARK VINA RESULT:      -6.8      1.729      2.878
REMARK  Name = NuBBE_2155
REMARK  11 active torsions:
REMARK  status: ('A' for Active; 'I' for Inactive)
REMARK    1  A    between atoms: C_1  and  O_2
REMARK    2  A    between atoms: O_2  and  C_3
REMARK    3  A    between atoms: C_10  and  C_11
REMARK    4  A    between atoms: C_13  and  C_15
REMARK    5  A    between atoms: C_18  and  C_19
REMARK    6  A    between atoms: C_19  and  C_20
REMARK    7  A    between atoms: C_20  and  C_21
REMARK    8  A    between atoms: C_23  and  O_25
REMARK    9  A    between atoms: O_25  and  C_26
REMARK   10  A    between atoms: C_27  and  O_28
REMARK   11  A    between atoms: O_28  and  C_29
REMARK                            x       y       z     vdW  Elec       q    Type
REMARK                         _______ _______ _______ _____ _____    ______ ____
ROOT
ATOM      1  C   LIG A   1      -4.655   1.879 126.164  0.00  0.00    +0.073 C 
ATOM      2  C   LIG A   1      -4.134   2.558 127.456  0.00  0.00    +0.178 C 
ATOM      3  C   LIG A   1      -2.647   2.891 127.444  0.00  0.00    +0.052 C 
ATOM      4  O   LIG A   1      -4.899   3.762 127.668  0.00  0.00    -0.488 OA
ATOM      5  C   LIG A   1      -5.912   3.732 126.729  0.00  0.00    +0.150 C 
ATOM      6  C   LIG A   1      -5.539   2.975 125.502  0.00  0.00    +0.045 C 
ATOM      7  C   LIG A   1      -6.715   2.435 124.656  0.00  0.00    +0.055 C 
ATOM      8  C   LIG A   1      -8.107   2.629 125.274  0.00  0.00    +0.193 C 
ATOM      9  C   LIG A   1      -7.119   4.249 126.998  0.00  0.00    +0.203 C 
ATOM     10  C   LIG A   1      -8.196   4.000 125.960  0.00  0.00    +0.229 C 
ATOM     11  O   LIG A   1      -9.095   4.818 125.743  0.00  0.00    -0.286 OA
ENDROOT
BRANCH   1  19
ATOM     12  C   LIG A   1      -5.907  -1.803 125.982  0.00  0.00    +0.166 A 
ATOM     13  C   LIG A   1      -6.612  -1.859 127.169  0.00  0.00    +0.207 A 
ATOM     14  O   LIG A   1      -7.311  -2.914 127.671  0.00  0.00    -0.449 OA
ATOM     15  C   LIG A   1      -7.902  -2.339 128.847  0.00  0.00    +0.467 C 
ATOM     16  O   LIG A   1      -7.442  -1.000 129.111  0.00  0.00    -0.453 OA
ATOM     17  C   LIG A   1      -6.683  -0.765 128.004  0.00  0.00    +0.170 A 
ATOM     18  C   LIG A   1      -6.051   0.433 127.720  0.00  0.00    +0.053 A 
ATOM     19  C   LIG A   1      -5.327   0.543 126.521  0.00  0.00    -0.033 A 
ATOM     20  C   LIG A   1      -5.286  -0.584 125.660  0.00  0.00    +0.053 A 
BRANCH  12  22
ATOM     21  C   LIG A   1      -6.241  -2.542 123.749  0.00  0.00    +0.277 C 
ATOM     22  O   LIG A   1      -5.744  -2.796 125.060  0.00  0.00    -0.491 OA
ENDBRANCH  12  22
ENDBRANCH   1  19
BRANCH   8  23
ATOM     23  O   LIG A   1      -9.112   2.480 124.261  0.00  0.00    -0.372 OA
ATOM     24  C   LIG A   1      -8.651   2.698 122.935  0.00  0.00    +0.195 C 
ENDBRANCH   8  23
BRANCH   9  25
ATOM     25  O   LIG A   1      -7.320   4.956 128.176  0.00  0.00    -0.489 OA
ATOM     26  C   LIG A   1      -8.155   4.352 129.163  0.00  0.00    +0.277 C 
ENDBRANCH   9  25
BRANCH   6  27
ATOM     27  C   LIG A   1      -4.671   3.894 124.560  0.00  0.00    +0.015 C 
BRANCH  27  28
ATOM     28  C   LIG A   1      -5.450   4.539 123.392  0.00  0.00    -0.002 C 
ATOM     29  C   LIG A   1      -4.675   4.514 122.084  0.00  0.00    +0.004 C 
ENDBRANCH  27  28
ENDBRANCH   6  27
TORSDOF 6
ENDMDL
MODEL 5
REMARK VINA RESULT:      -6.8      5.421      8.870
REMARK  Name = NuBBE_2155
REMARK  11 active torsions:
REMARK  status: ('A' for Active; 'I' for Inactive)
REMARK    1  A    between atoms: C_1  and  O_2
REMARK    2  A    between atoms: O_2  and  C_3
REMARK    3  A    between atoms: C_10  and  C_11
REMARK    4  A    between atoms: C_13  and  C_15
REMARK    5  A    between atoms: C_18  and  C_19
REMARK    6  A    between atoms: C_19  and  C_20
REMARK    7  A    between atoms: C_20  and  C_21
REMARK    8  A    between atoms: C_23  and  O_25
REMARK    9  A    between atoms: O_25  and  C_26
REMARK   10  A    between atoms: C_27  and  O_28
REMARK   11  A    between atoms: O_28  and  C_29
REMARK                            x       y       z     vdW  Elec       q    Type
REMARK                         _______ _______ _______ _____ _____    ______ ____
ROOT
ATOM      1  C   LIG A   1      -4.383   7.121 131.122  0.00  0.00    +0.073 C 
ATOM      2  C   LIG A   1      -4.535   8.034 129.879  0.00  0.00    +0.178 C 
ATOM      3  C   LIG A   1      -3.842   9.386 129.997  0.00  0.00    +0.052 C 
ATOM      4  O   LIG A   1      -4.019   7.323 128.735  0.00  0.00    -0.488 OA
ATOM      5  C   LIG A   1      -3.761   6.040 129.177  0.00  0.00    +0.150 C 
ATOM      6  C   LIG A   1      -3.440   5.984 130.631  0.00  0.00    +0.045 C 
ATOM      7  C   LIG A   1      -3.658   4.618 131.319  0.00  0.00    +0.055 C 
ATOM      8  C   LIG A   1      -4.315   3.542 130.443  0.00  0.00    +0.193 C 
ATOM      9  C   LIG A   1      -3.911   4.986 128.364  0.00  0.00    +0.203 C 
ATOM     10  C   LIG A   1      -3.770   3.621 129.009  0.00  0.00    +0.229 C 
ATOM     11  O   LIG A   1      -3.309   2.654 128.396  0.00  0.00    -0.286 OA
ENDROOT
BRANCH   1  19
ATOM     12  C   LIG A   1      -7.228   5.559 133.271  0.00  0.00    +0.166 A 
ATOM     13  C   LIG A   1      -8.318   5.944 132.515  0.00  0.00    +0.207 A 
ATOM     14  O   LIG A   1      -9.632   5.673 132.751  0.00  0.00    -0.449 OA
ATOM     15  C   LIG A   1     -10.258   6.227 131.584  0.00  0.00    +0.467 C 
ATOM     16  O   LIG A   1      -9.339   6.942 130.737  0.00  0.00    -0.453 OA
ATOM     17  C   LIG A   1      -8.156   6.680 131.362  0.00  0.00    +0.170 A 
ATOM     18  C   LIG A   1      -6.915   7.089 130.904  0.00  0.00    +0.053 A 
ATOM     19  C   LIG A   1      -5.775   6.716 131.635  0.00  0.00    -0.033 A 
ATOM     20  C   LIG A   1      -5.957   5.936 132.806  0.00  0.00    +0.053 A 
BRANCH  12  22
ATOM     21  C   LIG A   1      -7.194   3.419 134.302  0.00  0.00    +0.277 C 
ATOM     22  O   LIG A   1      -7.228   4.837 134.430  0.00  0.00    -0.491 OA
ENDBRANCH  12  22
ENDBRANCH   1  19
BRANCH   8  23
ATOM     23  O   LIG A   1      -4.094   2.247 131.020  0.00  0.00    -0.372 OA
ATOM     24  C   LIG A   1      -5.280   1.516 131.304  0.00  0.00    +0.195 C 
ENDBRANCH   8  23
BRANCH   9  25
ATOM     25  O   LIG A   1      -4.187   5.186 127.018  0.00  0.00    -0.489 OA
ATOM     26  C   LIG A   1      -5.422   4.671 126.522  0.00  0.00    +0.277 C 
ENDBRANCH   9  25
BRANCH   6  27
ATOM     27  C   LIG A   1      -1.930   6.382 130.852  0.00  0.00    +0.015 C 
BRANCH  27  28
ATOM     28  C   LIG A   1      -1.669   7.250 132.104  0.00  0.00    -0.002 C 
ATOM     29  C   LIG A   1      -0.273   7.055 132.672  0.00  0.00    +0.004 C 
ENDBRANCH  27  28
ENDBRANCH   6  27
TORSDOF 6
ENDMDL
MODEL 6
REMARK VINA RESULT:      -6.7      2.523      5.055
REMARK  Name = NuBBE_2155
REMARK  11 active torsions:
REMARK  status: ('A' for Active; 'I' for Inactive)
REMARK    1  A    between atoms: C_1  and  O_2
REMARK    2  A    between atoms: O_2  and  C_3
REMARK    3  A    between atoms: C_10  and  C_11
REMARK    4  A    between atoms: C_13  and  C_15
REMARK    5  A    between atoms: C_18  and  C_19
REMARK    6  A    between atoms: C_19  and  C_20
REMARK    7  A    between atoms: C_20  and  C_21
REMARK    8  A    between atoms: C_23  and  O_25
REMARK    9  A    between atoms: O_25  and  C_26
REMARK   10  A    between atoms: C_27  and  O_28
REMARK   11  A    between atoms: O_28  and  C_29
REMARK                            x       y       z     vdW  Elec       q    Type
REMARK                         _______ _______ _______ _____ _____    ______ ____
ROOT
ATOM      1  C   LIG A   1      -6.557   0.514 127.454  0.00  0.00    +0.073 C 
ATOM      2  C   LIG A   1      -8.001   1.071 127.533  0.00  0.00    +0.178 C 
ATOM      3  C   LIG A   1      -8.109   2.474 128.117  0.00  0.00    +0.052 C 
ATOM      4  O   LIG A   1      -8.560   1.055 126.204  0.00  0.00    -0.488 OA
ATOM      5  C   LIG A   1      -7.644   0.380 125.421  0.00  0.00    +0.150 C 
ATOM      6  C   LIG A   1      -6.249   0.502 125.928  0.00  0.00    +0.045 C 
ATOM      7  C   LIG A   1      -5.265  -0.600 125.474  0.00  0.00    +0.055 C 
ATOM      8  C   LIG A   1      -5.895  -1.752 124.679  0.00  0.00    +0.193 C 
ATOM      9  C   LIG A   1      -8.043  -0.382 124.392  0.00  0.00    +0.203 C 
ATOM     10  C   LIG A   1      -6.965  -1.210 123.720  0.00  0.00    +0.229 C 
ATOM     11  O   LIG A   1      -6.997  -1.466 122.512  0.00  0.00    -0.286 OA
ENDROOT
BRANCH   1  19
ATOM     12  C   LIG A   1      -7.525  -2.925 129.000  0.00  0.00    +0.166 A 
ATOM     13  C   LIG A   1      -6.333  -3.232 129.627  0.00  0.00    +0.207 A 
ATOM     14  O   LIG A   1      -6.047  -4.336 130.373  0.00  0.00    -0.449 OA
ATOM     15  C   LIG A   1      -4.722  -4.037 130.838  0.00  0.00    +0.467 C 
ATOM     16  O   LIG A   1      -4.178  -2.836 130.258  0.00  0.00    -0.453 OA
ATOM     17  C   LIG A   1      -5.254  -2.378 129.558  0.00  0.00    +0.170 A 
ATOM     18  C   LIG A   1      -5.289  -1.187 128.854  0.00  0.00    +0.053 A 
ATOM     19  C   LIG A   1      -6.481  -0.826 128.204  0.00  0.00    -0.033 A 
ATOM     20  C   LIG A   1      -7.591  -1.704 128.308  0.00  0.00    +0.053 A 
BRANCH  12  22
ATOM     21  C   LIG A   1      -9.164  -4.043 127.694  0.00  0.00    +0.277 C 
ATOM     22  O   LIG A   1      -8.672  -3.665 128.976  0.00  0.00    -0.491 OA
ENDBRANCH  12  22
ENDBRANCH   1  19
BRANCH   8  23
ATOM     23  O   LIG A   1      -4.872  -2.471 123.975  0.00  0.00    -0.372 OA
ATOM     24  C   LIG A   1      -5.029  -3.883 123.984  0.00  0.00    +0.195 C 
ENDBRANCH   8  23
BRANCH   9  25
ATOM     25  O   LIG A   1      -9.378  -0.382 124.010  0.00  0.00    -0.489 OA
ATOM     26  C   LIG A   1      -9.768   0.554 123.006  0.00  0.00    +0.277 C 
ENDBRANCH   9  25
BRANCH   6  27
ATOM     27  C   LIG A   1      -5.643   1.885 125.474  0.00  0.00    +0.015 C 
BRANCH  27  28
ATOM     28  C   LIG A   1      -4.450   2.376 126.323  0.00  0.00    -0.002 C 
ATOM     29  C   LIG A   1      -4.372   3.893 126.403  0.00  0.00    +0.004 C 
ENDBRANCH  27  28
ENDBRANCH   6  27
TORSDOF 6
ENDMDL
MODEL 7
REMARK VINA RESULT:      -6.7      1.905      5.978
REMARK  Name = NuBBE_2155
REMARK  11 active torsions:
REMARK  status: ('A' for Active; 'I' for Inactive)
REMARK    1  A    between atoms: C_1  and  O_2
REMARK    2  A    between atoms: O_2  and  C_3
REMARK    3  A    between atoms: C_10  and  C_11
REMARK    4  A    between atoms: C_13  and  C_15
REMARK    5  A    between atoms: C_18  and  C_19
REMARK    6  A    between atoms: C_19  and  C_20
REMARK    7  A    between atoms: C_20  and  C_21
REMARK    8  A    between atoms: C_23  and  O_25
REMARK    9  A    between atoms: O_25  and  C_26
REMARK   10  A    between atoms: C_27  and  O_28
REMARK   11  A    between atoms: O_28  and  C_29
REMARK                            x       y       z     vdW  Elec       q    Type
REMARK                         _______ _______ _______ _____ _____    ______ ____
ROOT
ATOM      1  C   LIG A   1      -5.944   0.381 126.978  0.00  0.00    +0.073 C 
ATOM      2  C   LIG A   1      -5.492   1.703 126.307  0.00  0.00    +0.178 C 
ATOM      3  C   LIG A   1      -3.983   1.914 126.272  0.00  0.00    +0.052 C 
ATOM      4  O   LIG A   1      -6.015   1.723 124.962  0.00  0.00    -0.488 OA
ATOM      5  C   LIG A   1      -6.861   0.636 124.873  0.00  0.00    +0.150 C 
ATOM      6  C   LIG A   1      -6.475  -0.473 125.790  0.00  0.00    +0.045 C 
ATOM      7  C   LIG A   1      -7.599  -1.467 126.159  0.00  0.00    +0.055 C 
ATOM      8  C   LIG A   1      -8.997  -1.095 125.645  0.00  0.00    +0.193 C 
ATOM      9  C   LIG A   1      -7.962   0.677 124.109  0.00  0.00    +0.203 C 
ATOM     10  C   LIG A   1      -8.902  -0.506 124.230  0.00  0.00    +0.229 C 
ATOM     11  O   LIG A   1      -9.570  -0.909 123.273  0.00  0.00    -0.286 OA
ENDROOT
BRANCH   1  19
ATOM     12  C   LIG A   1      -8.580   2.179 129.208  0.00  0.00    +0.166 A 
ATOM     13  C   LIG A   1      -8.655   1.269 130.244  0.00  0.00    +0.207 A 
ATOM     14  O   LIG A   1      -9.418   1.352 131.370  0.00  0.00    -0.449 OA
ATOM     15  C   LIG A   1      -8.988   0.193 132.099  0.00  0.00    +0.467 C 
ATOM     16  O   LIG A   1      -8.084  -0.641 131.350  0.00  0.00    -0.453 OA
ATOM     17  C   LIG A   1      -7.898   0.119 130.234  0.00  0.00    +0.170 A 
ATOM     18  C   LIG A   1      -7.041  -0.202 129.196  0.00  0.00    +0.053 A 
ATOM     19  C   LIG A   1      -6.923   0.695 128.121  0.00  0.00    -0.033 A 
ATOM     20  C   LIG A   1      -7.691   1.888 128.159  0.00  0.00    +0.053 A 
BRANCH  12  22
ATOM     21  C   LIG A   1      -8.525   4.554 129.271  0.00  0.00    +0.277 C 
ATOM     22  O   LIG A   1      -9.265   3.353 129.075  0.00  0.00    -0.491 OA
ENDBRANCH  12  22
ENDBRANCH   1  19
BRANCH   8  23
ATOM     23  O   LIG A   1      -9.850  -2.248 125.680  0.00  0.00    -0.372 OA
ATOM     24  C   LIG A   1      -9.290  -3.378 126.335  0.00  0.00    +0.195 C 
ENDBRANCH   8  23
BRANCH   9  25
ATOM     25  O   LIG A   1      -8.185   1.768 123.280  0.00  0.00    -0.489 OA
ATOM     26  C   LIG A   1      -8.769   2.928 123.871  0.00  0.00    +0.277 C 
ENDBRANCH   9  25
BRANCH   6  27
ATOM     27  C   LIG A   1      -5.307  -1.309 125.142  0.00  0.00    +0.015 C 
BRANCH  27  28
ATOM     28  C   LIG A   1      -5.760  -2.330 124.075  0.00  0.00    -0.002 C 
ATOM     29  C   LIG A   1      -4.625  -3.224 123.599  0.00  0.00    +0.004 C 
ENDBRANCH  27  28
ENDBRANCH   6  27
TORSDOF 6
ENDMDL
MODEL 8
REMARK VINA RESULT:      -6.6      2.155      5.912
REMARK  Name = NuBBE_2155
REMARK  11 active torsions:
REMARK  status: ('A' for Active; 'I' for Inactive)
REMARK    1  A    between atoms: C_1  and  O_2
REMARK    2  A    between atoms: O_2  and  C_3
REMARK    3  A    between atoms: C_10  and  C_11
REMARK    4  A    between atoms: C_13  and  C_15
REMARK    5  A    between atoms: C_18  and  C_19
REMARK    6  A    between atoms: C_19  and  C_20
REMARK    7  A    between atoms: C_20  and  C_21
REMARK    8  A    between atoms: C_23  and  O_25
REMARK    9  A    between atoms: O_25  and  C_26
REMARK   10  A    between atoms: C_27  and  O_28
REMARK   11  A    between atoms: O_28  and  C_29
REMARK                            x       y       z     vdW  Elec       q    Type
REMARK                         _______ _______ _______ _____ _____    ______ ____
ROOT
ATOM      1  C   LIG A   1      -5.886   0.073 127.189  0.00  0.00    +0.073 C 
ATOM      2  C   LIG A   1      -5.814   1.456 126.494  0.00  0.00    +0.178 C 
ATOM      3  C   LIG A   1      -4.401   1.974 126.254  0.00  0.00    +0.052 C 
ATOM      4  O   LIG A   1      -6.515   1.361 125.236  0.00  0.00    -0.488 OA
ATOM      5  C   LIG A   1      -7.125   0.122 125.240  0.00  0.00    +0.150 C 
ATOM      6  C   LIG A   1      -6.393  -0.878 126.066  0.00  0.00    +0.045 C 
ATOM      7  C   LIG A   1      -7.225  -2.082 126.564  0.00  0.00    +0.055 C 
ATOM      8  C   LIG A   1      -8.728  -2.008 126.260  0.00  0.00    +0.193 C 
ATOM      9  C   LIG A   1      -8.308  -0.068 124.639  0.00  0.00    +0.203 C 
ATOM     10  C   LIG A   1      -8.958  -1.420 124.861  0.00  0.00    +0.229 C 
ATOM     11  O   LIG A   1      -9.658  -1.956 123.997  0.00  0.00    -0.286 OA
ENDROOT
BRANCH   1  19
ATOM     12  C   LIG A   1      -7.573  -0.754 130.598  0.00  0.00    +0.166 A 
ATOM     13  C   LIG A   1      -8.339   0.385 130.751  0.00  0.00    +0.207 A 
ATOM     14  O   LIG A   1      -9.189   0.684 131.773  0.00  0.00    -0.449 OA
ATOM     15  C   LIG A   1      -9.764   1.919 131.321  0.00  0.00    +0.467 C 
ATOM     16  O   LIG A   1      -9.157   2.416 130.114  0.00  0.00    -0.453 OA
ATOM     17  C   LIG A   1      -8.318   1.386 129.805  0.00  0.00    +0.170 A 
ATOM     18  C   LIG A   1      -7.529   1.325 128.670  0.00  0.00    +0.053 A 
ATOM     19  C   LIG A   1      -6.736   0.183 128.465  0.00  0.00    -0.033 A 
ATOM     20  C   LIG A   1      -6.790  -0.851 129.435  0.00  0.00    +0.053 A 
BRANCH  12  22
ATOM     21  C   LIG A   1      -7.177  -3.083 130.855  0.00  0.00    +0.277 C 
ATOM     22  O   LIG A   1      -7.486  -1.823 131.443  0.00  0.00    -0.491 OA
ENDBRANCH  12  22
ENDBRANCH   1  19
BRANCH   8  23
ATOM     23  O   LIG A   1      -9.313  -3.313 126.386  0.00  0.00    -0.372 OA
ATOM     24  C   LIG A   1      -9.000  -3.987 127.597  0.00  0.00    +0.195 C 
ENDBRANCH   8  23
BRANCH   9  25
ATOM     25  O   LIG A   1      -8.865   0.949 123.876  0.00  0.00    -0.489 OA
ATOM     26  C   LIG A   1     -10.114   1.483 124.314  0.00  0.00    +0.277 C 
ENDBRANCH   9  25
BRANCH   6  27
ATOM     27  C   LIG A   1      -5.182  -1.458 125.241  0.00  0.00    +0.015 C 
BRANCH  27  28
ATOM     28  C   LIG A   1      -5.581  -2.426 124.105  0.00  0.00    -0.002 C 
ATOM     29  C   LIG A   1      -4.652  -3.626 124.003  0.00  0.00    +0.004 C 
ENDBRANCH  27  28
ENDBRANCH   6  27
TORSDOF 6
ENDMDL
MODEL 9
REMARK VINA RESULT:      -6.6      4.879      8.324
REMARK  Name = NuBBE_2155
REMARK  11 active torsions:
REMARK  status: ('A' for Active; 'I' for Inactive)
REMARK    1  A    between atoms: C_1  and  O_2
REMARK    2  A    between atoms: O_2  and  C_3
REMARK    3  A    between atoms: C_10  and  C_11
REMARK    4  A    between atoms: C_13  and  C_15
REMARK    5  A    between atoms: C_18  and  C_19
REMARK    6  A    between atoms: C_19  and  C_20
REMARK    7  A    between atoms: C_20  and  C_21
REMARK    8  A    between atoms: C_23  and  O_25
REMARK    9  A    between atoms: O_25  and  C_26
REMARK   10  A    between atoms: C_27  and  O_28
REMARK   11  A    between atoms: O_28  and  C_29
REMARK                            x       y       z     vdW  Elec       q    Type
REMARK                         _______ _______ _______ _____ _____    ______ ____
ROOT
ATOM      1  C   LIG A   1      -6.898   3.477 129.602  0.00  0.00    +0.073 C 
ATOM      2  C   LIG A   1      -7.217   4.035 128.192  0.00  0.00    +0.178 C 
ATOM      3  C   LIG A   1      -7.419   2.972 127.119  0.00  0.00    +0.052 C 
ATOM      4  O   LIG A   1      -8.401   4.853 128.292  0.00  0.00    -0.488 OA
ATOM      5  C   LIG A   1      -8.671   4.956 129.642  0.00  0.00    +0.150 C 
ATOM      6  C   LIG A   1      -8.186   3.782 130.419  0.00  0.00    +0.045 C 
ATOM      7  C   LIG A   1      -7.955   4.018 131.929  0.00  0.00    +0.055 C 
ATOM      8  C   LIG A   1      -8.118   5.472 132.396  0.00  0.00    +0.193 C 
ATOM      9  C   LIG A   1      -9.212   6.070 130.156  0.00  0.00    +0.203 C 
ATOM     10  C   LIG A   1      -9.298   6.132 131.669  0.00  0.00    +0.229 C 
ATOM     11  O   LIG A   1     -10.216   6.721 132.246  0.00  0.00    -0.286 OA
ENDROOT
BRANCH   1  19
ATOM     12  C   LIG A   1      -3.773   5.771 129.961  0.00  0.00    +0.166 A 
ATOM     13  C   LIG A   1      -3.141   5.126 131.007  0.00  0.00    +0.207 A 
ATOM     14  O   LIG A   1      -1.955   5.456 131.590  0.00  0.00    -0.449 OA
ATOM     15  C   LIG A   1      -1.776   4.373 132.516  0.00  0.00    +0.467 C 
ATOM     16  O   LIG A   1      -2.912   3.490 132.578  0.00  0.00    -0.453 OA
ATOM     17  C   LIG A   1      -3.690   4.002 131.583  0.00  0.00    +0.170 A 
ATOM     18  C   LIG A   1      -4.898   3.466 131.171  0.00  0.00    +0.053 A 
ATOM     19  C   LIG A   1      -5.577   4.081 130.106  0.00  0.00    -0.033 A 
ATOM     20  C   LIG A   1      -4.984   5.223 129.506  0.00  0.00    +0.053 A 
BRANCH  12  22
ATOM     21  C   LIG A   1      -2.387   6.700 128.270  0.00  0.00    +0.277 C 
ATOM     22  O   LIG A   1      -3.359   6.888 129.295  0.00  0.00    -0.491 OA
ENDBRANCH  12  22
ENDBRANCH   1  19
BRANCH   8  23
ATOM     23  O   LIG A   1      -8.289   5.507 133.820  0.00  0.00    -0.372 OA
ATOM     24  C   LIG A   1      -8.448   4.233 134.428  0.00  0.00    +0.195 C 
ENDBRANCH   8  23
BRANCH   9  25
ATOM     25  O   LIG A   1      -9.645   7.081 129.309  0.00  0.00    -0.489 OA
ATOM     26  C   LIG A   1     -11.015   7.056 128.911  0.00  0.00    +0.277 C 
ENDBRANCH   9  25
BRANCH   6  27
ATOM     27  C   LIG A   1      -9.220   2.599 130.286  0.00  0.00    +0.015 C 
BRANCH  27  28
ATOM     28  C   LIG A   1      -9.667   1.979 131.629  0.00  0.00    -0.002 C 
ATOM     29  C   LIG A   1      -9.195   0.543 131.798  0.00  0.00    +0.004 C 
ENDBRANCH  27  28
ENDBRANCH   6  27
TORSDOF 6
ENDMDL
