MODEL 1
REMARK VINA RESULT:      -6.0      0.000      0.000
REMARK  Name = NuBBE_629
REMARK  9 active torsions:
REMARK  status: ('A' for Active; 'I' for Inactive)
REMARK    1  A    between atoms: C_2  and  O_3
REMARK    2  A    between atoms: C_2  and  C_8
REMARK    3  A    between atoms: O_3  and  C_4
REMARK    4  A    between atoms: C_4  and  C_5
REMARK    5  A    between atoms: C_5  and  C_6
REMARK    6  A    between atoms: C_5  and  C_7
REMARK    7  A    between atoms: C_10  and  O_11
REMARK    8  A    between atoms: C_12  and  O_13
REMARK    9  A    between atoms: C_14  and  O_15
REMARK                            x       y       z     vdW  Elec       q    Type
REMARK                         _______ _______ _______ _____ _____    ______ ____
ROOT
ATOM      1  C   LIG A   1      -9.814   5.799 130.241  0.00  0.00    +0.066 A 
ATOM      2  C   LIG A   1      -9.535   6.519 131.415  0.00  0.00    +0.064 A 
ATOM      3  C   LIG A   1      -9.530   5.857 132.635  0.00  0.00    +0.163 A 
ATOM      4  C   LIG A   1      -9.812   4.495 132.691  0.00  0.00    +0.201 A 
ATOM      5  C   LIG A   1     -10.090   3.784 131.530  0.00  0.00    +0.163 A 
ATOM      6  C   LIG A   1     -10.088   4.423 130.298  0.00  0.00    +0.064 A 
ENDROOT
BRANCH   1   8
ATOM      7  O   LIG A   1      -9.576   6.047 127.885  0.00  0.00    -0.245 OA
ATOM      8  C   LIG A   1      -9.865   6.545 128.961  0.00  0.00    +0.339 C 
BRANCH   8   9
ATOM      9  O   LIG A   1     -10.264   7.818 129.184  0.00  0.00    -0.461 OA
BRANCH   9  10
ATOM     10  C   LIG A   1     -10.947   8.456 128.094  0.00  0.00    +0.235 C 
BRANCH  10  11
ATOM     11  C   LIG A   1     -12.438   8.624 128.422  0.00  0.00    +0.021 C 
ATOM     12  C   LIG A   1     -13.254   7.494 127.802  0.00  0.00    +0.010 C 
ATOM     13  C   LIG A   1     -12.675   8.692 129.933  0.00  0.00    +0.010 C 
ENDBRANCH  10  11
ENDBRANCH   9  10
ENDBRANCH   8   9
ENDBRANCH   1   8
BRANCH   3  14
ATOM     14  O   LIG A   1      -9.260   6.500 133.810  0.00  0.00    -0.503 OA
ATOM     15  H   LIG A   1      -8.395   6.940 133.727  0.00  0.00    +0.292 HD
ENDBRANCH   3  14
BRANCH   4  16
ATOM     16  O   LIG A   1      -9.830   3.836 133.895  0.00  0.00    -0.501 OA
ATOM     17  H   LIG A   1      -9.304   3.027 133.732  0.00  0.00    +0.292 HD
ENDBRANCH   4  16
BRANCH   5  18
ATOM     18  O   LIG A   1     -10.377   2.453 131.593  0.00  0.00    -0.503 OA
ATOM     19  H   LIG A   1      -9.813   2.112 132.317  0.00  0.00    +0.292 HD
ENDBRANCH   5  18
TORSDOF 7
ENDMDL
MODEL 2
REMARK VINA RESULT:      -6.0      1.904      2.992
REMARK  Name = NuBBE_629
REMARK  9 active torsions:
REMARK  status: ('A' for Active; 'I' for Inactive)
REMARK    1  A    between atoms: C_2  and  O_3
REMARK    2  A    between atoms: C_2  and  C_8
REMARK    3  A    between atoms: O_3  and  C_4
REMARK    4  A    between atoms: C_4  and  C_5
REMARK    5  A    between atoms: C_5  and  C_6
REMARK    6  A    between atoms: C_5  and  C_7
REMARK    7  A    between atoms: C_10  and  O_11
REMARK    8  A    between atoms: C_12  and  O_13
REMARK    9  A    between atoms: C_14  and  O_15
REMARK                            x       y       z     vdW  Elec       q    Type
REMARK                         _______ _______ _______ _____ _____    ______ ____
ROOT
ATOM      1  C   LIG A   1     -10.392   6.482 131.378  0.00  0.00    +0.066 A 
ATOM      2  C   LIG A   1     -10.192   5.842 132.612  0.00  0.00    +0.064 A 
ATOM      3  C   LIG A   1      -8.901   5.685 133.097  0.00  0.00    +0.163 A 
ATOM      4  C   LIG A   1      -7.816   6.147 132.356  0.00  0.00    +0.201 A 
ATOM      5  C   LIG A   1      -8.015   6.778 131.135  0.00  0.00    +0.163 A 
ATOM      6  C   LIG A   1      -9.298   6.957 130.637  0.00  0.00    +0.064 A 
ENDROOT
BRANCH   1   8
ATOM      7  O   LIG A   1     -12.745   6.788 131.581  0.00  0.00    -0.245 OA
ATOM      8  C   LIG A   1     -11.779   6.586 130.863  0.00  0.00    +0.339 C 
BRANCH   8   9
ATOM      9  O   LIG A   1     -11.787   6.421 129.520  0.00  0.00    -0.461 OA
BRANCH   9  10
ATOM     10  C   LIG A   1     -12.963   6.889 128.842  0.00  0.00    +0.235 C 
BRANCH  10  11
ATOM     11  C   LIG A   1     -12.662   8.191 128.085  0.00  0.00    +0.021 C 
ATOM     12  C   LIG A   1     -13.068   9.402 128.918  0.00  0.00    +0.010 C 
ATOM     13  C   LIG A   1     -11.185   8.280 127.690  0.00  0.00    +0.010 C 
ENDBRANCH  10  11
ENDBRANCH   9  10
ENDBRANCH   8   9
ENDBRANCH   1   8
BRANCH   3  14
ATOM     14  O   LIG A   1      -8.642   5.077 134.293  0.00  0.00    -0.503 OA
ATOM     15  H   LIG A   1      -8.408   5.764 134.942  0.00  0.00    +0.292 HD
ENDBRANCH   3  14
BRANCH   4  16
ATOM     16  O   LIG A   1      -6.535   5.978 132.816  0.00  0.00    -0.501 OA
ATOM     17  H   LIG A   1      -6.626   6.010 133.791  0.00  0.00    +0.292 HD
ENDBRANCH   4  16
BRANCH   5  18
ATOM     18  O   LIG A   1      -6.949   7.218 130.408  0.00  0.00    -0.503 OA
ATOM     19  H   LIG A   1      -6.330   7.583 131.073  0.00  0.00    +0.292 HD
ENDBRANCH   5  18
TORSDOF 7
ENDMDL
MODEL 3
REMARK VINA RESULT:      -6.0      1.912      2.921
REMARK  Name = NuBBE_629
REMARK  9 active torsions:
REMARK  status: ('A' for Active; 'I' for Inactive)
REMARK    1  A    between atoms: C_2  and  O_3
REMARK    2  A    between atoms: C_2  and  C_8
REMARK    3  A    between atoms: O_3  and  C_4
REMARK    4  A    between atoms: C_4  and  C_5
REMARK    5  A    between atoms: C_5  and  C_6
REMARK    6  A    between atoms: C_5  and  C_7
REMARK    7  A    between atoms: C_10  and  O_11
REMARK    8  A    between atoms: C_12  and  O_13
REMARK    9  A    between atoms: C_14  and  O_15
REMARK                            x       y       z     vdW  Elec       q    Type
REMARK                         _______ _______ _______ _____ _____    ______ ____
ROOT
ATOM      1  C   LIG A   1     -10.398   6.396 131.448  0.00  0.00    +0.066 A 
ATOM      2  C   LIG A   1      -9.328   6.924 130.707  0.00  0.00    +0.064 A 
ATOM      3  C   LIG A   1      -8.032   6.778 131.183  0.00  0.00    +0.163 A 
ATOM      4  C   LIG A   1      -7.801   6.126 132.391  0.00  0.00    +0.201 A 
ATOM      5  C   LIG A   1      -8.861   5.607 133.124  0.00  0.00    +0.163 A 
ATOM      6  C   LIG A   1     -10.163   5.730 132.661  0.00  0.00    +0.064 A 
ENDROOT
BRANCH   1   8
ATOM      7  O   LIG A   1     -12.721   6.870 131.665  0.00  0.00    -0.245 OA
ATOM      8  C   LIG A   1     -11.773   6.616 130.940  0.00  0.00    +0.339 C 
BRANCH   8   9
ATOM      9  O   LIG A   1     -11.794   6.487 129.593  0.00  0.00    -0.461 OA
BRANCH   9  10
ATOM     10  C   LIG A   1     -12.965   6.997 128.937  0.00  0.00    +0.235 C 
BRANCH  10  11
ATOM     11  C   LIG A   1     -12.640   8.307 128.206  0.00  0.00    +0.021 C 
ATOM     12  C   LIG A   1     -12.972   9.509 129.085  0.00  0.00    +0.010 C 
ATOM     13  C   LIG A   1     -11.175   8.353 127.762  0.00  0.00    +0.010 C 
ENDBRANCH  10  11
ENDBRANCH   9  10
ENDBRANCH   8   9
ENDBRANCH   1   8
BRANCH   3  14
ATOM     14  O   LIG A   1      -6.949   7.263 130.505  0.00  0.00    -0.503 OA
ATOM     15  H   LIG A   1      -6.398   6.510 130.227  0.00  0.00    +0.292 HD
ENDBRANCH   3  14
BRANCH   4  16
ATOM     16  O   LIG A   1      -6.526   5.995 132.880  0.00  0.00    -0.501 OA
ATOM     17  H   LIG A   1      -6.649   5.922 133.849  0.00  0.00    +0.292 HD
ENDBRANCH   4  16
BRANCH   5  18
ATOM     18  O   LIG A   1      -8.630   4.979 134.313  0.00  0.00    -0.503 OA
ATOM     19  H   LIG A   1      -9.346   5.293 134.901  0.00  0.00    +0.292 HD
ENDBRANCH   5  18
TORSDOF 7
ENDMDL
MODEL 4
REMARK VINA RESULT:      -5.9      8.600     11.045
REMARK  Name = NuBBE_629
REMARK  9 active torsions:
REMARK  status: ('A' for Active; 'I' for Inactive)
REMARK    1  A    between atoms: C_2  and  O_3
REMARK    2  A    between atoms: C_2  and  C_8
REMARK    3  A    between atoms: O_3  and  C_4
REMARK    4  A    between atoms: C_4  and  C_5
REMARK    5  A    between atoms: C_5  and  C_6
REMARK    6  A    between atoms: C_5  and  C_7
REMARK    7  A    between atoms: C_10  and  O_11
REMARK    8  A    between atoms: C_12  and  O_13
REMARK    9  A    between atoms: C_14  and  O_15
REMARK                            x       y       z     vdW  Elec       q    Type
REMARK                         _______ _______ _______ _____ _____    ______ ____
ROOT
ATOM      1  C   LIG A   1      -6.312   3.552 122.052  0.00  0.00    +0.066 A 
ATOM      2  C   LIG A   1      -5.209   4.417 122.151  0.00  0.00    +0.064 A 
ATOM      3  C   LIG A   1      -4.876   5.222 121.070  0.00  0.00    +0.163 A 
ATOM      4  C   LIG A   1      -5.623   5.159 119.897  0.00  0.00    +0.201 A 
ATOM      5  C   LIG A   1      -6.712   4.302 119.800  0.00  0.00    +0.163 A 
ATOM      6  C   LIG A   1      -7.070   3.497 120.872  0.00  0.00    +0.064 A 
ENDROOT
BRANCH   1   8
ATOM      7  O   LIG A   1      -6.591   3.049 124.363  0.00  0.00    -0.245 OA
ATOM      8  C   LIG A   1      -6.608   2.666 123.204  0.00  0.00    +0.339 C 
BRANCH   8   9
ATOM      9  O   LIG A   1      -6.885   1.416 122.766  0.00  0.00    -0.461 OA
BRANCH   9  10
ATOM     10  C   LIG A   1      -7.872   0.697 123.520  0.00  0.00    +0.235 C 
BRANCH  10  11
ATOM     11  C   LIG A   1      -9.284   1.162 123.133  0.00  0.00    +0.021 C 
ATOM     12  C   LIG A   1     -10.026   0.057 122.387  0.00  0.00    +0.010 C 
ATOM     13  C   LIG A   1     -10.081   1.613 124.360  0.00  0.00    +0.010 C 
ENDBRANCH  10  11
ENDBRANCH   9  10
ENDBRANCH   8   9
ENDBRANCH   1   8
BRANCH   3  14
ATOM     14  O   LIG A   1      -3.820   6.088 121.107  0.00  0.00    -0.503 OA
ATOM     15  H   LIG A   1      -3.023   5.613 120.812  0.00  0.00    +0.292 HD
ENDBRANCH   3  14
BRANCH   4  16
ATOM     16  O   LIG A   1      -5.289   5.936 118.816  0.00  0.00    -0.501 OA
ATOM     17  H   LIG A   1      -5.061   5.288 118.119  0.00  0.00    +0.292 HD
ENDBRANCH   4  16
BRANCH   5  18
ATOM     18  O   LIG A   1      -7.433   4.237 118.644  0.00  0.00    -0.503 OA
ATOM     19  H   LIG A   1      -6.902   3.666 118.053  0.00  0.00    +0.292 HD
ENDBRANCH   5  18
TORSDOF 7
ENDMDL
MODEL 5
REMARK VINA RESULT:      -5.9      0.214      2.081
REMARK  Name = NuBBE_629
REMARK  9 active torsions:
REMARK  status: ('A' for Active; 'I' for Inactive)
REMARK    1  A    between atoms: C_2  and  O_3
REMARK    2  A    between atoms: C_2  and  C_8
REMARK    3  A    between atoms: O_3  and  C_4
REMARK    4  A    between atoms: C_4  and  C_5
REMARK    5  A    between atoms: C_5  and  C_6
REMARK    6  A    between atoms: C_5  and  C_7
REMARK    7  A    between atoms: C_10  and  O_11
REMARK    8  A    between atoms: C_12  and  O_13
REMARK    9  A    between atoms: C_14  and  O_15
REMARK                            x       y       z     vdW  Elec       q    Type
REMARK                         _______ _______ _______ _____ _____    ______ ____
ROOT
ATOM      1  C   LIG A   1      -9.884   5.884 130.214  0.00  0.00    +0.066 A 
ATOM      2  C   LIG A   1     -10.194   4.514 130.225  0.00  0.00    +0.064 A 
ATOM      3  C   LIG A   1     -10.164   3.818 131.425  0.00  0.00    +0.163 A 
ATOM      4  C   LIG A   1      -9.816   4.474 132.603  0.00  0.00    +0.201 A 
ATOM      5  C   LIG A   1      -9.507   5.828 132.591  0.00  0.00    +0.163 A 
ATOM      6  C   LIG A   1      -9.543   6.546 131.404  0.00  0.00    +0.064 A 
ENDROOT
BRANCH   1   8
ATOM      7  O   LIG A   1      -9.436   6.085 127.884  0.00  0.00    -0.245 OA
ATOM      8  C   LIG A   1      -9.873   6.586 128.908  0.00  0.00    +0.339 C 
BRANCH   8   9
ATOM      9  O   LIG A   1     -10.402   7.824 129.043  0.00  0.00    -0.461 OA
BRANCH   9  10
ATOM     10  C   LIG A   1     -11.128   8.318 127.907  0.00  0.00    +0.235 C 
BRANCH  10  11
ATOM     11  C   LIG A   1     -12.605   8.531 128.267  0.00  0.00    +0.021 C 
ATOM     12  C   LIG A   1     -13.388   7.231 128.108  0.00  0.00    +0.010 C 
ATOM     13  C   LIG A   1     -12.762   9.084 129.686  0.00  0.00    +0.010 C 
ENDBRANCH  10  11
ENDBRANCH   9  10
ENDBRANCH   8   9
ENDBRANCH   1   8
BRANCH   3  14
ATOM     14  O   LIG A   1     -10.461   2.487 131.502  0.00  0.00    -0.503 OA
ATOM     15  H   LIG A   1     -11.240   2.314 130.945  0.00  0.00    +0.292 HD
ENDBRANCH   3  14
BRANCH   4  16
ATOM     16  O   LIG A   1      -9.763   3.790 133.792  0.00  0.00    -0.501 OA
ATOM     17  H   LIG A   1     -10.604   4.019 134.236  0.00  0.00    +0.292 HD
ENDBRANCH   4  16
BRANCH   5  18
ATOM     18  O   LIG A   1      -9.156   6.462 133.746  0.00  0.00    -0.503 OA
ATOM     19  H   LIG A   1      -9.834   7.158 133.862  0.00  0.00    +0.292 HD
ENDBRANCH   5  18
TORSDOF 7
ENDMDL
MODEL 6
REMARK VINA RESULT:      -5.7      8.185     10.583
REMARK  Name = NuBBE_629
REMARK  9 active torsions:
REMARK  status: ('A' for Active; 'I' for Inactive)
REMARK    1  A    between atoms: C_2  and  O_3
REMARK    2  A    between atoms: C_2  and  C_8
REMARK    3  A    between atoms: O_3  and  C_4
REMARK    4  A    between atoms: C_4  and  C_5
REMARK    5  A    between atoms: C_5  and  C_6
REMARK    6  A    between atoms: C_5  and  C_7
REMARK    7  A    between atoms: C_10  and  O_11
REMARK    8  A    between atoms: C_12  and  O_13
REMARK    9  A    between atoms: C_14  and  O_15
REMARK                            x       y       z     vdW  Elec       q    Type
REMARK                         _______ _______ _______ _____ _____    ______ ____
ROOT
ATOM      1  C   LIG A   1      -9.000  -0.729 124.419  0.00  0.00    +0.066 A 
ATOM      2  C   LIG A   1      -9.080   0.105 123.291  0.00  0.00    +0.064 A 
ATOM      3  C   LIG A   1      -9.134   1.481 123.465  0.00  0.00    +0.163 A 
ATOM      4  C   LIG A   1      -9.121   2.024 124.747  0.00  0.00    +0.201 A 
ATOM      5  C   LIG A   1      -9.044   1.198 125.861  0.00  0.00    +0.163 A 
ATOM      6  C   LIG A   1      -8.977  -0.180 125.710  0.00  0.00    +0.064 A 
ENDROOT
BRANCH   1   8
ATOM      7  O   LIG A   1      -9.751  -2.757 123.423  0.00  0.00    -0.245 OA
ATOM      8  C   LIG A   1      -8.998  -2.196 124.202  0.00  0.00    +0.339 C 
BRANCH   8   9
ATOM      9  O   LIG A   1      -8.062  -2.778 124.986  0.00  0.00    -0.461 OA
BRANCH   9  10
ATOM     10  C   LIG A   1      -7.049  -3.526 124.296  0.00  0.00    +0.235 C 
BRANCH  10  11
ATOM     11  C   LIG A   1      -5.872  -2.614 123.921  0.00  0.00    +0.021 C 
ATOM     12  C   LIG A   1      -5.488  -1.724 125.099  0.00  0.00    +0.010 C 
ATOM     13  C   LIG A   1      -4.665  -3.426 123.443  0.00  0.00    +0.010 C 
ENDBRANCH  10  11
ENDBRANCH   9  10
ENDBRANCH   8   9
ENDBRANCH   1   8
BRANCH   3  14
ATOM     14  O   LIG A   1      -9.206   2.345 122.408  0.00  0.00    -0.503 OA
ATOM     15  H   LIG A   1      -8.618   3.100 122.588  0.00  0.00    +0.292 HD
ENDBRANCH   3  14
BRANCH   4  16
ATOM     16  O   LIG A   1      -9.196   3.382 124.929  0.00  0.00    -0.501 OA
ATOM     17  H   LIG A   1      -8.842   3.521 125.831  0.00  0.00    +0.292 HD
ENDBRANCH   4  16
BRANCH   5  18
ATOM     18  O   LIG A   1      -9.044   1.735 127.114  0.00  0.00    -0.503 OA
ATOM     19  H   LIG A   1      -9.917   1.497 127.486  0.00  0.00    +0.292 HD
ENDBRANCH   5  18
TORSDOF 7
ENDMDL
MODEL 7
REMARK VINA RESULT:      -5.6      8.195     10.540
REMARK  Name = NuBBE_629
REMARK  9 active torsions:
REMARK  status: ('A' for Active; 'I' for Inactive)
REMARK    1  A    between atoms: C_2  and  O_3
REMARK    2  A    between atoms: C_2  and  C_8
REMARK    3  A    between atoms: O_3  and  C_4
REMARK    4  A    between atoms: C_4  and  C_5
REMARK    5  A    between atoms: C_5  and  C_6
REMARK    6  A    between atoms: C_5  and  C_7
REMARK    7  A    between atoms: C_10  and  O_11
REMARK    8  A    between atoms: C_12  and  O_13
REMARK    9  A    between atoms: C_14  and  O_15
REMARK                            x       y       z     vdW  Elec       q    Type
REMARK                         _______ _______ _______ _____ _____    ______ ____
ROOT
ATOM      1  C   LIG A   1      -9.101  -0.699 124.522  0.00  0.00    +0.066 A 
ATOM      2  C   LIG A   1      -9.005  -0.111 125.794  0.00  0.00    +0.064 A 
ATOM      3  C   LIG A   1      -9.008   1.273 125.906  0.00  0.00    +0.163 A 
ATOM      4  C   LIG A   1      -9.092   2.066 124.765  0.00  0.00    +0.201 A 
ATOM      5  C   LIG A   1      -9.185   1.482 123.508  0.00  0.00    +0.163 A 
ATOM      6  C   LIG A   1      -9.196   0.102 123.373  0.00  0.00    +0.064 A 
ENDROOT
BRANCH   1   8
ATOM      7  O   LIG A   1      -9.759  -2.917 125.085  0.00  0.00    -0.245 OA
ATOM      8  C   LIG A   1      -9.041  -2.178 124.432  0.00  0.00    +0.339 C 
BRANCH   8   9
ATOM      9  O   LIG A   1      -8.090  -2.548 123.543  0.00  0.00    -0.461 OA
BRANCH   9  10
ATOM     10  C   LIG A   1      -7.059  -3.406 124.055  0.00  0.00    +0.235 C 
BRANCH  10  11
ATOM     11  C   LIG A   1      -5.674  -2.814 123.758  0.00  0.00    +0.021 C 
ATOM     12  C   LIG A   1      -5.341  -1.705 124.751  0.00  0.00    +0.010 C 
ATOM     13  C   LIG A   1      -4.588  -3.893 123.773  0.00  0.00    +0.010 C 
ENDBRANCH  10  11
ENDBRANCH   9  10
ENDBRANCH   8   9
ENDBRANCH   1   8
BRANCH   3  14
ATOM     14  O   LIG A   1      -8.923   1.904 127.115  0.00  0.00    -0.503 OA
ATOM     15  H   LIG A   1      -9.455   1.405 127.760  0.00  0.00    +0.292 HD
ENDBRANCH   3  14
BRANCH   4  16
ATOM     16  O   LIG A   1      -9.074   3.434 124.864  0.00  0.00    -0.501 OA
ATOM     17  H   LIG A   1      -9.979   3.703 124.606  0.00  0.00    +0.292 HD
ENDBRANCH   4  16
BRANCH   5  18
ATOM     18  O   LIG A   1      -9.256   2.264 122.393  0.00  0.00    -0.503 OA
ATOM     19  H   LIG A   1      -8.844   1.726 121.687  0.00  0.00    +0.292 HD
ENDBRANCH   5  18
TORSDOF 7
ENDMDL
MODEL 8
REMARK VINA RESULT:      -5.6      2.108      5.012
REMARK  Name = NuBBE_629
REMARK  9 active torsions:
REMARK  status: ('A' for Active; 'I' for Inactive)
REMARK    1  A    between atoms: C_2  and  O_3
REMARK    2  A    between atoms: C_2  and  C_8
REMARK    3  A    between atoms: O_3  and  C_4
REMARK    4  A    between atoms: C_4  and  C_5
REMARK    5  A    between atoms: C_5  and  C_6
REMARK    6  A    between atoms: C_5  and  C_7
REMARK    7  A    between atoms: C_10  and  O_11
REMARK    8  A    between atoms: C_12  and  O_13
REMARK    9  A    between atoms: C_14  and  O_15
REMARK                            x       y       z     vdW  Elec       q    Type
REMARK                         _______ _______ _______ _____ _____    ______ ____
ROOT
ATOM      1  C   LIG A   1     -10.547   5.768 129.990  0.00  0.00    +0.066 A 
ATOM      2  C   LIG A   1     -10.242   6.745 129.028  0.00  0.00    +0.064 A 
ATOM      3  C   LIG A   1     -10.998   7.909 128.976  0.00  0.00    +0.163 A 
ATOM      4  C   LIG A   1     -12.055   8.094 129.862  0.00  0.00    +0.201 A 
ATOM      5  C   LIG A   1     -12.357   7.126 130.812  0.00  0.00    +0.163 A 
ATOM      6  C   LIG A   1     -11.607   5.961 130.890  0.00  0.00    +0.064 A 
ENDROOT
BRANCH   1   8
ATOM      7  O   LIG A   1     -10.260   3.406 129.905  0.00  0.00    -0.245 OA
ATOM      8  C   LIG A   1      -9.756   4.514 129.984  0.00  0.00    +0.339 C 
BRANCH   8   9
ATOM      9  O   LIG A   1      -8.436   4.799 130.081  0.00  0.00    -0.461 OA
BRANCH   9  10
ATOM     10  C   LIG A   1      -7.801   4.394 131.303  0.00  0.00    +0.235 C 
BRANCH  10  11
ATOM     11  C   LIG A   1      -7.442   5.622 132.152  0.00  0.00    +0.021 C 
ATOM     12  C   LIG A   1      -7.182   6.832 131.261  0.00  0.00    +0.010 C 
ATOM     13  C   LIG A   1      -8.536   5.933 133.177  0.00  0.00    +0.010 C 
ENDBRANCH  10  11
ENDBRANCH   9  10
ENDBRANCH   8   9
ENDBRANCH   1   8
BRANCH   3  14
ATOM     14  O   LIG A   1     -10.748   8.898 128.068  0.00  0.00    -0.503 OA
ATOM     15  H   LIG A   1     -11.253   9.689 128.328  0.00  0.00    +0.292 HD
ENDBRANCH   3  14
BRANCH   4  16
ATOM     16  O   LIG A   1     -12.822   9.231 129.805  0.00  0.00    -0.501 OA
ATOM     17  H   LIG A   1     -12.167   9.956 129.737  0.00  0.00    +0.292 HD
ENDBRANCH   4  16
BRANCH   5  18
ATOM     18  O   LIG A   1     -13.401   7.308 131.670  0.00  0.00    -0.503 OA
ATOM     19  H   LIG A   1     -13.986   7.947 131.216  0.00  0.00    +0.292 HD
ENDBRANCH   5  18
TORSDOF 7
ENDMDL
MODEL 9
REMARK VINA RESULT:      -5.6      8.976     11.492
REMARK  Name = NuBBE_629
REMARK  9 active torsions:
REMARK  status: ('A' for Active; 'I' for Inactive)
REMARK    1  A    between atoms: C_2  and  O_3
REMARK    2  A    between atoms: C_2  and  C_8
REMARK    3  A    between atoms: O_3  and  C_4
REMARK    4  A    between atoms: C_4  and  C_5
REMARK    5  A    between atoms: C_5  and  C_6
REMARK    6  A    between atoms: C_5  and  C_7
REMARK    7  A    between atoms: C_10  and  O_11
REMARK    8  A    between atoms: C_12  and  O_13
REMARK    9  A    between atoms: C_14  and  O_15
REMARK                            x       y       z     vdW  Elec       q    Type
REMARK                         _______ _______ _______ _____ _____    ______ ____
ROOT
ATOM      1  C   LIG A   1      -6.148   3.572 122.094  0.00  0.00    +0.066 A 
ATOM      2  C   LIG A   1      -6.950   3.476 120.944  0.00  0.00    +0.064 A 
ATOM      3  C   LIG A   1      -6.669   4.281 119.849  0.00  0.00    +0.163 A 
ATOM      4  C   LIG A   1      -5.610   5.182 119.898  0.00  0.00    +0.201 A 
ATOM      5  C   LIG A   1      -4.819   5.278 121.037  0.00  0.00    +0.163 A 
ATOM      6  C   LIG A   1      -5.074   4.475 122.139  0.00  0.00    +0.064 A 
ENDROOT
BRANCH   1   8
ATOM      7  O   LIG A   1      -6.360   3.108 124.420  0.00  0.00    -0.245 OA
ATOM      8  C   LIG A   1      -6.508   2.738 123.266  0.00  0.00    +0.339 C 
BRANCH   8   9
ATOM      9  O   LIG A   1      -7.002   1.548 122.853  0.00  0.00    -0.461 OA
BRANCH   9  10
ATOM     10  C   LIG A   1      -8.146   1.065 123.574  0.00  0.00    +0.235 C 
BRANCH  10  11
ATOM     11  C   LIG A   1      -8.162  -0.470 123.585  0.00  0.00    +0.021 C 
ATOM     12  C   LIG A   1      -6.816  -1.023 123.130  0.00  0.00    +0.010 C 
ATOM     13  C   LIG A   1      -8.529  -1.016 124.968  0.00  0.00    +0.010 C 
ENDBRANCH  10  11
ENDBRANCH   9  10
ENDBRANCH   8   9
ENDBRANCH   1   8
BRANCH   3  14
ATOM     14  O   LIG A   1      -7.407   4.229 118.700  0.00  0.00    -0.503 OA
ATOM     15  H   LIG A   1      -8.105   4.906 118.753  0.00  0.00    +0.292 HD
ENDBRANCH   3  14
BRANCH   4  16
ATOM     16  O   LIG A   1      -5.337   5.997 118.829  0.00  0.00    -0.501 OA
ATOM     17  H   LIG A   1      -5.694   5.508 118.060  0.00  0.00    +0.292 HD
ENDBRANCH   4  16
BRANCH   5  18
ATOM     18  O   LIG A   1      -3.790   6.171 121.084  0.00  0.00    -0.503 OA
ATOM     19  H   LIG A   1      -2.994   5.624 121.239  0.00  0.00    +0.292 HD
ENDBRANCH   5  18
TORSDOF 7
ENDMDL
