MODEL 1
REMARK VINA RESULT:      -7.1      0.000      0.000
REMARK  Name = NuBBE_1091
REMARK  5 active torsions:
REMARK  status: ('A' for Active; 'I' for Inactive)
REMARK    1  A    between atoms: N_2  and  C_3
REMARK    2  A    between atoms: N_2  and  C_4
REMARK    3  A    between atoms: C_5  and  C_6
REMARK    4  A    between atoms: C_9  and  O_10
REMARK    5  A    between atoms: O_10  and  C_11
REMARK                            x       y       z     vdW  Elec       q    Type
REMARK                         _______ _______ _______ _____ _____    ______ ____
ROOT
ATOM      1  C   LIG A   1      -7.975   4.006 120.275  0.00  0.00    +0.038 A 
ATOM      2  C   LIG A   1      -7.430   3.517 121.497  0.00  0.00    +0.038 A 
ATOM      3  C   LIG A   1      -6.055   3.706 121.756  0.00  0.00    +0.013 A 
ATOM      4  C   LIG A   1      -5.216   4.318 120.828  0.00  0.00    +0.001 A 
ATOM      5  C   LIG A   1      -5.736   4.755 119.620  0.00  0.00    +0.002 A 
ATOM      6  C   LIG A   1      -7.095   4.588 119.345  0.00  0.00    +0.023 A 
ENDROOT
BRANCH   2   7
ATOM      7  C   LIG A   1      -8.259   2.867 122.545  0.00  0.00    +0.144 A 
ATOM      8  O   LIG A   1      -9.228   1.955 122.061  0.00  0.00    -0.422 OA
ATOM      9  C   LIG A   1      -8.134   3.101 123.859  0.00  0.00    +0.092 A 
ATOM     10  C   LIG A   1      -8.998   2.434 124.796  0.00  0.00    +0.130 A 
ATOM     11  C   LIG A   1      -9.906   1.554 124.354  0.00  0.00    +0.137 A 
ATOM     12  C   LIG A   1     -10.038   1.269 122.918  0.00  0.00    +0.341 A 
ATOM     13  O   LIG A   1     -10.853   0.446 122.524  0.00  0.00    -0.245 OA
BRANCH  10  14
ATOM     14  O   LIG A   1      -8.765   2.810 126.095  0.00  0.00    -0.495 OA
ATOM     15  C   LIG A   1      -7.714   3.740 126.329  0.00  0.00    +0.277 C 
ENDBRANCH  10  14
ENDBRANCH   2   7
BRANCH   1  17
ATOM     16  H   LIG A   1      -9.921   3.936 120.746  0.00  0.00    +0.146 HD
ATOM     17  N   LIG A   1      -9.327   3.770 119.935  0.00  0.00    -0.346 N 
ATOM     18  C   LIG A   1      -9.871   4.438 118.762  0.00  0.00    +0.125 C 
ENDBRANCH   1  17
TORSDOF 3
ENDMDL
MODEL 2
REMARK VINA RESULT:      -6.6      8.001     10.187
REMARK  Name = NuBBE_1091
REMARK  5 active torsions:
REMARK  status: ('A' for Active; 'I' for Inactive)
REMARK    1  A    between atoms: N_2  and  C_3
REMARK    2  A    between atoms: N_2  and  C_4
REMARK    3  A    between atoms: C_5  and  C_6
REMARK    4  A    between atoms: C_9  and  O_10
REMARK    5  A    between atoms: O_10  and  C_11
REMARK                            x       y       z     vdW  Elec       q    Type
REMARK                         _______ _______ _______ _____ _____    ______ ____
ROOT
ATOM      1  C   LIG A   1      -8.806   4.926 131.699  0.00  0.00    +0.038 A 
ATOM      2  C   LIG A   1      -8.828   6.245 131.163  0.00  0.00    +0.038 A 
ATOM      3  C   LIG A   1      -7.629   6.989 131.129  0.00  0.00    +0.013 A 
ATOM      4  C   LIG A   1      -6.440   6.479 131.645  0.00  0.00    +0.001 A 
ATOM      5  C   LIG A   1      -6.426   5.212 132.206  0.00  0.00    +0.002 A 
ATOM      6  C   LIG A   1      -7.598   4.453 132.243  0.00  0.00    +0.023 A 
ENDROOT
BRANCH   2   7
ATOM      7  C   LIG A   1     -10.051   6.858 130.582  0.00  0.00    +0.144 A 
ATOM      8  O   LIG A   1     -11.211   6.760 131.388  0.00  0.00    -0.422 OA
ATOM      9  C   LIG A   1     -10.096   7.462 129.386  0.00  0.00    +0.092 A 
ATOM     10  C   LIG A   1     -11.334   8.009 128.900  0.00  0.00    +0.130 A 
ATOM     11  C   LIG A   1     -12.435   7.942 129.660  0.00  0.00    +0.137 A 
ATOM     12  C   LIG A   1     -12.395   7.304 130.984  0.00  0.00    +0.341 A 
ATOM     13  O   LIG A   1     -13.399   7.267 131.682  0.00  0.00    -0.245 OA
BRANCH  10  14
ATOM     14  O   LIG A   1     -11.218   8.559 127.648  0.00  0.00    -0.495 OA
ATOM     15  C   LIG A   1     -10.979   7.673 126.563  0.00  0.00    +0.277 C 
ENDBRANCH  10  14
ENDBRANCH   2   7
BRANCH   1  17
ATOM     16  H   LIG A   1     -10.777   4.795 132.035  0.00  0.00    +0.146 HD
ATOM     17  N   LIG A   1      -9.996   4.173 131.830  0.00  0.00    -0.346 N 
ATOM     18  C   LIG A   1     -10.350   3.249 130.763  0.00  0.00    +0.125 C 
ENDBRANCH   1  17
TORSDOF 3
ENDMDL
MODEL 3
REMARK VINA RESULT:      -6.4      4.348      6.055
REMARK  Name = NuBBE_1091
REMARK  5 active torsions:
REMARK  status: ('A' for Active; 'I' for Inactive)
REMARK    1  A    between atoms: N_2  and  C_3
REMARK    2  A    between atoms: N_2  and  C_4
REMARK    3  A    between atoms: C_5  and  C_6
REMARK    4  A    between atoms: C_9  and  O_10
REMARK    5  A    between atoms: O_10  and  C_11
REMARK                            x       y       z     vdW  Elec       q    Type
REMARK                         _______ _______ _______ _____ _____    ______ ____
ROOT
ATOM      1  C   LIG A   1      -7.710  -2.857 124.249  0.00  0.00    +0.038 A 
ATOM      2  C   LIG A   1      -7.094  -1.737 123.620  0.00  0.00    +0.038 A 
ATOM      3  C   LIG A   1      -5.768  -1.861 123.152  0.00  0.00    +0.013 A 
ATOM      4  C   LIG A   1      -5.038  -3.034 123.330  0.00  0.00    +0.001 A 
ATOM      5  C   LIG A   1      -5.621  -4.110 123.980  0.00  0.00    +0.002 A 
ATOM      6  C   LIG A   1      -6.936  -4.016 124.443  0.00  0.00    +0.023 A 
ENDROOT
BRANCH   2   7
ATOM      7  C   LIG A   1      -7.807  -0.456 123.380  0.00  0.00    +0.144 A 
ATOM      8  O   LIG A   1      -9.177  -0.587 123.044  0.00  0.00    -0.422 OA
ATOM      9  C   LIG A   1      -7.233   0.753 123.459  0.00  0.00    +0.092 A 
ATOM     10  C   LIG A   1      -8.004   1.937 123.190  0.00  0.00    +0.130 A 
ATOM     11  C   LIG A   1      -9.305   1.830 122.891  0.00  0.00    +0.137 A 
ATOM     12  C   LIG A   1      -9.954   0.512 122.824  0.00  0.00    +0.341 A 
ATOM     13  O   LIG A   1     -11.148   0.425 122.574  0.00  0.00    -0.245 OA
BRANCH  10  14
ATOM     14  O   LIG A   1      -7.261   3.087 123.279  0.00  0.00    -0.495 OA
ATOM     15  C   LIG A   1      -6.415   3.408 122.181  0.00  0.00    +0.277 C 
ENDBRANCH  10  14
ENDBRANCH   2   7
BRANCH   1  17
ATOM     16  H   LIG A   1      -9.614  -3.464 124.392  0.00  0.00    +0.146 HD
ATOM     17  N   LIG A   1      -9.006  -2.758 124.806  0.00  0.00    -0.346 N 
ATOM     18  C   LIG A   1      -9.137  -2.760 126.255  0.00  0.00    +0.125 C 
ENDBRANCH   1  17
TORSDOF 3
ENDMDL
MODEL 4
REMARK VINA RESULT:      -6.1      5.451      8.276
REMARK  Name = NuBBE_1091
REMARK  5 active torsions:
REMARK  status: ('A' for Active; 'I' for Inactive)
REMARK    1  A    between atoms: N_2  and  C_3
REMARK    2  A    between atoms: N_2  and  C_4
REMARK    3  A    between atoms: C_5  and  C_6
REMARK    4  A    between atoms: C_9  and  O_10
REMARK    5  A    between atoms: O_10  and  C_11
REMARK                            x       y       z     vdW  Elec       q    Type
REMARK                         _______ _______ _______ _____ _____    ______ ____
ROOT
ATOM      1  C   LIG A   1      -6.962  -2.084 127.647  0.00  0.00    +0.038 A 
ATOM      2  C   LIG A   1      -7.876  -2.662 126.720  0.00  0.00    +0.038 A 
ATOM      3  C   LIG A   1      -8.862  -3.552 127.199  0.00  0.00    +0.013 A 
ATOM      4  C   LIG A   1      -8.932  -3.908 128.543  0.00  0.00    +0.001 A 
ATOM      5  C   LIG A   1      -8.016  -3.380 129.439  0.00  0.00    +0.002 A 
ATOM      6  C   LIG A   1      -7.037  -2.490 128.992  0.00  0.00    +0.023 A 
ENDROOT
BRANCH   2   7
ATOM      7  C   LIG A   1      -7.877  -2.324 125.273  0.00  0.00    +0.144 A 
ATOM      8  O   LIG A   1      -6.650  -2.551 124.605  0.00  0.00    -0.422 OA
ATOM      9  C   LIG A   1      -8.937  -1.835 124.613  0.00  0.00    +0.092 A 
ATOM     10  C   LIG A   1      -8.834  -1.521 123.214  0.00  0.00    +0.130 A 
ATOM     11  C   LIG A   1      -7.685  -1.749 122.564  0.00  0.00    +0.137 A 
ATOM     12  C   LIG A   1      -6.522  -2.307 123.269  0.00  0.00    +0.341 A 
ATOM     13  O   LIG A   1      -5.484  -2.535 122.662  0.00  0.00    -0.245 OA
BRANCH  10  14
ATOM     14  O   LIG A   1      -9.993  -0.998 122.699  0.00  0.00    -0.495 OA
ATOM     15  C   LIG A   1     -10.072   0.416 122.567  0.00  0.00    +0.277 C 
ENDBRANCH  10  14
ENDBRANCH   2   7
BRANCH   1  17
ATOM     16  H   LIG A   1      -6.021  -1.046 126.214  0.00  0.00    +0.146 HD
ATOM     17  N   LIG A   1      -5.906  -1.251 127.206  0.00  0.00    -0.346 N 
ATOM     18  C   LIG A   1      -5.633  -0.031 127.950  0.00  0.00    +0.125 C 
ENDBRANCH   1  17
TORSDOF 3
ENDMDL
MODEL 5
REMARK VINA RESULT:      -6.1      2.813      4.061
REMARK  Name = NuBBE_1091
REMARK  5 active torsions:
REMARK  status: ('A' for Active; 'I' for Inactive)
REMARK    1  A    between atoms: N_2  and  C_3
REMARK    2  A    between atoms: N_2  and  C_4
REMARK    3  A    between atoms: C_5  and  C_6
REMARK    4  A    between atoms: C_9  and  O_10
REMARK    5  A    between atoms: O_10  and  C_11
REMARK                            x       y       z     vdW  Elec       q    Type
REMARK                         _______ _______ _______ _____ _____    ______ ____
ROOT
ATOM      1  C   LIG A   1      -6.617   3.218 123.180  0.00  0.00    +0.038 A 
ATOM      2  C   LIG A   1      -6.721   2.049 123.988  0.00  0.00    +0.038 A 
ATOM      3  C   LIG A   1      -6.066   2.023 125.238  0.00  0.00    +0.013 A 
ATOM      4  C   LIG A   1      -5.289   3.093 125.677  0.00  0.00    +0.001 A 
ATOM      5  C   LIG A   1      -5.152   4.213 124.872  0.00  0.00    +0.002 A 
ATOM      6  C   LIG A   1      -5.798   4.267 123.635  0.00  0.00    +0.023 A 
ENDROOT
BRANCH   2   7
ATOM      7  C   LIG A   1      -7.540   0.872 123.599  0.00  0.00    +0.144 A 
ATOM      8  O   LIG A   1      -8.880   1.165 123.247  0.00  0.00    -0.422 OA
ATOM      9  C   LIG A   1      -7.085  -0.389 123.575  0.00  0.00    +0.092 A 
ATOM     10  C   LIG A   1      -7.962  -1.466 123.203  0.00  0.00    +0.130 A 
ATOM     11  C   LIG A   1      -9.226  -1.202 122.848  0.00  0.00    +0.137 A 
ATOM     12  C   LIG A   1      -9.732   0.178 122.846  0.00  0.00    +0.341 A 
ATOM     13  O   LIG A   1     -10.882   0.414 122.498  0.00  0.00    -0.245 OA
BRANCH  10  14
ATOM     14  O   LIG A   1      -7.353  -2.694 123.264  0.00  0.00    -0.495 OA
ATOM     15  C   LIG A   1      -7.513  -3.445 124.461  0.00  0.00    +0.277 C 
ENDBRANCH  10  14
ENDBRANCH   2   7
BRANCH   1  17
ATOM     16  H   LIG A   1      -8.112   3.687 121.931  0.00  0.00    +0.146 HD
ATOM     17  N   LIG A   1      -7.186   3.261 121.886  0.00  0.00    -0.346 N 
ATOM     18  C   LIG A   1      -6.408   3.851 120.808  0.00  0.00    +0.125 C 
ENDBRANCH   1  17
TORSDOF 3
ENDMDL
MODEL 6
REMARK VINA RESULT:      -5.9      8.171     10.826
REMARK  Name = NuBBE_1091
REMARK  5 active torsions:
REMARK  status: ('A' for Active; 'I' for Inactive)
REMARK    1  A    between atoms: N_2  and  C_3
REMARK    2  A    between atoms: N_2  and  C_4
REMARK    3  A    between atoms: C_5  and  C_6
REMARK    4  A    between atoms: C_9  and  O_10
REMARK    5  A    between atoms: O_10  and  C_11
REMARK                            x       y       z     vdW  Elec       q    Type
REMARK                         _______ _______ _______ _____ _____    ______ ____
ROOT
ATOM      1  C   LIG A   1      -9.344   3.823 132.597  0.00  0.00    +0.038 A 
ATOM      2  C   LIG A   1      -9.348   5.236 132.415  0.00  0.00    +0.038 A 
ATOM      3  C   LIG A   1      -8.635   6.044 133.327  0.00  0.00    +0.013 A 
ATOM      4  C   LIG A   1      -7.967   5.495 134.419  0.00  0.00    +0.001 A 
ATOM      5  C   LIG A   1      -7.998   4.125 134.622  0.00  0.00    +0.002 A 
ATOM      6  C   LIG A   1      -8.688   3.303 133.728  0.00  0.00    +0.023 A 
ENDROOT
BRANCH   2   7
ATOM      7  C   LIG A   1     -10.024   5.898 131.270  0.00  0.00    +0.144 A 
ATOM      8  O   LIG A   1      -9.406   5.696 130.012  0.00  0.00    -0.422 OA
ATOM      9  C   LIG A   1     -11.134   6.643 131.377  0.00  0.00    +0.092 A 
ATOM     10  C   LIG A   1     -11.704   7.260 130.210  0.00  0.00    +0.130 A 
ATOM     11  C   LIG A   1     -11.142   7.062 129.010  0.00  0.00    +0.137 A 
ATOM     12  C   LIG A   1      -9.939   6.228 128.874  0.00  0.00    +0.341 A 
ATOM     13  O   LIG A   1      -9.445   6.032 127.772  0.00  0.00    -0.245 OA
BRANCH  10  14
ATOM     14  O   LIG A   1     -12.814   8.015 130.496  0.00  0.00    -0.495 OA
ATOM     15  C   LIG A   1     -12.899   9.304 129.901  0.00  0.00    +0.277 C 
ENDBRANCH  10  14
ENDBRANCH   2   7
BRANCH   1  17
ATOM     16  H   LIG A   1     -10.051   3.305 130.795  0.00  0.00    +0.146 HD
ATOM     17  N   LIG A   1     -10.109   2.978 131.759  0.00  0.00    -0.346 N 
ATOM     18  C   LIG A   1      -9.874   1.544 131.824  0.00  0.00    +0.125 C 
ENDBRANCH   1  17
TORSDOF 3
ENDMDL
MODEL 7
REMARK VINA RESULT:      -5.9      5.537      8.255
REMARK  Name = NuBBE_1091
REMARK  5 active torsions:
REMARK  status: ('A' for Active; 'I' for Inactive)
REMARK    1  A    between atoms: N_2  and  C_3
REMARK    2  A    between atoms: N_2  and  C_4
REMARK    3  A    between atoms: C_5  and  C_6
REMARK    4  A    between atoms: C_9  and  O_10
REMARK    5  A    between atoms: O_10  and  C_11
REMARK                            x       y       z     vdW  Elec       q    Type
REMARK                         _______ _______ _______ _____ _____    ______ ____
ROOT
ATOM      1  C   LIG A   1      -7.607  -1.630 127.708  0.00  0.00    +0.038 A 
ATOM      2  C   LIG A   1      -8.083  -2.526 126.708  0.00  0.00    +0.038 A 
ATOM      3  C   LIG A   1      -8.772  -3.692 127.106  0.00  0.00    +0.013 A 
ATOM      4  C   LIG A   1      -8.958  -4.005 128.451  0.00  0.00    +0.001 A 
ATOM      5  C   LIG A   1      -8.458  -3.157 129.426  0.00  0.00    +0.002 A 
ATOM      6  C   LIG A   1      -7.781  -1.992 129.057  0.00  0.00    +0.023 A 
ENDROOT
BRANCH   2   7
ATOM      7  C   LIG A   1      -7.939  -2.258 125.253  0.00  0.00    +0.144 A 
ATOM      8  O   LIG A   1      -9.101  -1.757 124.618  0.00  0.00    -0.422 OA
ATOM      9  C   LIG A   1      -6.813  -2.467 124.556  0.00  0.00    +0.092 A 
ATOM     10  C   LIG A   1      -6.777  -2.195 123.145  0.00  0.00    +0.130 A 
ATOM     11  C   LIG A   1      -7.862  -1.701 122.534  0.00  0.00    +0.137 A 
ATOM     12  C   LIG A   1      -9.097  -1.445 123.290  0.00  0.00    +0.341 A 
ATOM     13  O   LIG A   1     -10.077  -0.971 122.730  0.00  0.00    -0.245 OA
BRANCH  10  14
ATOM     14  O   LIG A   1      -5.565  -2.494 122.575  0.00  0.00    -0.495 OA
ATOM     15  C   LIG A   1      -4.672  -3.307 123.327  0.00  0.00    +0.277 C 
ENDBRANCH  10  14
ENDBRANCH   2   7
BRANCH   1  17
ATOM     16  H   LIG A   1      -7.461   0.277 127.114  0.00  0.00    +0.146 HD
ATOM     17  N   LIG A   1      -6.842  -0.493 127.363  0.00  0.00    -0.346 N 
ATOM     18  C   LIG A   1      -5.818  -0.040 128.293  0.00  0.00    +0.125 C 
ENDBRANCH   1  17
TORSDOF 3
ENDMDL
MODEL 8
REMARK VINA RESULT:      -5.8      2.718      3.753
REMARK  Name = NuBBE_1091
REMARK  5 active torsions:
REMARK  status: ('A' for Active; 'I' for Inactive)
REMARK    1  A    between atoms: N_2  and  C_3
REMARK    2  A    between atoms: N_2  and  C_4
REMARK    3  A    between atoms: C_5  and  C_6
REMARK    4  A    between atoms: C_9  and  O_10
REMARK    5  A    between atoms: O_10  and  C_11
REMARK                            x       y       z     vdW  Elec       q    Type
REMARK                         _______ _______ _______ _____ _____    ______ ____
ROOT
ATOM      1  C   LIG A   1      -8.003   3.280 122.278  0.00  0.00    +0.038 A 
ATOM      2  C   LIG A   1      -6.621   3.406 122.601  0.00  0.00    +0.038 A 
ATOM      3  C   LIG A   1      -5.732   3.892 121.618  0.00  0.00    +0.013 A 
ATOM      4  C   LIG A   1      -6.167   4.211 120.334  0.00  0.00    +0.001 A 
ATOM      5  C   LIG A   1      -7.504   4.048 120.006  0.00  0.00    +0.002 A 
ATOM      6  C   LIG A   1      -8.405   3.577 120.963  0.00  0.00    +0.023 A 
ENDROOT
BRANCH   2   7
ATOM      7  C   LIG A   1      -6.078   3.101 123.950  0.00  0.00    +0.144 A 
ATOM      8  O   LIG A   1      -6.433   1.830 124.465  0.00  0.00    -0.422 OA
ATOM      9  C   LIG A   1      -5.310   3.939 124.661  0.00  0.00    +0.092 A 
ATOM     10  C   LIG A   1      -4.848   3.559 125.969  0.00  0.00    +0.130 A 
ATOM     11  C   LIG A   1      -5.159   2.353 126.461  0.00  0.00    +0.137 A 
ATOM     12  C   LIG A   1      -5.979   1.414 125.682  0.00  0.00    +0.341 A 
ATOM     13  O   LIG A   1      -6.239   0.304 126.128  0.00  0.00    -0.245 OA
BRANCH  10  14
ATOM     14  O   LIG A   1      -4.106   4.541 126.576  0.00  0.00    -0.495 OA
ATOM     15  C   LIG A   1      -2.842   4.170 127.112  0.00  0.00    +0.277 C 
ENDBRANCH  10  14
ENDBRANCH   2   7
BRANCH   1  17
ATOM     16  H   LIG A   1      -9.608   3.422 123.469  0.00  0.00    +0.146 HD
ATOM     17  N   LIG A   1      -8.918   2.721 123.200  0.00  0.00    -0.346 N 
ATOM     18  C   LIG A   1      -9.573   1.471 122.851  0.00  0.00    +0.125 C 
ENDBRANCH   1  17
TORSDOF 3
ENDMDL
MODEL 9
REMARK VINA RESULT:      -5.8      4.498      7.122
REMARK  Name = NuBBE_1091
REMARK  5 active torsions:
REMARK  status: ('A' for Active; 'I' for Inactive)
REMARK    1  A    between atoms: N_2  and  C_3
REMARK    2  A    between atoms: N_2  and  C_4
REMARK    3  A    between atoms: C_5  and  C_6
REMARK    4  A    between atoms: C_9  and  O_10
REMARK    5  A    between atoms: O_10  and  C_11
REMARK                            x       y       z     vdW  Elec       q    Type
REMARK                         _______ _______ _______ _____ _____    ______ ____
ROOT
ATOM      1  C   LIG A   1      -8.883  -2.739 126.507  0.00  0.00    +0.038 A 
ATOM      2  C   LIG A   1      -8.394  -1.456 126.886  0.00  0.00    +0.038 A 
ATOM      3  C   LIG A   1      -7.777  -1.305 128.147  0.00  0.00    +0.013 A 
ATOM      4  C   LIG A   1      -7.675  -2.368 129.041  0.00  0.00    +0.001 A 
ATOM      5  C   LIG A   1      -8.189  -3.607 128.691  0.00  0.00    +0.002 A 
ATOM      6  C   LIG A   1      -8.796  -3.784 127.446  0.00  0.00    +0.023 A 
ENDROOT
BRANCH   2   7
ATOM      7  C   LIG A   1      -8.451  -0.274 125.987  0.00  0.00    +0.144 A 
ATOM      8  O   LIG A   1      -9.703  -0.059 125.361  0.00  0.00    -0.422 OA
ATOM      9  C   LIG A   1      -7.418   0.548 125.754  0.00  0.00    +0.092 A 
ATOM     10  C   LIG A   1      -7.567   1.656 124.850  0.00  0.00    +0.130 A 
ATOM     11  C   LIG A   1      -8.750   1.884 124.266  0.00  0.00    +0.137 A 
ATOM     12  C   LIG A   1      -9.899   1.006 124.531  0.00  0.00    +0.341 A 
ATOM     13  O   LIG A   1     -10.983   1.235 124.012  0.00  0.00    -0.245 OA
BRANCH  10  14
ATOM     14  O   LIG A   1      -6.408   2.375 124.696  0.00  0.00    -0.495 OA
ATOM     15  C   LIG A   1      -5.451   2.309 125.745  0.00  0.00    +0.277 C 
ENDBRANCH  10  14
ENDBRANCH   2   7
BRANCH   1  17
ATOM     16  H   LIG A   1     -10.051  -2.057 125.029  0.00  0.00    +0.146 HD
ATOM     17  N   LIG A   1      -9.580  -2.922 125.291  0.00  0.00    -0.346 N 
ATOM     18  C   LIG A   1      -8.855  -3.469 124.155  0.00  0.00    +0.125 C 
ENDBRANCH   1  17
TORSDOF 3
ENDMDL
