MODEL 1
REMARK VINA RESULT:      -7.6      0.000      0.000
REMARK  Name = NuBBE_83
REMARK  12 active torsions:
REMARK  status: ('A' for Active; 'I' for Inactive)
REMARK    1  A    between atoms: C_1  and  C_2
REMARK    2  A    between atoms: C_4  and  C_6
REMARK    3  A    between atoms: C_7  and  C_9
REMARK    4  A    between atoms: C_11  and  O_12
REMARK    5  A    between atoms: O_12  and  C_13
REMARK    6  A    between atoms: C_21  and  C_23
REMARK    7  A    between atoms: C_25  and  O_26
REMARK    8  A    between atoms: O_26  and  C_27
REMARK    9  A    between atoms: C_28  and  O_29
REMARK   10  A    between atoms: O_29  and  C_30
REMARK   11  A    between atoms: C_31  and  O_32
REMARK   12  A    between atoms: O_32  and  C_33
REMARK                            x       y       z     vdW  Elec       q    Type
REMARK                         _______ _______ _______ _____ _____    ______ ____
ROOT
ATOM      1  C   LIG A   1      -8.790   3.164 133.643  0.00  0.00    +0.011 C 
ATOM      2  C   LIG A   1      -7.806   4.316 133.791  0.00  0.00    +0.025 C 
ATOM      3  C   LIG A   1      -6.452   4.098 133.118  0.00  0.00    +0.025 C 
ATOM      4  C   LIG A   1      -5.601   3.056 133.822  0.00  0.00    +0.011 C 
ATOM      5  C   LIG A   1      -5.880   5.521 133.132  0.00  0.00    +0.152 C 
ATOM      6  O   LIG A   1      -7.020   6.393 132.935  0.00  0.00    -0.364 OA
ATOM      7  C   LIG A   1      -8.240   5.683 133.255  0.00  0.00    +0.152 C 
ENDROOT
BRANCH   5   8
ATOM      8  C   LIG A   1      -4.812   5.784 132.085  0.00  0.00    -0.011 A 
ATOM      9  C   LIG A   1      -3.433   5.730 132.421  0.00  0.00    +0.056 A 
ATOM     10  C   LIG A   1      -2.423   5.958 131.465  0.00  0.00    +0.166 A 
ATOM     11  C   LIG A   1      -2.817   6.232 130.174  0.00  0.00    +0.207 A 
ATOM     12  O   LIG A   1      -2.032   6.468 129.083  0.00  0.00    -0.449 OA
ATOM     13  C   LIG A   1      -3.001   6.696 128.050  0.00  0.00    +0.467 C 
ATOM     14  O   LIG A   1      -4.358   6.591 128.521  0.00  0.00    -0.453 OA
ATOM     15  C   LIG A   1      -4.153   6.299 129.838  0.00  0.00    +0.170 A 
ATOM     16  C   LIG A   1      -5.157   6.090 130.761  0.00  0.00    +0.056 A 
BRANCH  10  17
ATOM     17  O   LIG A   1      -1.138   5.879 131.939  0.00  0.00    -0.491 OA
ATOM     18  C   LIG A   1      -0.903   6.413 133.234  0.00  0.00    +0.277 C 
ENDBRANCH  10  17
ENDBRANCH   5   8
BRANCH   7  19
ATOM     19  C   LIG A   1      -9.159   5.718 132.049  0.00  0.00    -0.011 A 
ATOM     20  C   LIG A   1     -10.506   6.065 132.199  0.00  0.00    +0.056 A 
ATOM     21  C   LIG A   1     -11.355   6.201 131.088  0.00  0.00    +0.166 A 
ATOM     22  C   LIG A   1     -10.860   5.946 129.786  0.00  0.00    +0.203 A 
ATOM     23  C   LIG A   1      -9.520   5.558 129.632  0.00  0.00    +0.166 A 
ATOM     24  C   LIG A   1      -8.693   5.457 130.758  0.00  0.00    +0.056 A 
BRANCH  21  25
ATOM     25  O   LIG A   1     -12.677   6.574 131.189  0.00  0.00    -0.491 OA
ATOM     26  C   LIG A   1     -12.945   7.917 131.578  0.00  0.00    +0.277 C 
ENDBRANCH  21  25
BRANCH  22  27
ATOM     27  O   LIG A   1     -11.769   6.128 128.769  0.00  0.00    -0.488 OA
ATOM     28  C   LIG A   1     -11.699   7.336 128.023  0.00  0.00    +0.277 C 
ENDBRANCH  22  27
BRANCH  23  29
ATOM     29  O   LIG A   1      -8.989   5.369 128.378  0.00  0.00    -0.491 OA
ATOM     30  C   LIG A   1      -7.981   4.361 128.308  0.00  0.00    +0.277 C 
ENDBRANCH  23  29
ENDBRANCH   7  19
TORSDOF 6
ENDMDL
MODEL 2
REMARK VINA RESULT:      -7.3      1.012      2.154
REMARK  Name = NuBBE_83
REMARK  12 active torsions:
REMARK  status: ('A' for Active; 'I' for Inactive)
REMARK    1  A    between atoms: C_1  and  C_2
REMARK    2  A    between atoms: C_4  and  C_6
REMARK    3  A    between atoms: C_7  and  C_9
REMARK    4  A    between atoms: C_11  and  O_12
REMARK    5  A    between atoms: O_12  and  C_13
REMARK    6  A    between atoms: C_21  and  C_23
REMARK    7  A    between atoms: C_25  and  O_26
REMARK    8  A    between atoms: O_26  and  C_27
REMARK    9  A    between atoms: C_28  and  O_29
REMARK   10  A    between atoms: O_29  and  C_30
REMARK   11  A    between atoms: C_31  and  O_32
REMARK   12  A    between atoms: O_32  and  C_33
REMARK                            x       y       z     vdW  Elec       q    Type
REMARK                         _______ _______ _______ _____ _____    ______ ____
ROOT
ATOM      1  C   LIG A   1      -9.468   2.870 133.187  0.00  0.00    +0.011 C 
ATOM      2  C   LIG A   1      -8.555   3.973 133.703  0.00  0.00    +0.025 C 
ATOM      3  C   LIG A   1      -7.084   3.826 133.317  0.00  0.00    +0.025 C 
ATOM      4  C   LIG A   1      -6.393   2.681 134.039  0.00  0.00    +0.011 C 
ATOM      5  C   LIG A   1      -6.547   5.222 133.651  0.00  0.00    +0.152 C 
ATOM      6  O   LIG A   1      -7.627   6.133 133.333  0.00  0.00    -0.364 OA
ATOM      7  C   LIG A   1      -8.879   5.408 133.280  0.00  0.00    +0.152 C 
ENDROOT
BRANCH   5   8
ATOM      8  C   LIG A   1      -5.280   5.608 132.908  0.00  0.00    -0.011 A 
ATOM      9  C   LIG A   1      -5.344   6.282 131.659  0.00  0.00    +0.056 A 
ATOM     10  C   LIG A   1      -4.184   6.663 130.957  0.00  0.00    +0.166 A 
ATOM     11  C   LIG A   1      -2.966   6.364 131.528  0.00  0.00    +0.207 A 
ATOM     12  O   LIG A   1      -1.718   6.644 131.051  0.00  0.00    -0.449 OA
ATOM     13  C   LIG A   1      -0.869   6.085 132.065  0.00  0.00    +0.467 C 
ATOM     14  O   LIG A   1      -1.608   5.480 133.143  0.00  0.00    -0.453 OA
ATOM     15  C   LIG A   1      -2.891   5.701 132.734  0.00  0.00    +0.170 A 
ATOM     16  C   LIG A   1      -4.014   5.310 133.433  0.00  0.00    +0.056 A 
BRANCH  10  17
ATOM     17  O   LIG A   1      -4.403   7.300 129.761  0.00  0.00    -0.491 OA
ATOM     18  C   LIG A   1      -4.007   8.662 129.684  0.00  0.00    +0.277 C 
ENDBRANCH  10  17
ENDBRANCH   5   8
BRANCH   7  19
ATOM     19  C   LIG A   1      -9.514   5.625 131.920  0.00  0.00    -0.011 A 
ATOM     20  C   LIG A   1     -10.786   6.199 131.819  0.00  0.00    +0.056 A 
ATOM     21  C   LIG A   1     -11.355   6.501 130.571  0.00  0.00    +0.166 A 
ATOM     22  C   LIG A   1     -10.655   6.187 129.380  0.00  0.00    +0.203 A 
ATOM     23  C   LIG A   1      -9.396   5.574 129.473  0.00  0.00    +0.166 A 
ATOM     24  C   LIG A   1      -8.845   5.310 130.734  0.00  0.00    +0.056 A 
BRANCH  21  25
ATOM     25  O   LIG A   1     -12.589   7.097 130.428  0.00  0.00    -0.491 OA
ATOM     26  C   LIG A   1     -12.989   8.012 131.443  0.00  0.00    +0.277 C 
ENDBRANCH  21  25
BRANCH  22  27
ATOM     27  O   LIG A   1     -11.294   6.543 128.215  0.00  0.00    -0.488 OA
ATOM     28  C   LIG A   1     -10.845   7.711 127.540  0.00  0.00    +0.277 C 
ENDBRANCH  22  27
BRANCH  23  29
ATOM     29  O   LIG A   1      -8.660   5.318 128.341  0.00  0.00    -0.491 OA
ATOM     30  C   LIG A   1      -7.896   4.114 128.391  0.00  0.00    +0.277 C 
ENDBRANCH  23  29
ENDBRANCH   7  19
TORSDOF 6
ENDMDL
MODEL 3
REMARK VINA RESULT:      -7.1      3.709      7.470
REMARK  Name = NuBBE_83
REMARK  12 active torsions:
REMARK  status: ('A' for Active; 'I' for Inactive)
REMARK    1  A    between atoms: C_1  and  C_2
REMARK    2  A    between atoms: C_4  and  C_6
REMARK    3  A    between atoms: C_7  and  C_9
REMARK    4  A    between atoms: C_11  and  O_12
REMARK    5  A    between atoms: O_12  and  C_13
REMARK    6  A    between atoms: C_21  and  C_23
REMARK    7  A    between atoms: C_25  and  O_26
REMARK    8  A    between atoms: O_26  and  C_27
REMARK    9  A    between atoms: C_28  and  O_29
REMARK   10  A    between atoms: O_29  and  C_30
REMARK   11  A    between atoms: C_31  and  O_32
REMARK   12  A    between atoms: O_32  and  C_33
REMARK                            x       y       z     vdW  Elec       q    Type
REMARK                         _______ _______ _______ _____ _____    ______ ____
ROOT
ATOM      1  C   LIG A   1      -5.823   2.353 129.736  0.00  0.00    +0.011 C 
ATOM      2  C   LIG A   1      -7.277   2.480 130.167  0.00  0.00    +0.025 C 
ATOM      3  C   LIG A   1      -7.725   3.897 130.518  0.00  0.00    +0.025 C 
ATOM      4  C   LIG A   1      -7.118   4.407 131.815  0.00  0.00    +0.011 C 
ATOM      5  C   LIG A   1      -9.249   3.732 130.536  0.00  0.00    +0.152 C 
ATOM      6  O   LIG A   1      -9.541   2.769 129.495  0.00  0.00    -0.364 OA
ATOM      7  C   LIG A   1      -8.347   2.018 129.174  0.00  0.00    +0.152 C 
ENDROOT
BRANCH   5   8
ATOM      8  C   LIG A   1     -10.028   5.017 130.316  0.00  0.00    -0.011 A 
ATOM      9  C   LIG A   1      -9.746   5.859 129.207  0.00  0.00    +0.056 A 
ATOM     10  C   LIG A   1     -10.464   7.049 128.974  0.00  0.00    +0.166 A 
ATOM     11  C   LIG A   1     -11.465   7.375 129.862  0.00  0.00    +0.207 A 
ATOM     12  O   LIG A   1     -12.299   8.455 129.836  0.00  0.00    -0.449 OA
ATOM     13  C   LIG A   1     -13.103   8.251 131.007  0.00  0.00    +0.467 C 
ATOM     14  O   LIG A   1     -12.754   7.052 131.725  0.00  0.00    -0.453 OA
ATOM     15  C   LIG A   1     -11.740   6.572 130.949  0.00  0.00    +0.170 A 
ATOM     16  C   LIG A   1     -11.043   5.408 131.201  0.00  0.00    +0.056 A 
BRANCH  10  17
ATOM     17  O   LIG A   1     -10.075   7.762 127.868  0.00  0.00    -0.491 OA
ATOM     18  C   LIG A   1     -10.870   7.610 126.700  0.00  0.00    +0.277 C 
ENDBRANCH  10  17
ENDBRANCH   5   8
BRANCH   7  19
ATOM     19  C   LIG A   1      -8.056   2.165 127.693  0.00  0.00    -0.011 A 
ATOM     20  C   LIG A   1      -8.044   1.041 126.861  0.00  0.00    +0.056 A 
ATOM     21  C   LIG A   1      -7.876   1.160 125.472  0.00  0.00    +0.166 A 
ATOM     22  C   LIG A   1      -7.674   2.436 124.891  0.00  0.00    +0.203 A 
ATOM     23  C   LIG A   1      -7.645   3.565 125.725  0.00  0.00    +0.166 A 
ATOM     24  C   LIG A   1      -7.842   3.414 127.103  0.00  0.00    +0.056 A 
BRANCH  21  25
ATOM     25  O   LIG A   1      -7.892   0.082 124.614  0.00  0.00    -0.491 OA
ATOM     26  C   LIG A   1      -6.837  -0.866 124.742  0.00  0.00    +0.277 C 
ENDBRANCH  21  25
BRANCH  22  27
ATOM     27  O   LIG A   1      -7.541   2.441 123.522  0.00  0.00    -0.488 OA
ATOM     28  C   LIG A   1      -8.684   2.769 122.744  0.00  0.00    +0.277 C 
ENDBRANCH  22  27
BRANCH  23  29
ATOM     29  O   LIG A   1      -7.520   4.824 125.189  0.00  0.00    -0.491 OA
ATOM     30  C   LIG A   1      -6.179   5.305 125.113  0.00  0.00    +0.277 C 
ENDBRANCH  23  29
ENDBRANCH   7  19
TORSDOF 6
ENDMDL
MODEL 4
REMARK VINA RESULT:      -7.0      6.668      9.697
REMARK  Name = NuBBE_83
REMARK  12 active torsions:
REMARK  status: ('A' for Active; 'I' for Inactive)
REMARK    1  A    between atoms: C_1  and  C_2
REMARK    2  A    between atoms: C_4  and  C_6
REMARK    3  A    between atoms: C_7  and  C_9
REMARK    4  A    between atoms: C_11  and  O_12
REMARK    5  A    between atoms: O_12  and  C_13
REMARK    6  A    between atoms: C_21  and  C_23
REMARK    7  A    between atoms: C_25  and  O_26
REMARK    8  A    between atoms: O_26  and  C_27
REMARK    9  A    between atoms: C_28  and  O_29
REMARK   10  A    between atoms: O_29  and  C_30
REMARK   11  A    between atoms: C_31  and  O_32
REMARK   12  A    between atoms: O_32  and  C_33
REMARK                            x       y       z     vdW  Elec       q    Type
REMARK                         _______ _______ _______ _____ _____    ______ ____
ROOT
ATOM      1  C   LIG A   1      -8.104  -1.879 122.418  0.00  0.00    +0.011 C 
ATOM      2  C   LIG A   1      -8.838  -1.938 123.750  0.00  0.00    +0.025 C 
ATOM      3  C   LIG A   1      -8.046  -2.566 124.895  0.00  0.00    +0.025 C 
ATOM      4  C   LIG A   1      -7.863  -4.066 124.736  0.00  0.00    +0.011 C 
ATOM      5  C   LIG A   1      -8.885  -2.140 126.106  0.00  0.00    +0.152 C 
ATOM      6  O   LIG A   1      -9.385  -0.821 125.779  0.00  0.00    -0.364 OA
ATOM      7  C   LIG A   1      -9.313  -0.611 124.349  0.00  0.00    +0.152 C 
ENDROOT
BRANCH   5   8
ATOM      8  C   LIG A   1      -8.130  -2.119 127.424  0.00  0.00    -0.011 A 
ATOM      9  C   LIG A   1      -7.745  -0.890 128.024  0.00  0.00    +0.056 A 
ATOM     10  C   LIG A   1      -7.056  -0.844 129.252  0.00  0.00    +0.166 A 
ATOM     11  C   LIG A   1      -6.767  -2.042 129.867  0.00  0.00    +0.207 A 
ATOM     12  O   LIG A   1      -6.131  -2.249 131.057  0.00  0.00    -0.449 OA
ATOM     13  C   LIG A   1      -6.119  -3.681 131.153  0.00  0.00    +0.467 C 
ATOM     14  O   LIG A   1      -6.751  -4.324 130.030  0.00  0.00    -0.453 OA
ATOM     15  C   LIG A   1      -7.125  -3.242 129.289  0.00  0.00    +0.170 A 
ATOM     16  C   LIG A   1      -7.791  -3.310 128.082  0.00  0.00    +0.056 A 
BRANCH  10  17
ATOM     17  O   LIG A   1      -6.745   0.414 129.704  0.00  0.00    -0.491 OA
ATOM     18  C   LIG A   1      -7.731   1.069 130.491  0.00  0.00    +0.277 C 
ENDBRANCH  10  17
ENDBRANCH   5   8
BRANCH   7  19
ATOM     19  C   LIG A   1      -8.487   0.632 124.075  0.00  0.00    -0.011 A 
ATOM     20  C   LIG A   1      -8.947   1.601 123.178  0.00  0.00    +0.056 A 
ATOM     21  C   LIG A   1      -8.252   2.805 122.981  0.00  0.00    +0.166 A 
ATOM     22  C   LIG A   1      -7.037   3.040 123.670  0.00  0.00    +0.203 A 
ATOM     23  C   LIG A   1      -6.548   2.054 124.541  0.00  0.00    +0.166 A 
ATOM     24  C   LIG A   1      -7.280   0.875 124.735  0.00  0.00    +0.056 A 
BRANCH  21  25
ATOM     25  O   LIG A   1      -8.689   3.799 122.133  0.00  0.00    -0.491 OA
ATOM     26  C   LIG A   1      -8.741   3.491 120.744  0.00  0.00    +0.277 C 
ENDBRANCH  21  25
BRANCH  22  27
ATOM     27  O   LIG A   1      -6.449   4.258 123.419  0.00  0.00    -0.488 OA
ATOM     28  C   LIG A   1      -5.376   4.299 122.488  0.00  0.00    +0.277 C 
ENDBRANCH  22  27
BRANCH  23  29
ATOM     29  O   LIG A   1      -5.409   2.277 125.277  0.00  0.00    -0.491 OA
ATOM     30  C   LIG A   1      -5.598   2.223 126.691  0.00  0.00    +0.277 C 
ENDBRANCH  23  29
ENDBRANCH   7  19
TORSDOF 6
ENDMDL
MODEL 5
REMARK VINA RESULT:      -7.0      4.233      6.925
REMARK  Name = NuBBE_83
REMARK  12 active torsions:
REMARK  status: ('A' for Active; 'I' for Inactive)
REMARK    1  A    between atoms: C_1  and  C_2
REMARK    2  A    between atoms: C_4  and  C_6
REMARK    3  A    between atoms: C_7  and  C_9
REMARK    4  A    between atoms: C_11  and  O_12
REMARK    5  A    between atoms: O_12  and  C_13
REMARK    6  A    between atoms: C_21  and  C_23
REMARK    7  A    between atoms: C_25  and  O_26
REMARK    8  A    between atoms: O_26  and  C_27
REMARK    9  A    between atoms: C_28  and  O_29
REMARK   10  A    between atoms: O_29  and  C_30
REMARK   11  A    between atoms: C_31  and  O_32
REMARK   12  A    between atoms: O_32  and  C_33
REMARK                            x       y       z     vdW  Elec       q    Type
REMARK                         _______ _______ _______ _____ _____    ______ ____
ROOT
ATOM      1  C   LIG A   1      -3.711   2.989 129.540  0.00  0.00    +0.011 C 
ATOM      2  C   LIG A   1      -3.897   3.971 128.392  0.00  0.00    +0.025 C 
ATOM      3  C   LIG A   1      -3.972   3.335 127.005  0.00  0.00    +0.025 C 
ATOM      4  C   LIG A   1      -2.639   2.776 126.536  0.00  0.00    +0.011 C 
ATOM      5  C   LIG A   1      -4.515   4.501 126.172  0.00  0.00    +0.152 C 
ATOM      6  O   LIG A   1      -5.424   5.208 127.051  0.00  0.00    -0.364 OA
ATOM      7  C   LIG A   1      -5.139   4.865 128.427  0.00  0.00    +0.152 C 
ENDROOT
BRANCH   5   8
ATOM      8  C   LIG A   1      -5.217   4.091 124.888  0.00  0.00    -0.011 A 
ATOM      9  C   LIG A   1      -6.245   3.111 124.901  0.00  0.00    +0.056 A 
ATOM     10  C   LIG A   1      -6.920   2.723 123.727  0.00  0.00    +0.166 A 
ATOM     11  C   LIG A   1      -6.552   3.335 122.549  0.00  0.00    +0.207 A 
ATOM     12  O   LIG A   1      -7.067   3.140 121.299  0.00  0.00    -0.449 OA
ATOM     13  C   LIG A   1      -6.283   4.039 120.501  0.00  0.00    +0.467 C 
ATOM     14  O   LIG A   1      -5.311   4.771 121.271  0.00  0.00    -0.453 OA
ATOM     15  C   LIG A   1      -5.548   4.279 122.521  0.00  0.00    +0.170 A 
ATOM     16  C   LIG A   1      -4.868   4.666 123.658  0.00  0.00    +0.056 A 
BRANCH  10  17
ATOM     17  O   LIG A   1      -7.884   1.761 123.894  0.00  0.00    -0.491 OA
ATOM     18  C   LIG A   1      -9.235   2.195 123.820  0.00  0.00    +0.277 C 
ENDBRANCH  10  17
ENDBRANCH   5   8
BRANCH   7  19
ATOM     19  C   LIG A   1      -6.398   4.312 129.067  0.00  0.00    -0.011 A 
ATOM     20  C   LIG A   1      -6.837   4.805 130.300  0.00  0.00    +0.056 A 
ATOM     21  C   LIG A   1      -8.051   4.382 130.867  0.00  0.00    +0.166 A 
ATOM     22  C   LIG A   1      -8.838   3.408 130.206  0.00  0.00    +0.203 A 
ATOM     23  C   LIG A   1      -8.383   2.879 128.988  0.00  0.00    +0.166 A 
ATOM     24  C   LIG A   1      -7.181   3.342 128.436  0.00  0.00    +0.056 A 
BRANCH  21  25
ATOM     25  O   LIG A   1      -8.536   4.867 132.061  0.00  0.00    -0.491 OA
ATOM     26  C   LIG A   1      -8.992   6.216 132.078  0.00  0.00    +0.277 C 
ENDBRANCH  21  25
BRANCH  22  27
ATOM     27  O   LIG A   1     -10.016   3.080 130.837  0.00  0.00    -0.488 OA
ATOM     28  C   LIG A   1     -11.205   3.725 130.402  0.00  0.00    +0.277 C 
ENDBRANCH  22  27
BRANCH  23  29
ATOM     29  O   LIG A   1      -9.154   1.983 128.285  0.00  0.00    -0.491 OA
ATOM     30  C   LIG A   1      -8.448   1.257 127.280  0.00  0.00    +0.277 C 
ENDBRANCH  23  29
ENDBRANCH   7  19
TORSDOF 6
ENDMDL
MODEL 6
REMARK VINA RESULT:      -7.0      3.771      7.506
REMARK  Name = NuBBE_83
REMARK  12 active torsions:
REMARK  status: ('A' for Active; 'I' for Inactive)
REMARK    1  A    between atoms: C_1  and  C_2
REMARK    2  A    between atoms: C_4  and  C_6
REMARK    3  A    between atoms: C_7  and  C_9
REMARK    4  A    between atoms: C_11  and  O_12
REMARK    5  A    between atoms: O_12  and  C_13
REMARK    6  A    between atoms: C_21  and  C_23
REMARK    7  A    between atoms: C_25  and  O_26
REMARK    8  A    between atoms: O_26  and  C_27
REMARK    9  A    between atoms: C_28  and  O_29
REMARK   10  A    between atoms: O_29  and  C_30
REMARK   11  A    between atoms: C_31  and  O_32
REMARK   12  A    between atoms: O_32  and  C_33
REMARK                            x       y       z     vdW  Elec       q    Type
REMARK                         _______ _______ _______ _____ _____    ______ ____
ROOT
ATOM      1  C   LIG A   1      -5.739   2.104 128.782  0.00  0.00    +0.011 C 
ATOM      2  C   LIG A   1      -7.070   2.239 129.508  0.00  0.00    +0.025 C 
ATOM      3  C   LIG A   1      -7.460   3.668 129.881  0.00  0.00    +0.025 C 
ATOM      4  C   LIG A   1      -6.600   4.246 130.993  0.00  0.00    +0.011 C 
ATOM      5  C   LIG A   1      -8.941   3.492 130.232  0.00  0.00    +0.152 C 
ATOM      6  O   LIG A   1      -9.431   2.476 129.323  0.00  0.00    -0.364 OA
ATOM      7  C   LIG A   1      -8.318   1.720 128.789  0.00  0.00    +0.152 C 
ENDROOT
BRANCH   5   8
ATOM      8  C   LIG A   1      -9.774   4.757 130.125  0.00  0.00    -0.011 A 
ATOM      9  C   LIG A   1      -9.570   5.676 129.060  0.00  0.00    +0.056 A 
ATOM     10  C   LIG A   1     -10.337   6.850 128.931  0.00  0.00    +0.166 A 
ATOM     11  C   LIG A   1     -11.311   7.082 129.877  0.00  0.00    +0.207 A 
ATOM     12  O   LIG A   1     -12.183   8.130 129.953  0.00  0.00    -0.449 OA
ATOM     13  C   LIG A   1     -12.928   7.825 131.140  0.00  0.00    +0.467 C 
ATOM     14  O   LIG A   1     -12.507   6.598 131.767  0.00  0.00    -0.453 OA
ATOM     15  C   LIG A   1     -11.511   6.205 130.922  0.00  0.00    +0.170 A 
ATOM     16  C   LIG A   1     -10.763   5.055 131.072  0.00  0.00    +0.056 A 
BRANCH  10  17
ATOM     17  O   LIG A   1     -10.021   7.643 127.857  0.00  0.00    -0.491 OA
ATOM     18  C   LIG A   1     -10.970   7.690 126.800  0.00  0.00    +0.277 C 
ENDBRANCH  10  17
ENDBRANCH   5   8
BRANCH   7  19
ATOM     19  C   LIG A   1      -8.353   1.797 127.275  0.00  0.00    -0.011 A 
ATOM     20  C   LIG A   1      -7.835   2.915 126.613  0.00  0.00    +0.056 A 
ATOM     21  C   LIG A   1      -7.764   2.967 125.212  0.00  0.00    +0.166 A 
ATOM     22  C   LIG A   1      -8.261   1.891 124.438  0.00  0.00    +0.203 A 
ATOM     23  C   LIG A   1      -8.820   0.783 125.094  0.00  0.00    +0.166 A 
ATOM     24  C   LIG A   1      -8.851   0.750 126.494  0.00  0.00    +0.056 A 
BRANCH  21  25
ATOM     25  O   LIG A   1      -7.230   4.034 124.522  0.00  0.00    -0.491 OA
ATOM     26  C   LIG A   1      -6.420   4.944 125.259  0.00  0.00    +0.277 C 
ENDBRANCH  21  25
BRANCH  22  27
ATOM     27  O   LIG A   1      -8.125   2.036 123.076  0.00  0.00    -0.488 OA
ATOM     28  C   LIG A   1      -9.282   2.384 122.327  0.00  0.00    +0.277 C 
ENDBRANCH  22  27
BRANCH  23  29
ATOM     29  O   LIG A   1      -9.249  -0.309 124.378  0.00  0.00    -0.491 OA
ATOM     30  C   LIG A   1      -8.714  -1.555 124.822  0.00  0.00    +0.277 C 
ENDBRANCH  23  29
ENDBRANCH   7  19
TORSDOF 6
ENDMDL
MODEL 7
REMARK VINA RESULT:      -6.9      5.950      8.258
REMARK  Name = NuBBE_83
REMARK  12 active torsions:
REMARK  status: ('A' for Active; 'I' for Inactive)
REMARK    1  A    between atoms: C_1  and  C_2
REMARK    2  A    between atoms: C_4  and  C_6
REMARK    3  A    between atoms: C_7  and  C_9
REMARK    4  A    between atoms: C_11  and  O_12
REMARK    5  A    between atoms: O_12  and  C_13
REMARK    6  A    between atoms: C_21  and  C_23
REMARK    7  A    between atoms: C_25  and  O_26
REMARK    8  A    between atoms: O_26  and  C_27
REMARK    9  A    between atoms: C_28  and  O_29
REMARK   10  A    between atoms: O_29  and  C_30
REMARK   11  A    between atoms: C_31  and  O_32
REMARK   12  A    between atoms: O_32  and  C_33
REMARK                            x       y       z     vdW  Elec       q    Type
REMARK                         _______ _______ _______ _____ _____    ______ ____
ROOT
ATOM      1  C   LIG A   1      -8.253  -0.740 131.297  0.00  0.00    +0.011 C 
ATOM      2  C   LIG A   1      -7.174  -1.160 130.310  0.00  0.00    +0.025 C 
ATOM      3  C   LIG A   1      -7.688  -1.825 129.035  0.00  0.00    +0.025 C 
ATOM      4  C   LIG A   1      -8.248  -3.217 129.277  0.00  0.00    +0.011 C 
ATOM      5  C   LIG A   1      -6.439  -1.774 128.147  0.00  0.00    +0.152 C 
ATOM      6  O   LIG A   1      -5.780  -0.529 128.486  0.00  0.00    -0.364 OA
ATOM      7  C   LIG A   1      -6.246  -0.065 129.775  0.00  0.00    +0.152 C 
ENDROOT
BRANCH   5   8
ATOM      8  C   LIG A   1      -6.719  -1.847 126.656  0.00  0.00    -0.011 A 
ATOM      9  C   LIG A   1      -5.728  -2.314 125.751  0.00  0.00    +0.056 A 
ATOM     10  C   LIG A   1      -5.968  -2.403 124.365  0.00  0.00    +0.166 A 
ATOM     11  C   LIG A   1      -7.210  -2.026 123.907  0.00  0.00    +0.207 A 
ATOM     12  O   LIG A   1      -7.679  -2.040 122.625  0.00  0.00    -0.449 OA
ATOM     13  C   LIG A   1      -9.012  -1.533 122.778  0.00  0.00    +0.467 C 
ATOM     14  O   LIG A   1      -9.340  -1.223 124.146  0.00  0.00    -0.453 OA
ATOM     15  C   LIG A   1      -8.176  -1.560 124.774  0.00  0.00    +0.170 A 
ATOM     16  C   LIG A   1      -7.959  -1.455 126.133  0.00  0.00    +0.056 A 
BRANCH  10  17
ATOM     17  O   LIG A   1      -4.915  -2.865 123.616  0.00  0.00    -0.491 OA
ATOM     18  C   LIG A   1      -4.601  -4.245 123.742  0.00  0.00    +0.277 C 
ENDBRANCH  10  17
ENDBRANCH   5   8
BRANCH   7  19
ATOM     19  C   LIG A   1      -6.811   1.334 129.619  0.00  0.00    -0.011 A 
ATOM     20  C   LIG A   1      -6.641   2.281 130.634  0.00  0.00    +0.056 A 
ATOM     21  C   LIG A   1      -7.066   3.610 130.474  0.00  0.00    +0.166 A 
ATOM     22  C   LIG A   1      -7.718   4.005 129.280  0.00  0.00    +0.203 A 
ATOM     23  C   LIG A   1      -7.929   3.049 128.274  0.00  0.00    +0.166 A 
ATOM     24  C   LIG A   1      -7.469   1.739 128.454  0.00  0.00    +0.056 A 
BRANCH  21  25
ATOM     25  O   LIG A   1      -6.887   4.581 131.434  0.00  0.00    -0.491 OA
ATOM     26  C   LIG A   1      -7.600   4.425 132.657  0.00  0.00    +0.277 C 
ENDBRANCH  21  25
BRANCH  22  27
ATOM     27  O   LIG A   1      -8.075   5.332 129.219  0.00  0.00    -0.488 OA
ATOM     28  C   LIG A   1      -9.424   5.671 129.511  0.00  0.00    +0.277 C 
ENDBRANCH  22  27
BRANCH  23  29
ATOM     29  O   LIG A   1      -8.496   3.412 127.075  0.00  0.00    -0.491 OA
ATOM     30  C   LIG A   1      -7.669   3.184 125.935  0.00  0.00    +0.277 C 
ENDBRANCH  23  29
ENDBRANCH   7  19
TORSDOF 6
ENDMDL
MODEL 8
REMARK VINA RESULT:      -6.9      6.151      9.156
REMARK  Name = NuBBE_83
REMARK  12 active torsions:
REMARK  status: ('A' for Active; 'I' for Inactive)
REMARK    1  A    between atoms: C_1  and  C_2
REMARK    2  A    between atoms: C_4  and  C_6
REMARK    3  A    between atoms: C_7  and  C_9
REMARK    4  A    between atoms: C_11  and  O_12
REMARK    5  A    between atoms: O_12  and  C_13
REMARK    6  A    between atoms: C_21  and  C_23
REMARK    7  A    between atoms: C_25  and  O_26
REMARK    8  A    between atoms: O_26  and  C_27
REMARK    9  A    between atoms: C_28  and  O_29
REMARK   10  A    between atoms: O_29  and  C_30
REMARK   11  A    between atoms: C_31  and  O_32
REMARK   12  A    between atoms: O_32  and  C_33
REMARK                            x       y       z     vdW  Elec       q    Type
REMARK                         _______ _______ _______ _____ _____    ______ ____
ROOT
ATOM      1  C   LIG A   1      -9.480  -2.877 125.843  0.00  0.00    +0.011 C 
ATOM      2  C   LIG A   1      -8.219  -2.324 125.194  0.00  0.00    +0.025 C 
ATOM      3  C   LIG A   1      -8.376  -0.951 124.543  0.00  0.00    +0.025 C 
ATOM      4  C   LIG A   1      -9.216  -0.988 123.278  0.00  0.00    +0.011 C 
ATOM      5  C   LIG A   1      -6.912  -0.548 124.338  0.00  0.00    +0.152 C 
ATOM      6  O   LIG A   1      -6.203  -1.091 125.479  0.00  0.00    -0.364 OA
ATOM      7  C   LIG A   1      -6.991  -2.139 126.091  0.00  0.00    +0.152 C 
ENDROOT
BRANCH   5   8
ATOM      8  C   LIG A   1      -6.677   0.948 124.220  0.00  0.00    -0.011 A 
ATOM      9  C   LIG A   1      -6.827   1.613 122.974  0.00  0.00    +0.056 A 
ATOM     10  C   LIG A   1      -6.628   3.002 122.841  0.00  0.00    +0.166 A 
ATOM     11  C   LIG A   1      -6.284   3.707 123.973  0.00  0.00    +0.207 A 
ATOM     12  O   LIG A   1      -6.058   5.048 124.097  0.00  0.00    -0.449 OA
ATOM     13  C   LIG A   1      -5.735   5.178 125.489  0.00  0.00    +0.467 C 
ATOM     14  O   LIG A   1      -5.774   3.923 126.193  0.00  0.00    -0.453 OA
ATOM     15  C   LIG A   1      -6.124   3.071 125.186  0.00  0.00    +0.170 A 
ATOM     16  C   LIG A   1      -6.305   1.712 125.335  0.00  0.00    +0.056 A 
BRANCH  10  17
ATOM     17  O   LIG A   1      -6.801   3.501 121.575  0.00  0.00    -0.491 OA
ATOM     18  C   LIG A   1      -5.621   3.780 120.834  0.00  0.00    +0.277 C 
ENDBRANCH  10  17
ENDBRANCH   5   8
BRANCH   7  19
ATOM     19  C   LIG A   1      -7.219  -1.795 127.550  0.00  0.00    -0.011 A 
ATOM     20  C   LIG A   1      -7.571  -0.493 127.921  0.00  0.00    +0.056 A 
ATOM     21  C   LIG A   1      -7.884  -0.171 129.252  0.00  0.00    +0.166 A 
ATOM     22  C   LIG A   1      -7.807  -1.166 130.257  0.00  0.00    +0.203 A 
ATOM     23  C   LIG A   1      -7.414  -2.465 129.898  0.00  0.00    +0.166 A 
ATOM     24  C   LIG A   1      -7.134  -2.760 128.558  0.00  0.00    +0.056 A 
BRANCH  21  25
ATOM     25  O   LIG A   1      -8.269   1.089 129.653  0.00  0.00    -0.491 OA
ATOM     26  C   LIG A   1      -8.499   2.054 128.632  0.00  0.00    +0.277 C 
ENDBRANCH  21  25
BRANCH  22  27
ATOM     27  O   LIG A   1      -8.153  -0.749 131.521  0.00  0.00    -0.488 OA
ATOM     28  C   LIG A   1      -7.104  -0.483 132.444  0.00  0.00    +0.277 C 
ENDBRANCH  22  27
BRANCH  23  29
ATOM     29  O   LIG A   1      -7.394  -3.471 130.835  0.00  0.00    -0.491 OA
ATOM     30  C   LIG A   1      -6.093  -3.971 131.139  0.00  0.00    +0.277 C 
ENDBRANCH  23  29
ENDBRANCH   7  19
TORSDOF 6
ENDMDL
MODEL 9
REMARK VINA RESULT:      -6.9      6.115      9.228
REMARK  Name = NuBBE_83
REMARK  12 active torsions:
REMARK  status: ('A' for Active; 'I' for Inactive)
REMARK    1  A    between atoms: C_1  and  C_2
REMARK    2  A    between atoms: C_4  and  C_6
REMARK    3  A    between atoms: C_7  and  C_9
REMARK    4  A    between atoms: C_11  and  O_12
REMARK    5  A    between atoms: O_12  and  C_13
REMARK    6  A    between atoms: C_21  and  C_23
REMARK    7  A    between atoms: C_25  and  O_26
REMARK    8  A    between atoms: O_26  and  C_27
REMARK    9  A    between atoms: C_28  and  O_29
REMARK   10  A    between atoms: O_29  and  C_30
REMARK   11  A    between atoms: C_31  and  O_32
REMARK   12  A    between atoms: O_32  and  C_33
REMARK                            x       y       z     vdW  Elec       q    Type
REMARK                         _______ _______ _______ _____ _____    ______ ____
ROOT
ATOM      1  C   LIG A   1      -9.398  -3.064 125.993  0.00  0.00    +0.011 C 
ATOM      2  C   LIG A   1      -8.115  -2.487 125.411  0.00  0.00    +0.025 C 
ATOM      3  C   LIG A   1      -8.278  -1.151 124.688  0.00  0.00    +0.025 C 
ATOM      4  C   LIG A   1      -9.021  -1.279 123.368  0.00  0.00    +0.011 C 
ATOM      5  C   LIG A   1      -6.819  -0.696 124.569  0.00  0.00    +0.152 C 
ATOM      6  O   LIG A   1      -6.175  -1.159 125.781  0.00  0.00    -0.364 OA
ATOM      7  C   LIG A   1      -6.965  -2.212 126.383  0.00  0.00    +0.152 C 
ENDROOT
BRANCH   5   8
ATOM      8  C   LIG A   1      -6.634   0.801 124.399  0.00  0.00    -0.011 A 
ATOM      9  C   LIG A   1      -6.907   1.433 123.155  0.00  0.00    +0.056 A 
ATOM     10  C   LIG A   1      -6.756   2.822 122.976  0.00  0.00    +0.166 A 
ATOM     11  C   LIG A   1      -6.337   3.563 124.059  0.00  0.00    +0.207 A 
ATOM     12  O   LIG A   1      -6.137   4.912 124.133  0.00  0.00    -0.449 OA
ATOM     13  C   LIG A   1      -5.701   5.083 125.490  0.00  0.00    +0.467 C 
ATOM     14  O   LIG A   1      -5.647   3.844 126.222  0.00  0.00    -0.453 OA
ATOM     15  C   LIG A   1      -6.059   2.961 125.268  0.00  0.00    +0.170 A 
ATOM     16  C   LIG A   1      -6.190   1.601 125.461  0.00  0.00    +0.056 A 
BRANCH  10  17
ATOM     17  O   LIG A   1      -7.049   3.287 121.719  0.00  0.00    -0.491 OA
ATOM     18  C   LIG A   1      -5.944   3.553 120.865  0.00  0.00    +0.277 C 
ENDBRANCH  10  17
ENDBRANCH   5   8
BRANCH   7  19
ATOM     19  C   LIG A   1      -7.312  -1.814 127.805  0.00  0.00    -0.011 A 
ATOM     20  C   LIG A   1      -7.244  -2.756 128.838  0.00  0.00    +0.056 A 
ATOM     21  C   LIG A   1      -7.464  -2.391 130.176  0.00  0.00    +0.166 A 
ATOM     22  C   LIG A   1      -7.800  -1.054 130.498  0.00  0.00    +0.203 A 
ATOM     23  C   LIG A   1      -7.910  -0.113 129.463  0.00  0.00    +0.166 A 
ATOM     24  C   LIG A   1      -7.659  -0.503 128.141  0.00  0.00    +0.056 A 
BRANCH  21  25
ATOM     25  O   LIG A   1      -7.373  -3.279 131.225  0.00  0.00    -0.491 OA
ATOM     26  C   LIG A   1      -6.091  -3.836 131.495  0.00  0.00    +0.277 C 
ENDBRANCH  21  25
BRANCH  22  27
ATOM     27  O   LIG A   1      -7.975  -0.801 131.839  0.00  0.00    -0.488 OA
ATOM     28  C   LIG A   1      -6.900  -0.197 132.547  0.00  0.00    +0.277 C 
ENDBRANCH  22  27
BRANCH  23  29
ATOM     29  O   LIG A   1      -8.168   1.208 129.745  0.00  0.00    -0.491 OA
ATOM     30  C   LIG A   1      -8.032   2.089 128.631  0.00  0.00    +0.277 C 
ENDBRANCH  23  29
ENDBRANCH   7  19
TORSDOF 6
ENDMDL
