MODEL 1
REMARK VINA RESULT:      -7.6      0.000      0.000
REMARK  Name = NuBBE_852
REMARK  4 active torsions:
REMARK  status: ('A' for Active; 'I' for Inactive)
REMARK    1  A    between atoms: C_3  and  O_4
REMARK    2  A    between atoms: C_13  and  C_14
REMARK    3  A    between atoms: C_18  and  C_20
REMARK    4  A    between atoms: C_20  and  C_21
REMARK                            x       y       z     vdW  Elec       q    Type
REMARK                         _______ _______ _______ _____ _____    ______ ____
ROOT
ATOM      1  O   LIG A   1     -10.128  -0.986 122.651  0.00  0.00    -0.289 OA
ATOM      2  C   LIG A   1      -9.102  -1.236 123.296  0.00  0.00    +0.196 C 
ATOM      3  C   LIG A   1      -8.753  -2.701 123.803  0.00  0.00    +0.154 C 
ATOM      4  C   LIG A   1      -8.978  -2.126 125.266  0.00  0.00    +0.084 C 
ATOM      5  C   LIG A   1      -7.622  -1.550 125.615  0.00  0.00    +0.187 C 
ATOM      6  O   LIG A   1      -6.717  -2.554 125.140  0.00  0.00    -0.365 OA
ATOM      7  C   LIG A   1      -7.536  -3.493 124.411  0.00  0.00    +0.203 C 
ATOM      8  C   LIG A   1      -8.205  -0.081 123.709  0.00  0.00    +0.038 C 
ATOM      9  C   LIG A   1      -7.449  -0.285 124.810  0.00  0.00    +0.134 C 
ATOM     10  O   LIG A   1      -6.606   0.675 125.357  0.00  0.00    -0.487 OA
ATOM     11  C   LIG A   1      -6.856   2.000 124.859  0.00  0.00    +0.111 C 
ATOM     12  C   LIG A   1      -8.049   2.593 125.636  0.00  0.00    +0.056 C 
ATOM     13  C   LIG A   1      -6.976   1.980 123.325  0.00  0.00    +0.044 C 
ATOM     14  C   LIG A   1      -8.194   1.176 122.895  0.00  0.00    +0.050 C 
ATOM     15  C   LIG A   1      -6.865   3.456 122.920  0.00  0.00    +0.023 C 
ATOM     16  C   LIG A   1      -5.868   4.029 123.972  0.00  0.00    +0.012 C 
ATOM     17  C   LIG A   1      -5.638   2.915 125.011  0.00  0.00    +0.049 C 
ENDROOT
BRANCH   3  18
ATOM     18  O   LIG A   1      -7.907  -2.441 122.564  0.00  0.00    -0.378 OA
ATOM     19  H   LIG A   1      -7.804  -3.267 122.044  0.00  0.00    +0.211 HD
ENDBRANCH   3  18
BRANCH  15  20
ATOM     20  C   LIG A   1      -6.516   3.652 121.453  0.00  0.00    -0.059 C 
ATOM     21  C   LIG A   1      -5.258   3.646 120.972  0.00  0.00    +0.009 C 
BRANCH  20  22
ATOM     22  C   LIG A   1      -7.684   3.838 120.510  0.00  0.00    +0.139 C 
ATOM     23 CL   LIG A   1      -7.134   4.588 118.996  0.00  0.00    -0.121 Cl
ENDBRANCH  20  22
ENDBRANCH  15  20
TORSDOF 3
ENDMDL
MODEL 2
REMARK VINA RESULT:      -7.1      7.523     10.131
REMARK  Name = NuBBE_852
REMARK  4 active torsions:
REMARK  status: ('A' for Active; 'I' for Inactive)
REMARK    1  A    between atoms: C_3  and  O_4
REMARK    2  A    between atoms: C_13  and  C_14
REMARK    3  A    between atoms: C_18  and  C_20
REMARK    4  A    between atoms: C_20  and  C_21
REMARK                            x       y       z     vdW  Elec       q    Type
REMARK                         _______ _______ _______ _____ _____    ______ ____
ROOT
ATOM      1  O   LIG A   1      -9.815   6.446 126.563  0.00  0.00    -0.289 OA
ATOM      2  C   LIG A   1     -10.542   6.798 127.500  0.00  0.00    +0.196 C 
ATOM      3  C   LIG A   1     -11.791   7.757 127.293  0.00  0.00    +0.154 C 
ATOM      4  C   LIG A   1     -10.970   8.822 128.138  0.00  0.00    +0.084 C 
ATOM      5  C   LIG A   1     -11.325   8.466 129.566  0.00  0.00    +0.187 C 
ATOM      6  O   LIG A   1     -12.735   8.226 129.494  0.00  0.00    -0.365 OA
ATOM      7  C   LIG A   1     -13.057   8.254 128.087  0.00  0.00    +0.203 C 
ATOM      8  C   LIG A   1     -10.158   6.383 128.910  0.00  0.00    +0.038 C 
ATOM      9  C   LIG A   1     -10.605   7.184 129.903  0.00  0.00    +0.134 C 
ATOM     10  O   LIG A   1     -10.312   6.985 131.248  0.00  0.00    -0.487 OA
ATOM     11  C   LIG A   1      -9.230   6.063 131.462  0.00  0.00    +0.111 C 
ATOM     12  C   LIG A   1      -7.901   6.825 131.278  0.00  0.00    +0.056 C 
ATOM     13  C   LIG A   1      -9.425   4.801 130.604  0.00  0.00    +0.044 C 
ATOM     14  C   LIG A   1      -9.343   5.145 129.124  0.00  0.00    +0.050 C 
ATOM     15  C   LIG A   1      -8.438   3.786 131.198  0.00  0.00    +0.023 C 
ATOM     16  C   LIG A   1      -8.453   4.139 132.716  0.00  0.00    +0.012 C 
ATOM     17  C   LIG A   1      -9.273   5.435 132.858  0.00  0.00    +0.049 C 
ENDROOT
BRANCH   3  18
ATOM     18  O   LIG A   1     -12.330   6.338 127.412  0.00  0.00    -0.378 OA
ATOM     19  H   LIG A   1     -13.205   6.344 127.856  0.00  0.00    +0.211 HD
ENDBRANCH   3  18
BRANCH  15  20
ATOM     20  C   LIG A   1      -8.752   2.349 130.814  0.00  0.00    -0.059 C 
ATOM     21  C   LIG A   1      -8.336   1.769 129.672  0.00  0.00    +0.009 C 
BRANCH  20  22
ATOM     22  C   LIG A   1      -9.562   1.554 131.813  0.00  0.00    +0.139 C 
ATOM     23 CL   LIG A   1      -8.998  -0.131 131.856  0.00  0.00    -0.121 Cl
ENDBRANCH  20  22
ENDBRANCH  15  20
TORSDOF 3
ENDMDL
MODEL 3
REMARK VINA RESULT:      -7.0      3.323      6.495
REMARK  Name = NuBBE_852
REMARK  4 active torsions:
REMARK  status: ('A' for Active; 'I' for Inactive)
REMARK    1  A    between atoms: C_3  and  O_4
REMARK    2  A    between atoms: C_13  and  C_14
REMARK    3  A    between atoms: C_18  and  C_20
REMARK    4  A    between atoms: C_20  and  C_21
REMARK                            x       y       z     vdW  Elec       q    Type
REMARK                         _______ _______ _______ _____ _____    ______ ____
ROOT
ATOM      1  O   LIG A   1     -10.304   1.995 124.932  0.00  0.00    -0.289 OA
ATOM      2  C   LIG A   1      -9.109   1.994 124.611  0.00  0.00    +0.196 C 
ATOM      3  C   LIG A   1      -8.323   3.329 124.257  0.00  0.00    +0.154 C 
ATOM      4  C   LIG A   1      -8.245   2.757 122.778  0.00  0.00    +0.084 C 
ATOM      5  C   LIG A   1      -7.004   1.891 122.816  0.00  0.00    +0.187 C 
ATOM      6  O   LIG A   1      -6.075   2.696 123.550  0.00  0.00    -0.365 OA
ATOM      7  C   LIG A   1      -6.842   3.817 124.038  0.00  0.00    +0.203 C 
ATOM      8  C   LIG A   1      -8.405   0.658 124.443  0.00  0.00    +0.038 C 
ATOM      9  C   LIG A   1      -7.343   0.652 123.607  0.00  0.00    +0.134 C 
ATOM     10  O   LIG A   1      -6.609  -0.488 123.299  0.00  0.00    -0.487 OA
ATOM     11  C   LIG A   1      -7.270  -1.708 123.675  0.00  0.00    +0.111 C 
ATOM     12  C   LIG A   1      -8.295  -2.062 122.578  0.00  0.00    +0.056 C 
ATOM     13  C   LIG A   1      -7.810  -1.601 125.112  0.00  0.00    +0.044 C 
ATOM     14  C   LIG A   1      -8.896  -0.539 125.197  0.00  0.00    +0.050 C 
ATOM     15  C   LIG A   1      -8.141  -3.050 125.498  0.00  0.00    +0.023 C 
ATOM     16  C   LIG A   1      -7.036  -3.864 124.759  0.00  0.00    +0.012 C 
ATOM     17  C   LIG A   1      -6.288  -2.868 123.855  0.00  0.00    +0.049 C 
ENDROOT
BRANCH   3  18
ATOM     18  O   LIG A   1      -7.937   2.943 125.679  0.00  0.00    -0.378 OA
ATOM     19  H   LIG A   1      -7.577   2.030 125.697  0.00  0.00    +0.211 HD
ENDBRANCH   3  18
BRANCH  15  20
ATOM     20  C   LIG A   1      -8.271  -3.256 126.999  0.00  0.00    -0.059 C 
ATOM     21  C   LIG A   1      -9.203  -4.043 127.570  0.00  0.00    +0.009 C 
BRANCH  20  22
ATOM     22  C   LIG A   1      -7.260  -2.535 127.861  0.00  0.00    +0.139 C 
ATOM     23 CL   LIG A   1      -7.687  -2.706 129.578  0.00  0.00    -0.121 Cl
ENDBRANCH  20  22
ENDBRANCH  15  20
TORSDOF 3
ENDMDL
MODEL 4
REMARK VINA RESULT:      -7.0      4.886      6.997
REMARK  Name = NuBBE_852
REMARK  4 active torsions:
REMARK  status: ('A' for Active; 'I' for Inactive)
REMARK    1  A    between atoms: C_3  and  O_4
REMARK    2  A    between atoms: C_13  and  C_14
REMARK    3  A    between atoms: C_18  and  C_20
REMARK    4  A    between atoms: C_20  and  C_21
REMARK                            x       y       z     vdW  Elec       q    Type
REMARK                         _______ _______ _______ _____ _____    ______ ____
ROOT
ATOM      1  O   LIG A   1      -5.438  -2.262 124.033  0.00  0.00    -0.289 OA
ATOM      2  C   LIG A   1      -6.544  -2.406 124.571  0.00  0.00    +0.196 C 
ATOM      3  C   LIG A   1      -7.851  -2.766 123.743  0.00  0.00    +0.154 C 
ATOM      4  C   LIG A   1      -8.363  -1.315 124.137  0.00  0.00    +0.084 C 
ATOM      5  C   LIG A   1      -9.009  -1.541 125.487  0.00  0.00    +0.187 C 
ATOM      6  O   LIG A   1      -9.733  -2.761 125.296  0.00  0.00    -0.365 OA
ATOM      7  C   LIG A   1      -9.328  -3.246 123.998  0.00  0.00    +0.203 C 
ATOM      8  C   LIG A   1      -6.670  -2.119 126.057  0.00  0.00    +0.038 C 
ATOM      9  C   LIG A   1      -7.899  -1.758 126.487  0.00  0.00    +0.134 C 
ATOM     10  O   LIG A   1      -8.188  -1.415 127.803  0.00  0.00    -0.487 OA
ATOM     11  C   LIG A   1      -7.016  -1.154 128.592  0.00  0.00    +0.111 C 
ATOM     12  C   LIG A   1      -6.553   0.290 128.310  0.00  0.00    +0.056 C 
ATOM     13  C   LIG A   1      -5.972  -2.265 128.381  0.00  0.00    +0.044 C 
ATOM     14  C   LIG A   1      -5.471  -2.261 126.944  0.00  0.00    +0.050 C 
ATOM     15  C   LIG A   1      -4.972  -2.064 129.528  0.00  0.00    +0.023 C 
ATOM     16  C   LIG A   1      -5.880  -1.568 130.694  0.00  0.00    +0.012 C 
ATOM     17  C   LIG A   1      -7.276  -1.326 130.091  0.00  0.00    +0.049 C 
ENDROOT
BRANCH   3  18
ATOM     18  O   LIG A   1      -7.367  -4.051 124.400  0.00  0.00    -0.378 OA
ATOM     19  H   LIG A   1      -7.533  -4.021 125.367  0.00  0.00    +0.211 HD
ENDBRANCH   3  18
BRANCH  15  20
ATOM     20  C   LIG A   1      -4.107  -3.287 129.792  0.00  0.00    -0.059 C 
ATOM     21  C   LIG A   1      -3.112  -3.693 128.981  0.00  0.00    +0.009 C 
BRANCH  20  22
ATOM     22  C   LIG A   1      -4.403  -4.050 131.064  0.00  0.00    +0.139 C 
ATOM     23 CL   LIG A   1      -5.659  -5.272 130.767  0.00  0.00    -0.121 Cl
ENDBRANCH  20  22
ENDBRANCH  15  20
TORSDOF 3
ENDMDL
MODEL 5
REMARK VINA RESULT:      -7.0      4.716      6.623
REMARK  Name = NuBBE_852
REMARK  4 active torsions:
REMARK  status: ('A' for Active; 'I' for Inactive)
REMARK    1  A    between atoms: C_3  and  O_4
REMARK    2  A    between atoms: C_13  and  C_14
REMARK    3  A    between atoms: C_18  and  C_20
REMARK    4  A    between atoms: C_20  and  C_21
REMARK                            x       y       z     vdW  Elec       q    Type
REMARK                         _______ _______ _______ _____ _____    ______ ____
ROOT
ATOM      1  O   LIG A   1      -4.090  -2.156 129.120  0.00  0.00    -0.289 OA
ATOM      2  C   LIG A   1      -5.038  -1.369 129.007  0.00  0.00    +0.196 C 
ATOM      3  C   LIG A   1      -5.265  -0.162 130.014  0.00  0.00    +0.154 C 
ATOM      4  C   LIG A   1      -6.569  -0.942 130.478  0.00  0.00    +0.084 C 
ATOM      5  C   LIG A   1      -7.613  -0.473 129.487  0.00  0.00    +0.187 C 
ATOM      6  O   LIG A   1      -7.356   0.933 129.394  0.00  0.00    -0.365 OA
ATOM      7  C   LIG A   1      -6.132   1.147 130.128  0.00  0.00    +0.203 C 
ATOM      8  C   LIG A   1      -6.077  -1.637 127.932  0.00  0.00    +0.038 C 
ATOM      9  C   LIG A   1      -7.310  -1.135 128.165  0.00  0.00    +0.134 C 
ATOM     10  O   LIG A   1      -8.394  -1.322 127.314  0.00  0.00    -0.487 OA
ATOM     11  C   LIG A   1      -8.183  -2.363 126.346  0.00  0.00    +0.111 C 
ATOM     12  C   LIG A   1      -8.471  -3.719 127.022  0.00  0.00    +0.056 C 
ATOM     13  C   LIG A   1      -6.804  -2.203 125.683  0.00  0.00    +0.044 C 
ATOM     14  C   LIG A   1      -5.694  -2.404 126.704  0.00  0.00    +0.050 C 
ATOM     15  C   LIG A   1      -6.871  -3.118 124.452  0.00  0.00    +0.023 C 
ATOM     16  C   LIG A   1      -8.361  -2.998 124.013  0.00  0.00    +0.012 C 
ATOM     17  C   LIG A   1      -9.081  -2.201 125.117  0.00  0.00    +0.049 C 
ENDROOT
BRANCH   3  18
ATOM     18  O   LIG A   1      -4.638   0.417 128.754  0.00  0.00    -0.378 OA
ATOM     19  H   LIG A   1      -3.669   0.257 128.753  0.00  0.00    +0.211 HD
ENDBRANCH   3  18
BRANCH  15  20
ATOM     20  C   LIG A   1      -5.810  -2.801 123.410  0.00  0.00    -0.059 C 
ATOM     21  C   LIG A   1      -6.028  -2.031 122.327  0.00  0.00    +0.009 C 
BRANCH  20  22
ATOM     22  C   LIG A   1      -4.438  -3.388 123.655  0.00  0.00    +0.139 C 
ATOM     23 CL   LIG A   1      -4.500  -5.160 123.533  0.00  0.00    -0.121 Cl
ENDBRANCH  20  22
ENDBRANCH  15  20
TORSDOF 3
ENDMDL
MODEL 6
REMARK VINA RESULT:      -6.9      3.993      6.244
REMARK  Name = NuBBE_852
REMARK  4 active torsions:
REMARK  status: ('A' for Active; 'I' for Inactive)
REMARK    1  A    between atoms: C_3  and  O_4
REMARK    2  A    between atoms: C_13  and  C_14
REMARK    3  A    between atoms: C_18  and  C_20
REMARK    4  A    between atoms: C_20  and  C_21
REMARK                            x       y       z     vdW  Elec       q    Type
REMARK                         _______ _______ _______ _____ _____    ______ ____
ROOT
ATOM      1  O   LIG A   1      -4.147   2.096 126.658  0.00  0.00    -0.289 OA
ATOM      2  C   LIG A   1      -5.374   2.193 126.537  0.00  0.00    +0.196 C 
ATOM      3  C   LIG A   1      -6.143   3.567 126.749  0.00  0.00    +0.154 C 
ATOM      4  C   LIG A   1      -6.786   2.880 128.028  0.00  0.00    +0.084 C 
ATOM      5  C   LIG A   1      -7.986   2.157 127.455  0.00  0.00    +0.187 C 
ATOM      6  O   LIG A   1      -8.532   3.115 126.543  0.00  0.00    -0.365 OA
ATOM      7  C   LIG A   1      -7.567   4.187 126.492  0.00  0.00    +0.203 C 
ATOM      8  C   LIG A   1      -6.180   0.929 126.288  0.00  0.00    +0.038 C 
ATOM      9  C   LIG A   1      -7.470   0.962 126.692  0.00  0.00    +0.134 C 
ATOM     10  O   LIG A   1      -8.341  -0.117 126.585  0.00  0.00    -0.487 OA
ATOM     11  C   LIG A   1      -7.672  -1.362 126.322  0.00  0.00    +0.111 C 
ATOM     12  C   LIG A   1      -7.137  -1.917 127.659  0.00  0.00    +0.056 C 
ATOM     13  C   LIG A   1      -6.646  -1.189 125.189  0.00  0.00    +0.044 C 
ATOM     14  C   LIG A   1      -5.533  -0.243 125.617  0.00  0.00    +0.050 C 
ATOM     15  C   LIG A   1      -6.297  -2.624 124.774  0.00  0.00    +0.023 C 
ATOM     16  C   LIG A   1      -7.646  -3.379 124.977  0.00  0.00    +0.012 C 
ATOM     17  C   LIG A   1      -8.600  -2.392 125.674  0.00  0.00    +0.049 C 
ENDROOT
BRANCH   3  18
ATOM     18  O   LIG A   1      -6.017   3.349 125.247  0.00  0.00    -0.378 OA
ATOM     19  H   LIG A   1      -6.131   4.200 124.770  0.00  0.00    +0.211 HD
ENDBRANCH   3  18
BRANCH  15  20
ATOM     20  C   LIG A   1      -5.650  -2.713 123.401  0.00  0.00    -0.059 C 
ATOM     21  C   LIG A   1      -6.183  -2.182 122.284  0.00  0.00    +0.009 C 
BRANCH  20  22
ATOM     22  C   LIG A   1      -4.320  -3.428 123.336  0.00  0.00    +0.139 C 
ATOM     23 CL   LIG A   1      -4.544  -5.166 123.631  0.00  0.00    -0.121 Cl
ENDBRANCH  20  22
ENDBRANCH  15  20
TORSDOF 3
ENDMDL
MODEL 7
REMARK VINA RESULT:      -6.9      6.873      9.548
REMARK  Name = NuBBE_852
REMARK  4 active torsions:
REMARK  status: ('A' for Active; 'I' for Inactive)
REMARK    1  A    between atoms: C_3  and  O_4
REMARK    2  A    between atoms: C_13  and  C_14
REMARK    3  A    between atoms: C_18  and  C_20
REMARK    4  A    between atoms: C_20  and  C_21
REMARK                            x       y       z     vdW  Elec       q    Type
REMARK                         _______ _______ _______ _____ _____    ______ ____
ROOT
ATOM      1  O   LIG A   1      -9.701   8.758 128.487  0.00  0.00    -0.289 OA
ATOM      2  C   LIG A   1     -10.668   7.991 128.572  0.00  0.00    +0.196 C 
ATOM      3  C   LIG A   1     -12.123   8.400 128.082  0.00  0.00    +0.154 C 
ATOM      4  C   LIG A   1     -12.532   8.342 129.616  0.00  0.00    +0.084 C 
ATOM      5  C   LIG A   1     -12.878   6.882 129.818  0.00  0.00    +0.187 C 
ATOM      6  O   LIG A   1     -13.633   6.566 128.644  0.00  0.00    -0.365 OA
ATOM      7  C   LIG A   1     -13.515   7.725 127.790  0.00  0.00    +0.203 C 
ATOM      8  C   LIG A   1     -10.474   6.655 129.269  0.00  0.00    +0.038 C 
ATOM      9  C   LIG A   1     -11.582   6.108 129.816  0.00  0.00    +0.134 C 
ATOM     10  O   LIG A   1     -11.584   4.915 130.530  0.00  0.00    -0.487 OA
ATOM     11  C   LIG A   1     -10.269   4.488 130.923  0.00  0.00    +0.111 C 
ATOM     12  C   LIG A   1      -9.869   5.259 132.198  0.00  0.00    +0.056 C 
ATOM     13  C   LIG A   1      -9.300   4.577 129.732  0.00  0.00    +0.044 C 
ATOM     14  C   LIG A   1      -9.115   6.026 129.302  0.00  0.00    +0.050 C 
ATOM     15  C   LIG A   1      -8.078   3.762 130.178  0.00  0.00    +0.023 C 
ATOM     16  C   LIG A   1      -8.715   2.629 131.039  0.00  0.00    +0.012 C 
ATOM     17  C   LIG A   1     -10.206   2.982 131.193  0.00  0.00    +0.049 C 
ENDROOT
BRANCH   3  18
ATOM     18  O   LIG A   1     -11.518   7.513 127.002  0.00  0.00    -0.378 OA
ATOM     19  H   LIG A   1     -11.575   6.569 127.266  0.00  0.00    +0.211 HD
ENDBRANCH   3  18
BRANCH  15  20
ATOM     20  C   LIG A   1      -7.184   3.339 129.023  0.00  0.00    -0.059 C 
ATOM     21  C   LIG A   1      -6.332   4.168 128.390  0.00  0.00    +0.009 C 
BRANCH  20  22
ATOM     22  C   LIG A   1      -7.273   1.888 128.609  0.00  0.00    +0.139 C 
ATOM     23 CL   LIG A   1      -8.693   1.634 127.572  0.00  0.00    -0.121 Cl
ENDBRANCH  20  22
ENDBRANCH  15  20
TORSDOF 3
ENDMDL
MODEL 8
REMARK VINA RESULT:      -6.6      7.345      9.665
REMARK  Name = NuBBE_852
REMARK  4 active torsions:
REMARK  status: ('A' for Active; 'I' for Inactive)
REMARK    1  A    between atoms: C_3  and  O_4
REMARK    2  A    between atoms: C_13  and  C_14
REMARK    3  A    between atoms: C_18  and  C_20
REMARK    4  A    between atoms: C_20  and  C_21
REMARK                            x       y       z     vdW  Elec       q    Type
REMARK                         _______ _______ _______ _____ _____    ______ ____
ROOT
ATOM      1  O   LIG A   1      -8.029   7.243 130.592  0.00  0.00    -0.289 OA
ATOM      2  C   LIG A   1      -9.026   6.581 130.276  0.00  0.00    +0.196 C 
ATOM      3  C   LIG A   1     -10.292   7.233 129.572  0.00  0.00    +0.154 C 
ATOM      4  C   LIG A   1     -11.069   6.901 130.917  0.00  0.00    +0.084 C 
ATOM      5  C   LIG A   1     -11.529   5.475 130.698  0.00  0.00    +0.187 C 
ATOM      6  O   LIG A   1     -11.987   5.492 129.342  0.00  0.00    -0.365 OA
ATOM      7  C   LIG A   1     -11.603   6.783 128.824  0.00  0.00    +0.203 C 
ATOM      8  C   LIG A   1      -9.079   5.116 130.677  0.00  0.00    +0.038 C 
ATOM      9  C   LIG A   1     -10.315   4.587 130.817  0.00  0.00    +0.134 C 
ATOM     10  O   LIG A   1     -10.554   3.278 131.221  0.00  0.00    -0.487 OA
ATOM     11  C   LIG A   1      -9.400   2.643 131.797  0.00  0.00    +0.111 C 
ATOM     12  C   LIG A   1      -9.287   3.085 133.271  0.00  0.00    +0.056 C 
ATOM     13  C   LIG A   1      -8.164   2.876 130.911  0.00  0.00    +0.044 C 
ATOM     14  C   LIG A   1      -7.805   4.355 130.876  0.00  0.00    +0.050 C 
ATOM     15  C   LIG A   1      -7.134   1.863 131.428  0.00  0.00    +0.023 C 
ATOM     16  C   LIG A   1      -8.021   0.649 131.840  0.00  0.00    +0.012 C 
ATOM     17  C   LIG A   1      -9.484   1.116 131.725  0.00  0.00    +0.049 C 
ENDROOT
BRANCH   3  18
ATOM     18  O   LIG A   1      -9.486   6.532 128.487  0.00  0.00    -0.378 OA
ATOM     19  H   LIG A   1      -9.759   6.854 127.601  0.00  0.00    +0.211 HD
ENDBRANCH   3  18
BRANCH  15  20
ATOM     20  C   LIG A   1      -6.006   1.598 130.443  0.00  0.00    -0.059 C 
ATOM     21  C   LIG A   1      -6.194   1.363 129.131  0.00  0.00    +0.009 C 
BRANCH  20  22
ATOM     22  C   LIG A   1      -4.605   1.632 131.011  0.00  0.00    +0.139 C 
ATOM     23 CL   LIG A   1      -3.840   3.197 130.660  0.00  0.00    -0.121 Cl
ENDBRANCH  20  22
ENDBRANCH  15  20
TORSDOF 3
ENDMDL
MODEL 9
REMARK VINA RESULT:      -6.6      3.865      5.443
REMARK  Name = NuBBE_852
REMARK  4 active torsions:
REMARK  status: ('A' for Active; 'I' for Inactive)
REMARK    1  A    between atoms: C_3  and  O_4
REMARK    2  A    between atoms: C_13  and  C_14
REMARK    3  A    between atoms: C_18  and  C_20
REMARK    4  A    between atoms: C_20  and  C_21
REMARK                            x       y       z     vdW  Elec       q    Type
REMARK                         _______ _______ _______ _____ _____    ______ ____
ROOT
ATOM      1  O   LIG A   1      -9.012  -3.627 128.879  0.00  0.00    -0.289 OA
ATOM      2  C   LIG A   1      -8.045  -2.900 129.140  0.00  0.00    +0.196 C 
ATOM      3  C   LIG A   1      -7.263  -2.987 130.520  0.00  0.00    +0.154 C 
ATOM      4  C   LIG A   1      -7.843  -1.537 130.810  0.00  0.00    +0.084 C 
ATOM      5  C   LIG A   1      -6.825  -0.630 130.151  0.00  0.00    +0.187 C 
ATOM      6  O   LIG A   1      -5.578  -1.223 130.526  0.00  0.00    -0.365 OA
ATOM      7  C   LIG A   1      -5.924  -2.470 131.165  0.00  0.00    +0.203 C 
ATOM      8  C   LIG A   1      -7.666  -1.815 128.146  0.00  0.00    +0.038 C 
ATOM      9  C   LIG A   1      -7.018  -0.746 128.658  0.00  0.00    +0.134 C 
ATOM     10  O   LIG A   1      -6.635   0.360 127.907  0.00  0.00    -0.487 OA
ATOM     11  C   LIG A   1      -7.277   0.421 126.622  0.00  0.00    +0.111 C 
ATOM     12  C   LIG A   1      -8.684   1.027 126.811  0.00  0.00    +0.056 C 
ATOM     13  C   LIG A   1      -7.205  -0.948 125.923  0.00  0.00    +0.044 C 
ATOM     14  C   LIG A   1      -8.005  -1.985 126.697  0.00  0.00    +0.050 C 
ATOM     15  C   LIG A   1      -7.575  -0.645 124.464  0.00  0.00    +0.023 C 
ATOM     16  C   LIG A   1      -6.972   0.775 124.243  0.00  0.00    +0.012 C 
ATOM     17  C   LIG A   1      -6.486   1.265 125.619  0.00  0.00    +0.049 C 
ENDROOT
BRANCH   3  18
ATOM     18  O   LIG A   1      -6.427  -3.724 129.483  0.00  0.00    -0.378 OA
ATOM     19  H   LIG A   1      -6.263  -4.648 129.773  0.00  0.00    +0.211 HD
ENDBRANCH   3  18
BRANCH  15  20
ATOM     20  C   LIG A   1      -7.152  -1.740 123.498  0.00  0.00    -0.059 C 
ATOM     21  C   LIG A   1      -5.924  -2.291 123.478  0.00  0.00    +0.009 C 
BRANCH  20  22
ATOM     22  C   LIG A   1      -8.212  -2.223 122.533  0.00  0.00    +0.139 C 
ATOM     23 CL   LIG A   1      -9.438  -3.174 123.399  0.00  0.00    -0.121 Cl
ENDBRANCH  20  22
ENDBRANCH  15  20
TORSDOF 3
ENDMDL
