MODEL 1
REMARK VINA RESULT:      -8.8      0.000      0.000
REMARK  Name = NuBBE_1160
REMARK  5 active torsions:
REMARK  status: ('A' for Active; 'I' for Inactive)
REMARK    1  A    between atoms: C_3  and  C_38
REMARK    2  A    between atoms: C_10  and  C_12
REMARK    3  A    between atoms: C_17  and  C_36
REMARK    4  A    between atoms: C_30  and  C_34
REMARK    5  A    between atoms: C_30  and  C_35
REMARK                            x       y       z     vdW  Elec       q    Type
REMARK                         _______ _______ _______ _____ _____    ______ ____
ROOT
ATOM      1  O   LIG A   1      -4.424  -0.035 130.663  0.00  0.00    -0.297 OA
ATOM      2  C   LIG A   1      -4.333  -1.257 130.787  0.00  0.00    +0.143 C 
ATOM      3  C   LIG A   1      -5.145  -2.237 129.933  0.00  0.00    +0.062 C 
ATOM      4  C   LIG A   1      -5.887  -1.511 128.758  0.00  0.00    +0.128 C 
ATOM      5  O   LIG A   1      -5.215  -1.746 127.498  0.00  0.00    -0.351 OA
ATOM      6  C   LIG A   1      -5.254  -0.391 127.927  0.00  0.00    +0.260 C 
ATOM      7  C   LIG A   1      -6.084   0.487 127.065  0.00  0.00    +0.340 C 
ATOM      8  O   LIG A   1      -7.351   0.077 126.767  0.00  0.00    -0.454 OA
ATOM      9  C   LIG A   1      -7.883  -1.203 127.205  0.00  0.00    +0.218 C 
ATOM     10  C   LIG A   1      -7.398  -1.577 128.654  0.00  0.00    +0.042 C 
ATOM     11  C   LIG A   1      -7.840  -2.991 129.061  0.00  0.00    +0.014 C 
ATOM     12  C   LIG A   1      -7.534  -3.288 130.520  0.00  0.00    +0.006 C 
ATOM     13  C   LIG A   1      -6.062  -3.062 130.938  0.00  0.00    +0.017 C 
ATOM     14  C   LIG A   1      -5.907  -2.705 132.491  0.00  0.00    +0.041 C 
ATOM     15  C   LIG A   1      -6.341  -3.892 133.389  0.00  0.00    +0.140 C 
ATOM     16  C   LIG A   1      -7.472  -3.585 134.358  0.00  0.00    +0.152 C 
ATOM     17  C   LIG A   1      -7.204  -2.306 135.102  0.00  0.00    +0.310 C 
ATOM     18  O   LIG A   1      -6.731  -1.286 134.343  0.00  0.00    -0.464 OA
ATOM     19  C   LIG A   1      -6.724  -1.456 132.916  0.00  0.00    +0.242 C 
ATOM     20  O   LIG A   1      -7.455  -2.162 136.292  0.00  0.00    -0.251 OA
ATOM     21  O   LIG A   1      -5.201  -4.330 134.151  0.00  0.00    -0.369 OA
ATOM     22  C   LIG A   1      -3.992  -3.830 133.558  0.00  0.00    +0.068 C 
ATOM     23  C   LIG A   1      -4.428  -2.498 132.926  0.00  0.00    +0.040 C 
ATOM     24  C   LIG A   1      -3.503  -1.857 131.900  0.00  0.00    +0.082 C 
ATOM     25  C   LIG A   1      -3.458  -4.916 132.623  0.00  0.00    +0.041 C 
ATOM     26  C   LIG A   1      -2.976  -3.608 134.682  0.00  0.00    +0.041 C 
ATOM     27  C   LIG A   1      -8.012  -0.508 129.596  0.00  0.00    +0.018 C 
ATOM     28  O   LIG A   1      -5.638   1.551 126.656  0.00  0.00    -0.248 OA
ATOM     29  C   LIG A   1      -4.127  -3.243 129.299  0.00  0.00    +0.022 C 
ENDROOT
BRANCH   9  30
ATOM     30  C   LIG A   1      -7.781  -2.252 126.124  0.00  0.00    +0.031 A 
ATOM     31  C   LIG A   1      -6.824  -2.375 125.135  0.00  0.00    +0.202 A 
ATOM     32  O   LIG A   1      -7.081  -3.436 124.330  0.00  0.00    -0.471 OA
ATOM     33  C   LIG A   1      -8.232  -3.996 124.772  0.00  0.00    +0.195 A 
ATOM     34  C   LIG A   1      -8.712  -3.303 125.857  0.00  0.00    +0.048 A 
ENDBRANCH   9  30
TORSDOF 1
ENDMDL
MODEL 2
REMARK VINA RESULT:      -8.7      4.254      5.558
REMARK  Name = NuBBE_1160
REMARK  5 active torsions:
REMARK  status: ('A' for Active; 'I' for Inactive)
REMARK    1  A    between atoms: C_3  and  C_38
REMARK    2  A    between atoms: C_10  and  C_12
REMARK    3  A    between atoms: C_17  and  C_36
REMARK    4  A    between atoms: C_30  and  C_34
REMARK    5  A    between atoms: C_30  and  C_35
REMARK                            x       y       z     vdW  Elec       q    Type
REMARK                         _______ _______ _______ _____ _____    ______ ____
ROOT
ATOM      1  O   LIG A   1      -8.149   3.933 126.473  0.00  0.00    -0.297 OA
ATOM      2  C   LIG A   1      -7.191   3.452 127.078  0.00  0.00    +0.143 C 
ATOM      3  C   LIG A   1      -6.690   2.024 126.831  0.00  0.00    +0.062 C 
ATOM      4  C   LIG A   1      -7.374   1.373 125.580  0.00  0.00    +0.128 C 
ATOM      5  O   LIG A   1      -6.472   1.352 124.449  0.00  0.00    -0.351 OA
ATOM      6  C   LIG A   1      -7.647   2.134 124.279  0.00  0.00    +0.260 C 
ATOM      7  C   LIG A   1      -8.581   1.598 123.258  0.00  0.00    +0.340 C 
ATOM      8  O   LIG A   1      -8.930   0.282 123.341  0.00  0.00    -0.454 OA
ATOM      9  C   LIG A   1      -8.374  -0.616 124.340  0.00  0.00    +0.218 C 
ATOM     10  C   LIG A   1      -8.182   0.099 125.729  0.00  0.00    +0.042 C 
ATOM     11  C   LIG A   1      -7.462  -0.803 126.744  0.00  0.00    +0.014 C 
ATOM     12  C   LIG A   1      -7.436  -0.191 128.135  0.00  0.00    +0.006 C 
ATOM     13  C   LIG A   1      -6.857   1.243 128.208  0.00  0.00    +0.017 C 
ATOM     14  C   LIG A   1      -7.447   2.087 129.433  0.00  0.00    +0.041 C 
ATOM     15  C   LIG A   1      -7.024   1.476 130.794  0.00  0.00    +0.140 C 
ATOM     16  C   LIG A   1      -8.175   1.064 131.699  0.00  0.00    +0.152 C 
ATOM     17  C   LIG A   1      -9.194   2.165 131.799  0.00  0.00    +0.310 C 
ATOM     18  O   LIG A   1      -9.502   2.774 130.627  0.00  0.00    -0.464 OA
ATOM     19  C   LIG A   1      -8.994   2.195 129.413  0.00  0.00    +0.242 C 
ATOM     20  O   LIG A   1      -9.762   2.453 132.845  0.00  0.00    -0.251 OA
ATOM     21  O   LIG A   1      -6.220   2.439 131.500  0.00  0.00    -0.369 OA
ATOM     22  C   LIG A   1      -5.741   3.440 130.586  0.00  0.00    +0.068 C 
ATOM     23  C   LIG A   1      -6.853   3.521 129.529  0.00  0.00    +0.040 C 
ATOM     24  C   LIG A   1      -6.536   4.212 128.209  0.00  0.00    +0.082 C 
ATOM     25  C   LIG A   1      -4.350   3.007 130.120  0.00  0.00    +0.041 C 
ATOM     26  C   LIG A   1      -5.610   4.756 131.360  0.00  0.00    +0.041 C 
ATOM     27  C   LIG A   1      -9.608   0.463 126.220  0.00  0.00    +0.018 C 
ATOM     28  O   LIG A   1      -9.030   2.330 122.386  0.00  0.00    -0.248 OA
ATOM     29  C   LIG A   1      -5.157   2.122 126.534  0.00  0.00    +0.022 C 
ENDROOT
BRANCH   9  30
ATOM     30  C   LIG A   1      -7.226  -1.427 123.789  0.00  0.00    +0.031 A 
ATOM     31  C   LIG A   1      -6.749  -1.470 122.492  0.00  0.00    +0.202 A 
ATOM     32  O   LIG A   1      -5.715  -2.339 122.377  0.00  0.00    -0.471 OA
ATOM     33  C   LIG A   1      -5.529  -2.896 123.598  0.00  0.00    +0.195 A 
ATOM     34  C   LIG A   1      -6.436  -2.387 124.496  0.00  0.00    +0.048 A 
ENDBRANCH   9  30
TORSDOF 1
ENDMDL
MODEL 3
REMARK VINA RESULT:      -8.6      3.097      6.353
REMARK  Name = NuBBE_1160
REMARK  5 active torsions:
REMARK  status: ('A' for Active; 'I' for Inactive)
REMARK    1  A    between atoms: C_3  and  C_38
REMARK    2  A    between atoms: C_10  and  C_12
REMARK    3  A    between atoms: C_17  and  C_36
REMARK    4  A    between atoms: C_30  and  C_34
REMARK    5  A    between atoms: C_30  and  C_35
REMARK                            x       y       z     vdW  Elec       q    Type
REMARK                         _______ _______ _______ _____ _____    ______ ____
ROOT
ATOM      1  O   LIG A   1      -4.449   0.463 130.189  0.00  0.00    -0.297 OA
ATOM      2  C   LIG A   1      -4.849   0.749 131.318  0.00  0.00    +0.143 C 
ATOM      3  C   LIG A   1      -5.366  -0.305 132.303  0.00  0.00    +0.062 C 
ATOM      4  C   LIG A   1      -5.094  -1.763 131.794  0.00  0.00    +0.128 C 
ATOM      5  O   LIG A   1      -3.987  -2.362 132.508  0.00  0.00    -0.351 OA
ATOM      6  C   LIG A   1      -3.790  -2.186 131.111  0.00  0.00    +0.260 C 
ATOM      7  C   LIG A   1      -3.700  -3.459 130.354  0.00  0.00    +0.340 C 
ATOM      8  O   LIG A   1      -4.676  -4.392 130.553  0.00  0.00    -0.454 OA
ATOM      9  C   LIG A   1      -5.749  -4.210 131.517  0.00  0.00    +0.218 C 
ATOM     10  C   LIG A   1      -6.249  -2.718 131.565  0.00  0.00    +0.042 C 
ATOM     11  C   LIG A   1      -7.279  -2.494 132.682  0.00  0.00    +0.014 C 
ATOM     12  C   LIG A   1      -7.899  -1.107 132.619  0.00  0.00    +0.006 C 
ATOM     13  C   LIG A   1      -6.886   0.062 132.601  0.00  0.00    +0.017 C 
ATOM     14  C   LIG A   1      -7.456   1.364 131.866  0.00  0.00    +0.041 C 
ATOM     15  C   LIG A   1      -8.661   1.965 132.636  0.00  0.00    +0.140 C 
ATOM     16  C   LIG A   1      -9.953   2.054 131.839  0.00  0.00    +0.152 C 
ATOM     17  C   LIG A   1      -9.705   2.670 130.490  0.00  0.00    +0.310 C 
ATOM     18  O   LIG A   1      -8.598   2.223 129.846  0.00  0.00    -0.464 OA
ATOM     19  C   LIG A   1      -7.904   1.095 130.405  0.00  0.00    +0.242 C 
ATOM     20  O   LIG A   1     -10.475   3.468 129.970  0.00  0.00    -0.251 OA
ATOM     21  O   LIG A   1      -8.310   3.290 133.074  0.00  0.00    -0.369 OA
ATOM     22  C   LIG A   1      -6.884   3.460 133.026  0.00  0.00    +0.068 C 
ATOM     23  C   LIG A   1      -6.453   2.553 131.864  0.00  0.00    +0.040 C 
ATOM     24  C   LIG A   1      -4.978   2.194 131.744  0.00  0.00    +0.082 C 
ATOM     25  C   LIG A   1      -6.337   3.137 134.418  0.00  0.00    +0.041 C 
ATOM     26  C   LIG A   1      -6.598   4.934 132.720  0.00  0.00    +0.041 C 
ATOM     27  C   LIG A   1      -6.867  -2.433 130.171  0.00  0.00    +0.018 C 
ATOM     28  O   LIG A   1      -2.782  -3.646 129.565  0.00  0.00    -0.248 OA
ATOM     29  C   LIG A   1      -4.571  -0.114 133.637  0.00  0.00    +0.022 C 
ENDROOT
BRANCH   9  30
ATOM     30  C   LIG A   1      -5.453  -4.907 132.823  0.00  0.00    +0.031 A 
ATOM     31  C   LIG A   1      -4.298  -5.563 133.204  0.00  0.00    +0.202 A 
ATOM     32  O   LIG A   1      -4.417  -6.086 134.449  0.00  0.00    -0.471 OA
ATOM     33  C   LIG A   1      -5.670  -5.801 134.879  0.00  0.00    +0.195 A 
ATOM     34  C   LIG A   1      -6.353  -5.095 133.918  0.00  0.00    +0.048 A 
ENDBRANCH   9  30
TORSDOF 1
ENDMDL
MODEL 4
REMARK VINA RESULT:      -8.6      3.390      5.325
REMARK  Name = NuBBE_1160
REMARK  5 active torsions:
REMARK  status: ('A' for Active; 'I' for Inactive)
REMARK    1  A    between atoms: C_3  and  C_38
REMARK    2  A    between atoms: C_10  and  C_12
REMARK    3  A    between atoms: C_17  and  C_36
REMARK    4  A    between atoms: C_30  and  C_34
REMARK    5  A    between atoms: C_30  and  C_35
REMARK                            x       y       z     vdW  Elec       q    Type
REMARK                         _______ _______ _______ _____ _____    ______ ____
ROOT
ATOM      1  O   LIG A   1      -8.939   1.640 126.624  0.00  0.00    -0.297 OA
ATOM      2  C   LIG A   1      -7.756   1.848 126.894  0.00  0.00    +0.143 C 
ATOM      3  C   LIG A   1      -6.655   0.814 126.636  0.00  0.00    +0.062 C 
ATOM      4  C   LIG A   1      -7.176  -0.395 125.784  0.00  0.00    +0.128 C 
ATOM      5  O   LIG A   1      -6.718  -0.300 124.416  0.00  0.00    -0.351 OA
ATOM      6  C   LIG A   1      -8.127  -0.237 124.594  0.00  0.00    +0.260 C 
ATOM      7  C   LIG A   1      -8.854  -1.403 124.034  0.00  0.00    +0.340 C 
ATOM      8  O   LIG A   1      -8.417  -2.651 124.372  0.00  0.00    -0.454 OA
ATOM      9  C   LIG A   1      -7.240  -2.873 125.195  0.00  0.00    +0.218 C 
ATOM     10  C   LIG A   1      -7.115  -1.803 126.343  0.00  0.00    +0.042 C 
ATOM     11  C   LIG A   1      -5.800  -1.948 127.123  0.00  0.00    +0.014 C 
ATOM     12  C   LIG A   1      -5.755  -1.041 128.342  0.00  0.00    +0.006 C 
ATOM     13  C   LIG A   1      -6.029   0.455 128.055  0.00  0.00    +0.017 C 
ATOM     14  C   LIG A   1      -6.648   1.224 129.315  0.00  0.00    +0.041 C 
ATOM     15  C   LIG A   1      -5.640   1.279 130.492  0.00  0.00    +0.140 C 
ATOM     16  C   LIG A   1      -6.126   0.642 131.785  0.00  0.00    +0.152 C 
ATOM     17  C   LIG A   1      -7.510   1.119 132.126  0.00  0.00    +0.310 C 
ATOM     18  O   LIG A   1      -8.377   1.167 131.084  0.00  0.00    -0.464 OA
ATOM     19  C   LIG A   1      -7.963   0.586 129.836  0.00  0.00    +0.242 C 
ATOM     20  O   LIG A   1      -7.862   1.382 133.269  0.00  0.00    -0.251 OA
ATOM     21  O   LIG A   1      -5.324   2.657 130.761  0.00  0.00    -0.369 OA
ATOM     22  C   LIG A   1      -5.697   3.473 129.639  0.00  0.00    +0.068 C 
ATOM     23  C   LIG A   1      -6.905   2.733 129.043  0.00  0.00    +0.040 C 
ATOM     24  C   LIG A   1      -7.346   3.102 127.633  0.00  0.00    +0.082 C 
ATOM     25  C   LIG A   1      -4.458   3.632 128.756  0.00  0.00    +0.041 C 
ATOM     26  C   LIG A   1      -6.096   4.852 130.174  0.00  0.00    +0.041 C 
ATOM     27  C   LIG A   1      -8.340  -2.029 127.268  0.00  0.00    +0.018 C 
ATOM     28  O   LIG A   1      -9.825  -1.236 123.307  0.00  0.00    -0.248 OA
ATOM     29  C   LIG A   1      -5.540   1.531 125.804  0.00  0.00    +0.022 C 
ENDROOT
BRANCH   9  30
ATOM     30  C   LIG A   1      -6.018  -3.169 124.359  0.00  0.00    +0.031 A 
ATOM     31  C   LIG A   1      -5.531  -2.470 123.271  0.00  0.00    +0.202 A 
ATOM     32  O   LIG A   1      -4.420  -3.058 122.765  0.00  0.00    -0.471 OA
ATOM     33  C   LIG A   1      -4.191  -4.171 123.503  0.00  0.00    +0.195 A 
ATOM     34  C   LIG A   1      -5.148  -4.297 124.482  0.00  0.00    +0.048 A 
ENDBRANCH   9  30
TORSDOF 1
ENDMDL
MODEL 5
REMARK VINA RESULT:      -8.5      4.583      8.466
REMARK  Name = NuBBE_1160
REMARK  5 active torsions:
REMARK  status: ('A' for Active; 'I' for Inactive)
REMARK    1  A    between atoms: C_3  and  C_38
REMARK    2  A    between atoms: C_10  and  C_12
REMARK    3  A    between atoms: C_17  and  C_36
REMARK    4  A    between atoms: C_30  and  C_34
REMARK    5  A    between atoms: C_30  and  C_35
REMARK                            x       y       z     vdW  Elec       q    Type
REMARK                         _______ _______ _______ _____ _____    ______ ____
ROOT
ATOM      1  O   LIG A   1      -8.200   0.276 128.795  0.00  0.00    -0.297 OA
ATOM      2  C   LIG A   1      -7.369   0.068 127.911  0.00  0.00    +0.143 C 
ATOM      3  C   LIG A   1      -6.309   1.102 127.515  0.00  0.00    +0.062 C 
ATOM      4  C   LIG A   1      -6.267   2.308 128.515  0.00  0.00    +0.128 C 
ATOM      5  O   LIG A   1      -5.124   2.211 129.396  0.00  0.00    -0.351 OA
ATOM      6  C   LIG A   1      -6.393   2.148 130.033  0.00  0.00    +0.260 C 
ATOM      7  C   LIG A   1      -6.684   3.313 130.905  0.00  0.00    +0.340 C 
ATOM      8  O   LIG A   1      -6.508   4.561 130.384  0.00  0.00    -0.454 OA
ATOM      9  C   LIG A   1      -5.989   4.785 129.044  0.00  0.00    +0.218 C 
ATOM     10  C   LIG A   1      -6.525   3.718 128.020  0.00  0.00    +0.042 C 
ATOM     11  C   LIG A   1      -5.867   3.864 126.640  0.00  0.00    +0.014 C 
ATOM     12  C   LIG A   1      -6.510   2.960 125.600  0.00  0.00    +0.006 C 
ATOM     13  C   LIG A   1      -6.579   1.464 125.989  0.00  0.00    +0.017 C 
ATOM     14  C   LIG A   1      -7.795   0.698 125.285  0.00  0.00    +0.041 C 
ATOM     15  C   LIG A   1      -7.614   0.645 123.746  0.00  0.00    +0.140 C 
ATOM     16  C   LIG A   1      -8.737   1.285 122.944  0.00  0.00    +0.152 C 
ATOM     17  C   LIG A   1     -10.077   0.808 123.431  0.00  0.00    +0.310 C 
ATOM     18  O   LIG A   1     -10.217   0.758 124.779  0.00  0.00    -0.464 OA
ATOM     19  C   LIG A   1      -9.177   1.336 125.586  0.00  0.00    +0.242 C 
ATOM     20  O   LIG A   1     -11.006   0.548 122.676  0.00  0.00    -0.251 OA
ATOM     21  O   LIG A   1      -7.502  -0.733 123.344  0.00  0.00    -0.369 OA
ATOM     22  C   LIG A   1      -7.188  -1.551 124.483  0.00  0.00    +0.068 C 
ATOM     23  C   LIG A   1      -7.859  -0.812 125.651  0.00  0.00    +0.040 C 
ATOM     24  C   LIG A   1      -7.441  -1.185 127.067  0.00  0.00    +0.082 C 
ATOM     25  C   LIG A   1      -5.667  -1.711 124.525  0.00  0.00    +0.041 C 
ATOM     26  C   LIG A   1      -7.819  -2.929 124.257  0.00  0.00    +0.041 C 
ATOM     27  C   LIG A   1      -8.058   3.946 127.934  0.00  0.00    +0.018 C 
ATOM     28  O   LIG A   1      -7.086   3.144 132.049  0.00  0.00    -0.248 OA
ATOM     29  C   LIG A   1      -4.920   0.383 127.584  0.00  0.00    +0.022 C 
ENDROOT
BRANCH   9  30
ATOM     30  C   LIG A   1      -4.508   5.080 129.059  0.00  0.00    +0.031 A 
ATOM     31  C   LIG A   1      -3.625   4.990 130.118  0.00  0.00    +0.202 A 
ATOM     32  O   LIG A   1      -2.374   5.361 129.749  0.00  0.00    -0.471 OA
ATOM     33  C   LIG A   1      -2.440   5.730 128.447  0.00  0.00    +0.195 A 
ATOM     34  C   LIG A   1      -3.725   5.593 127.979  0.00  0.00    +0.048 A 
ENDBRANCH   9  30
TORSDOF 1
ENDMDL
MODEL 6
REMARK VINA RESULT:      -8.5      3.637      5.804
REMARK  Name = NuBBE_1160
REMARK  5 active torsions:
REMARK  status: ('A' for Active; 'I' for Inactive)
REMARK    1  A    between atoms: C_3  and  C_38
REMARK    2  A    between atoms: C_10  and  C_12
REMARK    3  A    between atoms: C_17  and  C_36
REMARK    4  A    between atoms: C_30  and  C_34
REMARK    5  A    between atoms: C_30  and  C_35
REMARK                            x       y       z     vdW  Elec       q    Type
REMARK                         _______ _______ _______ _____ _____    ______ ____
ROOT
ATOM      1  O   LIG A   1      -5.172   0.210 131.630  0.00  0.00    -0.297 OA
ATOM      2  C   LIG A   1      -6.327   0.626 131.718  0.00  0.00    +0.143 C 
ATOM      3  C   LIG A   1      -7.337   0.510 130.571  0.00  0.00    +0.062 C 
ATOM      4  C   LIG A   1      -6.801  -0.396 129.410  0.00  0.00    +0.128 C 
ATOM      5  O   LIG A   1      -7.434  -1.697 129.434  0.00  0.00    -0.351 OA
ATOM      6  C   LIG A   1      -6.028  -1.697 129.646  0.00  0.00    +0.260 C 
ATOM      7  C   LIG A   1      -5.258  -2.340 128.553  0.00  0.00    +0.340 C 
ATOM      8  O   LIG A   1      -5.515  -1.947 127.272  0.00  0.00    -0.454 OA
ATOM      9  C   LIG A   1      -6.551  -0.981 126.943  0.00  0.00    +0.218 C 
ATOM     10  C   LIG A   1      -6.644   0.170 128.012  0.00  0.00    +0.042 C 
ATOM     11  C   LIG A   1      -7.829   1.109 127.744  0.00  0.00    +0.014 C 
ATOM     12  C   LIG A   1      -7.817   2.321 128.660  0.00  0.00    +0.006 C 
ATOM     13  C   LIG A   1      -7.740   1.997 130.172  0.00  0.00    +0.017 C 
ATOM     14  C   LIG A   1      -7.054   3.168 131.021  0.00  0.00    +0.041 C 
ATOM     15  C   LIG A   1      -7.908   4.462 130.990  0.00  0.00    +0.140 C 
ATOM     16  C   LIG A   1      -7.200   5.685 130.428  0.00  0.00    +0.152 C 
ATOM     17  C   LIG A   1      -5.843   5.849 131.052  0.00  0.00    +0.310 C 
ATOM     18  O   LIG A   1      -5.122   4.706 131.173  0.00  0.00    -0.464 OA
ATOM     19  C   LIG A   1      -5.625   3.522 130.532  0.00  0.00    +0.242 C 
ATOM     20  O   LIG A   1      -5.381   6.938 131.368  0.00  0.00    -0.251 OA
ATOM     21  O   LIG A   1      -8.331   4.764 132.332  0.00  0.00    -0.369 OA
ATOM     22  C   LIG A   1      -8.189   3.601 133.164  0.00  0.00    +0.068 C 
ATOM     23  C   LIG A   1      -6.993   2.862 132.544  0.00  0.00    +0.040 C 
ATOM     24  C   LIG A   1      -6.772   1.406 132.935  0.00  0.00    +0.082 C 
ATOM     25  C   LIG A   1      -9.538   2.881 133.179  0.00  0.00    +0.041 C 
ATOM     26  C   LIG A   1      -7.874   4.079 134.586  0.00  0.00    +0.041 C 
ATOM     27  C   LIG A   1      -5.297   0.935 127.930  0.00  0.00    +0.018 C 
ATOM     28  O   LIG A   1      -4.407  -3.183 128.809  0.00  0.00    -0.248 OA
ATOM     29  C   LIG A   1      -8.616  -0.177 131.155  0.00  0.00    +0.022 C 
ENDROOT
BRANCH   9  30
ATOM     30  C   LIG A   1      -7.829  -1.657 126.507  0.00  0.00    +0.031 A 
ATOM     31  C   LIG A   1      -8.882  -1.123 125.790  0.00  0.00    +0.202 A 
ATOM     32  O   LIG A   1      -9.869  -2.034 125.610  0.00  0.00    -0.471 OA
ATOM     33  C   LIG A   1      -9.478  -3.168 126.241  0.00  0.00    +0.195 A 
ATOM     34  C   LIG A   1      -8.245  -2.989 126.821  0.00  0.00    +0.048 A 
ENDBRANCH   9  30
TORSDOF 1
ENDMDL
MODEL 7
REMARK VINA RESULT:      -8.5      4.460      6.283
REMARK  Name = NuBBE_1160
REMARK  5 active torsions:
REMARK  status: ('A' for Active; 'I' for Inactive)
REMARK    1  A    between atoms: C_3  and  C_38
REMARK    2  A    between atoms: C_10  and  C_12
REMARK    3  A    between atoms: C_17  and  C_36
REMARK    4  A    between atoms: C_30  and  C_34
REMARK    5  A    between atoms: C_30  and  C_35
REMARK                            x       y       z     vdW  Elec       q    Type
REMARK                         _______ _______ _______ _____ _____    ______ ____
ROOT
ATOM      1  O   LIG A   1      -5.032   2.561 131.103  0.00  0.00    -0.297 OA
ATOM      2  C   LIG A   1      -5.780   1.808 130.481  0.00  0.00    +0.143 C 
ATOM      3  C   LIG A   1      -7.284   2.070 130.337  0.00  0.00    +0.062 C 
ATOM      4  C   LIG A   1      -7.680   3.497 130.853  0.00  0.00    +0.128 C 
ATOM      5  O   LIG A   1      -7.923   4.398 129.747  0.00  0.00    -0.351 OA
ATOM      6  C   LIG A   1      -6.836   4.749 130.594  0.00  0.00    +0.260 C 
ATOM      7  C   LIG A   1      -7.059   5.996 131.367  0.00  0.00    +0.340 C 
ATOM      8  O   LIG A   1      -8.224   6.116 132.066  0.00  0.00    -0.454 OA
ATOM      9  C   LIG A   1      -9.270   5.107 132.024  0.00  0.00    +0.218 C 
ATOM     10  C   LIG A   1      -8.678   3.649 131.984  0.00  0.00    +0.042 C 
ATOM     11  C   LIG A   1      -9.774   2.589 131.794  0.00  0.00    +0.014 C 
ATOM     12  C   LIG A   1      -9.234   1.176 131.936  0.00  0.00    +0.006 C 
ATOM     13  C   LIG A   1      -8.025   0.844 131.029  0.00  0.00    +0.017 C 
ATOM     14  C   LIG A   1      -7.083  -0.295 131.645  0.00  0.00    +0.041 C 
ATOM     15  C   LIG A   1      -7.827  -1.653 131.737  0.00  0.00    +0.140 C 
ATOM     16  C   LIG A   1      -7.923  -2.239 133.138  0.00  0.00    +0.152 C 
ATOM     17  C   LIG A   1      -6.582  -2.215 133.818  0.00  0.00    +0.310 C 
ATOM     18  O   LIG A   1      -5.878  -1.066 133.664  0.00  0.00    -0.464 OA
ATOM     19  C   LIG A   1      -6.543   0.055 133.056  0.00  0.00    +0.242 C 
ATOM     20  O   LIG A   1      -6.174  -3.131 134.520  0.00  0.00    -0.251 OA
ATOM     21  O   LIG A   1      -7.150  -2.605 130.896  0.00  0.00    -0.369 OA
ATOM     22  C   LIG A   1      -6.299  -1.917 129.964  0.00  0.00    +0.068 C 
ATOM     23  C   LIG A   1      -5.878  -0.652 130.729  0.00  0.00    +0.040 C 
ATOM     24  C   LIG A   1      -5.268   0.494 129.934  0.00  0.00    +0.082 C 
ATOM     25  C   LIG A   1      -7.095  -1.731 128.671  0.00  0.00    +0.041 C 
ATOM     26  C   LIG A   1      -5.097  -2.820 129.673  0.00  0.00    +0.041 C 
ATOM     27  C   LIG A   1      -7.940   3.453 133.334  0.00  0.00    +0.018 C 
ATOM     28  O   LIG A   1      -6.205   6.874 131.383  0.00  0.00    -0.248 OA
ATOM     29  C   LIG A   1      -7.614   2.012 128.809  0.00  0.00    +0.022 C 
ENDROOT
BRANCH   9  30
ATOM     30  C   LIG A   1     -10.356   5.465 131.039  0.00  0.00    +0.031 A 
ATOM     31  C   LIG A   1     -11.214   4.620 130.361  0.00  0.00    +0.202 A 
ATOM     32  O   LIG A   1     -12.041   5.312 129.540  0.00  0.00    -0.471 OA
ATOM     33  C   LIG A   1     -11.705   6.620 129.654  0.00  0.00    +0.195 A 
ATOM     34  C   LIG A   1     -10.670   6.769 130.545  0.00  0.00    +0.048 A 
ENDBRANCH   9  30
TORSDOF 1
ENDMDL
MODEL 8
REMARK VINA RESULT:      -8.5      3.841      6.885
REMARK  Name = NuBBE_1160
REMARK  5 active torsions:
REMARK  status: ('A' for Active; 'I' for Inactive)
REMARK    1  A    between atoms: C_3  and  C_38
REMARK    2  A    between atoms: C_10  and  C_12
REMARK    3  A    between atoms: C_17  and  C_36
REMARK    4  A    between atoms: C_30  and  C_34
REMARK    5  A    between atoms: C_30  and  C_35
REMARK                            x       y       z     vdW  Elec       q    Type
REMARK                         _______ _______ _______ _____ _____    ______ ____
ROOT
ATOM      1  O   LIG A   1      -4.520   2.244 128.017  0.00  0.00    -0.297 OA
ATOM      2  C   LIG A   1      -5.541   1.724 127.565  0.00  0.00    +0.143 C 
ATOM      3  C   LIG A   1      -6.940   2.049 128.100  0.00  0.00    +0.062 C 
ATOM      4  C   LIG A   1      -6.920   3.268 129.086  0.00  0.00    +0.128 C 
ATOM      5  O   LIG A   1      -7.432   4.460 128.446  0.00  0.00    -0.351 OA
ATOM      6  C   LIG A   1      -6.072   4.522 128.856  0.00  0.00    +0.260 C 
ATOM      7  C   LIG A   1      -5.821   5.489 129.953  0.00  0.00    +0.340 C 
ATOM      8  O   LIG A   1      -6.617   5.422 131.059  0.00  0.00    -0.454 OA
ATOM      9  C   LIG A   1      -7.730   4.493 131.168  0.00  0.00    +0.218 C 
ATOM     10  C   LIG A   1      -7.398   3.100 130.515  0.00  0.00    +0.042 C 
ATOM     11  C   LIG A   1      -8.619   2.167 130.501  0.00  0.00    +0.014 C 
ATOM     12  C   LIG A   1      -8.260   0.764 130.041  0.00  0.00    +0.006 C 
ATOM     13  C   LIG A   1      -7.531   0.689 128.678  0.00  0.00    +0.017 C 
ATOM     14  C   LIG A   1      -6.591  -0.601 128.549  0.00  0.00    +0.041 C 
ATOM     15  C   LIG A   1      -7.424  -1.909 128.566  0.00  0.00    +0.140 C 
ATOM     16  C   LIG A   1      -7.072  -2.881 129.682  0.00  0.00    +0.152 C 
ATOM     17  C   LIG A   1      -5.585  -3.087 129.759  0.00  0.00    +0.310 C 
ATOM     18  O   LIG A   1      -4.840  -1.959 129.649  0.00  0.00    -0.464 OA
ATOM     19  C   LIG A   1      -5.524  -0.695 129.671  0.00  0.00    +0.242 C 
ATOM     20  O   LIG A   1      -5.074  -4.179 129.975  0.00  0.00    -0.251 OA
ATOM     21  O   LIG A   1      -7.242  -2.584 127.307  0.00  0.00    -0.369 OA
ATOM     22  C   LIG A   1      -6.713  -1.670 126.333  0.00  0.00    +0.068 C 
ATOM     23  C   LIG A   1      -5.871  -0.697 127.174  0.00  0.00    +0.040 C 
ATOM     24  C   LIG A   1      -5.450   0.620 126.536  0.00  0.00    +0.082 C 
ATOM     25  C   LIG A   1      -7.898  -1.093 125.556  0.00  0.00    +0.041 C 
ATOM     26  C   LIG A   1      -5.837  -2.472 125.365  0.00  0.00    +0.041 C 
ATOM     27  C   LIG A   1      -6.246   2.498 131.362  0.00  0.00    +0.018 C 
ATOM     28  O   LIG A   1      -4.912   6.305 129.863  0.00  0.00    -0.248 OA
ATOM     29  C   LIG A   1      -7.818   2.452 126.869  0.00  0.00    +0.022 C 
ENDROOT
BRANCH   9  30
ATOM     30  C   LIG A   1      -9.045   5.149 130.823  0.00  0.00    +0.031 A 
ATOM     31  C   LIG A   1     -10.267   4.551 130.581  0.00  0.00    +0.202 A 
ATOM     32  O   LIG A   1     -11.215   5.471 130.277  0.00  0.00    -0.471 OA
ATOM     33  C   LIG A   1     -10.606   6.682 130.287  0.00  0.00    +0.195 A 
ATOM     34  C   LIG A   1      -9.275   6.543 130.600  0.00  0.00    +0.048 A 
ENDBRANCH   9  30
TORSDOF 1
ENDMDL
MODEL 9
REMARK VINA RESULT:      -8.3      4.020      6.290
REMARK  Name = NuBBE_1160
REMARK  5 active torsions:
REMARK  status: ('A' for Active; 'I' for Inactive)
REMARK    1  A    between atoms: C_3  and  C_38
REMARK    2  A    between atoms: C_10  and  C_12
REMARK    3  A    between atoms: C_17  and  C_36
REMARK    4  A    between atoms: C_30  and  C_34
REMARK    5  A    between atoms: C_30  and  C_35
REMARK                            x       y       z     vdW  Elec       q    Type
REMARK                         _______ _______ _______ _____ _____    ______ ____
ROOT
ATOM      1  O   LIG A   1      -6.897   0.300 129.031  0.00  0.00    -0.297 OA
ATOM      2  C   LIG A   1      -7.327   0.005 130.146  0.00  0.00    +0.143 C 
ATOM      3  C   LIG A   1      -7.765   1.060 131.169  0.00  0.00    +0.062 C 
ATOM      4  C   LIG A   1      -7.827   2.494 130.538  0.00  0.00    +0.128 C 
ATOM      5  O   LIG A   1      -9.196   2.890 130.287  0.00  0.00    -0.351 OA
ATOM      6  C   LIG A   1      -8.372   2.773 129.134  0.00  0.00    +0.260 C 
ATOM      7  C   LIG A   1      -8.109   4.064 128.453  0.00  0.00    +0.340 C 
ATOM      8  O   LIG A   1      -7.667   5.109 129.211  0.00  0.00    -0.454 OA
ATOM      9  C   LIG A   1      -7.513   5.020 130.654  0.00  0.00    +0.218 C 
ATOM     10  C   LIG A   1      -6.971   3.611 131.101  0.00  0.00    +0.042 C 
ATOM     11  C   LIG A   1      -6.944   3.465 132.630  0.00  0.00    +0.014 C 
ATOM     12  C   LIG A   1      -6.254   2.184 133.070  0.00  0.00    +0.006 C 
ATOM     13  C   LIG A   1      -6.812   0.889 132.431  0.00  0.00    +0.017 C 
ATOM     14  C   LIG A   1      -5.717  -0.276 132.339  0.00  0.00    +0.041 C 
ATOM     15  C   LIG A   1      -5.277  -0.749 133.748  0.00  0.00    +0.140 C 
ATOM     16  C   LIG A   1      -3.790  -0.611 134.037  0.00  0.00    +0.152 C 
ATOM     17  C   LIG A   1      -2.974  -1.174 132.906  0.00  0.00    +0.310 C 
ATOM     18  O   LIG A   1      -3.406  -0.846 131.663  0.00  0.00    -0.464 OA
ATOM     19  C   LIG A   1      -4.447   0.139 131.551  0.00  0.00    +0.242 C 
ATOM     20  O   LIG A   1      -1.951  -1.825 133.082  0.00  0.00    -0.251 OA
ATOM     21  O   LIG A   1      -5.638  -2.134 133.900  0.00  0.00    -0.369 OA
ATOM     22  C   LIG A   1      -6.616  -2.497 132.912  0.00  0.00    +0.068 C 
ATOM     23  C   LIG A   1      -6.274  -1.589 131.720  0.00  0.00    +0.040 C 
ATOM     24  C   LIG A   1      -7.315  -1.431 130.619  0.00  0.00    +0.082 C 
ATOM     25  C   LIG A   1      -7.996  -2.335 133.553  0.00  0.00    +0.041 C 
ATOM     26  C   LIG A   1      -6.408  -3.974 132.567  0.00  0.00    +0.041 C 
ATOM     27  C   LIG A   1      -5.543   3.498 130.505  0.00  0.00    +0.018 C 
ATOM     28  O   LIG A   1      -8.270   4.169 127.243  0.00  0.00    -0.248 OA
ATOM     29  C   LIG A   1      -9.213   0.681 131.624  0.00  0.00    +0.022 C 
ENDROOT
BRANCH   9  30
ATOM     30  C   LIG A   1      -8.706   5.590 131.382  0.00  0.00    +0.031 A 
ATOM     31  C   LIG A   1      -8.817   5.928 132.717  0.00  0.00    +0.202 A 
ATOM     32  O   LIG A   1     -10.059   6.389 133.007  0.00  0.00    -0.471 OA
ATOM     33  C   LIG A   1     -10.781   6.325 131.862  0.00  0.00    +0.195 A 
ATOM     34  C   LIG A   1     -10.008   5.828 130.840  0.00  0.00    +0.048 A 
ENDBRANCH   9  30
TORSDOF 1
ENDMDL
