MODEL 1
REMARK VINA RESULT:      -7.1      0.000      0.000
REMARK  Name = NuBBE_80
REMARK  4 active torsions:
REMARK  status: ('A' for Active; 'I' for Inactive)
REMARK    1  A    between atoms: C_2  and  C_8
REMARK    2  A    between atoms: C_9  and  C_10
REMARK    3  A    between atoms: C_10  and  C_11
REMARK    4  A    between atoms: C_11  and  C_12
REMARK                            x       y       z     vdW  Elec       q    Type
REMARK                         _______ _______ _______ _____ _____    ______ ____
ROOT
ATOM      1  C   LIG A   1      -8.107   2.400 124.865  0.00  0.00    +0.032 C 
ENDROOT
BRANCH   1   3
ATOM      2  C   LIG A   1      -8.067   0.054 124.021  0.00  0.00    +0.063 C 
ATOM      3  C   LIG A   1      -8.300   0.917 125.021  0.00  0.00    -0.021 C 
BRANCH   2   5
ATOM      4  O   LIG A   1      -9.429  -1.848 124.350  0.00  0.00    -0.271 OA
ATOM      5  C   LIG A   1      -8.301  -1.403 124.189  0.00  0.00    +0.239 C 
ATOM      6  N   LIG A   1      -7.167  -2.184 124.144  0.00  0.00    -0.298 N 
ATOM      7  C   LIG A   1      -5.799  -1.756 123.898  0.00  0.00    +0.108 C 
ATOM      8  C   LIG A   1      -5.096  -3.016 123.425  0.00  0.00    +0.020 C 
ATOM      9  C   LIG A   1      -5.809  -4.115 124.204  0.00  0.00    +0.020 C 
ATOM     10  C   LIG A   1      -7.250  -3.626 124.284  0.00  0.00    +0.108 C 
ENDBRANCH   2   5
ENDBRANCH   1   3
BRANCH   1  11
ATOM     11  C   LIG A   1      -6.766   2.764 124.212  0.00  0.00    +0.039 C 
BRANCH  11  12
ATOM     12  C   LIG A   1      -6.902   3.234 122.780  0.00  0.00    -0.043 A 
ATOM     13  C   LIG A   1      -8.165   3.259 122.169  0.00  0.00    +0.053 A 
ATOM     14  C   LIG A   1      -8.243   3.682 120.858  0.00  0.00    +0.167 A 
ATOM     15  O   LIG A   1      -9.382   3.769 120.119  0.00  0.00    -0.453 OA
ATOM     16  C   LIG A   1      -8.856   4.263 118.871  0.00  0.00    +0.466 C 
ATOM     17  O   LIG A   1      -7.425   4.451 118.882  0.00  0.00    -0.453 OA
ATOM     18  C   LIG A   1      -7.129   4.069 120.153  0.00  0.00    +0.166 A 
ATOM     19  C   LIG A   1      -5.873   4.059 120.717  0.00  0.00    +0.050 A 
ATOM     20  C   LIG A   1      -5.763   3.641 122.046  0.00  0.00    +0.007 A 
ENDBRANCH  11  12
ENDBRANCH   1  11
TORSDOF 4
ENDMDL
MODEL 2
REMARK VINA RESULT:      -7.1      1.650      1.837
REMARK  Name = NuBBE_80
REMARK  4 active torsions:
REMARK  status: ('A' for Active; 'I' for Inactive)
REMARK    1  A    between atoms: C_2  and  C_8
REMARK    2  A    between atoms: C_9  and  C_10
REMARK    3  A    between atoms: C_10  and  C_11
REMARK    4  A    between atoms: C_11  and  C_12
REMARK                            x       y       z     vdW  Elec       q    Type
REMARK                         _______ _______ _______ _____ _____    ______ ____
ROOT
ATOM      1  C   LIG A   1      -7.256   3.468 124.829  0.00  0.00    +0.032 C 
ENDROOT
BRANCH   1   3
ATOM      2  C   LIG A   1      -7.737   1.026 124.987  0.00  0.00    +0.063 C 
ATOM      3  C   LIG A   1      -7.800   2.252 125.527  0.00  0.00    -0.021 C 
BRANCH   2   5
ATOM      4  O   LIG A   1      -8.572  -0.120 126.876  0.00  0.00    -0.271 OA
ATOM      5  C   LIG A   1      -8.314  -0.153 125.681  0.00  0.00    +0.239 C 
ATOM      6  N   LIG A   1      -8.532  -1.252 124.879  0.00  0.00    -0.298 N 
ATOM      7  C   LIG A   1      -8.316  -1.366 123.446  0.00  0.00    +0.108 C 
ATOM      8  C   LIG A   1      -9.200  -2.528 123.030  0.00  0.00    +0.020 C 
ATOM      9  C   LIG A   1      -9.160  -3.440 124.249  0.00  0.00    +0.020 C 
ATOM     10  C   LIG A   1      -9.101  -2.470 125.424  0.00  0.00    +0.108 C 
ENDBRANCH   2   5
ENDBRANCH   1   3
BRANCH   1  11
ATOM     11  C   LIG A   1      -6.159   3.133 123.809  0.00  0.00    +0.039 C 
BRANCH  11  12
ATOM     12  C   LIG A   1      -6.515   3.522 122.391  0.00  0.00    -0.043 A 
ATOM     13  C   LIG A   1      -7.853   3.470 121.966  0.00  0.00    +0.053 A 
ATOM     14  C   LIG A   1      -8.133   3.821 120.662  0.00  0.00    +0.167 A 
ATOM     15  O   LIG A   1      -9.367   3.829 120.091  0.00  0.00    -0.453 OA
ATOM     16  C   LIG A   1      -9.045   4.276 118.759  0.00  0.00    +0.466 C 
ATOM     17  O   LIG A   1      -7.636   4.517 118.557  0.00  0.00    -0.453 OA
ATOM     18  C   LIG A   1      -7.148   4.211 119.788  0.00  0.00    +0.166 A 
ATOM     19  C   LIG A   1      -5.826   4.277 120.166  0.00  0.00    +0.050 A 
ATOM     20  C   LIG A   1      -5.511   3.932 121.484  0.00  0.00    +0.007 A 
ENDBRANCH  11  12
ENDBRANCH   1  11
TORSDOF 4
ENDMDL
MODEL 3
REMARK VINA RESULT:      -7.0      2.656      7.024
REMARK  Name = NuBBE_80
REMARK  4 active torsions:
REMARK  status: ('A' for Active; 'I' for Inactive)
REMARK    1  A    between atoms: C_2  and  C_8
REMARK    2  A    between atoms: C_9  and  C_10
REMARK    3  A    between atoms: C_10  and  C_11
REMARK    4  A    between atoms: C_11  and  C_12
REMARK                            x       y       z     vdW  Elec       q    Type
REMARK                         _______ _______ _______ _____ _____    ______ ____
ROOT
ATOM      1  C   LIG A   1      -7.187   2.908 124.747  0.00  0.00    +0.032 C 
ENDROOT
BRANCH   1   3
ATOM      2  C   LIG A   1      -6.033   3.397 122.592  0.00  0.00    +0.063 C 
ATOM      3  C   LIG A   1      -6.463   3.815 123.791  0.00  0.00    -0.021 C 
BRANCH   2   5
ATOM      4  O   LIG A   1      -4.178   4.724 121.977  0.00  0.00    -0.271 OA
ATOM      5  C   LIG A   1      -5.287   4.303 121.681  0.00  0.00    +0.239 C 
ATOM      6  N   LIG A   1      -5.936   4.610 120.506  0.00  0.00    -0.298 N 
ATOM      7  C   LIG A   1      -7.221   4.112 120.041  0.00  0.00    +0.108 C 
ATOM      8  C   LIG A   1      -7.177   4.322 118.537  0.00  0.00    +0.020 C 
ATOM      9  C   LIG A   1      -6.343   5.590 118.395  0.00  0.00    +0.020 C 
ATOM     10  C   LIG A   1      -5.319   5.477 119.519  0.00  0.00    +0.108 C 
ENDBRANCH   2   5
ENDBRANCH   1   3
BRANCH   1  11
ATOM     11  C   LIG A   1      -6.283   1.821 125.344  0.00  0.00    +0.039 C 
BRANCH  11  12
ATOM     12  C   LIG A   1      -6.695   0.416 124.960  0.00  0.00    -0.043 A 
ATOM     13  C   LIG A   1      -7.961   0.188 124.396  0.00  0.00    +0.053 A 
ATOM     14  C   LIG A   1      -8.303  -1.108 124.073  0.00  0.00    +0.167 A 
ATOM     15  O   LIG A   1      -9.481  -1.503 123.520  0.00  0.00    -0.453 OA
ATOM     16  C   LIG A   1      -9.263  -2.924 123.407  0.00  0.00    +0.466 C 
ATOM     17  O   LIG A   1      -7.974  -3.350 123.898  0.00  0.00    -0.453 OA
ATOM     18  C   LIG A   1      -7.446  -2.160 124.289  0.00  0.00    +0.166 A 
ATOM     19  C   LIG A   1      -6.196  -1.978 124.839  0.00  0.00    +0.050 A 
ATOM     20  C   LIG A   1      -5.819  -0.674 125.172  0.00  0.00    +0.007 A 
ENDBRANCH  11  12
ENDBRANCH   1  11
TORSDOF 4
ENDMDL
MODEL 4
REMARK VINA RESULT:      -7.0      3.075      4.635
REMARK  Name = NuBBE_80
REMARK  4 active torsions:
REMARK  status: ('A' for Active; 'I' for Inactive)
REMARK    1  A    between atoms: C_2  and  C_8
REMARK    2  A    between atoms: C_9  and  C_10
REMARK    3  A    between atoms: C_10  and  C_11
REMARK    4  A    between atoms: C_11  and  C_12
REMARK                            x       y       z     vdW  Elec       q    Type
REMARK                         _______ _______ _______ _____ _____    ______ ____
ROOT
ATOM      1  C   LIG A   1      -9.452  -3.159 123.512  0.00  0.00    +0.032 C 
ENDROOT
BRANCH   1   3
ATOM      2  C   LIG A   1      -9.210  -2.870 125.977  0.00  0.00    +0.063 C 
ATOM      3  C   LIG A   1      -8.970  -3.588 124.871  0.00  0.00    -0.021 C 
BRANCH   2   5
ATOM      4  O   LIG A   1      -9.292  -4.121 127.979  0.00  0.00    -0.271 OA
ATOM      5  C   LIG A   1      -8.692  -3.297 127.302  0.00  0.00    +0.239 C 
ATOM      6  N   LIG A   1      -7.509  -2.704 127.684  0.00  0.00    -0.298 N 
ATOM      7  C   LIG A   1      -6.697  -1.767 126.925  0.00  0.00    +0.108 C 
ATOM      8  C   LIG A   1      -5.318  -1.881 127.550  0.00  0.00    +0.020 C 
ATOM      9  C   LIG A   1      -5.631  -2.171 129.013  0.00  0.00    +0.020 C 
ATOM     10  C   LIG A   1      -6.884  -3.037 128.950  0.00  0.00    +0.108 C 
ENDBRANCH   2   5
ENDBRANCH   1   3
BRANCH   1  11
ATOM     11  C   LIG A   1      -8.414  -2.330 122.743  0.00  0.00    +0.039 C 
BRANCH  11  12
ATOM     12  C   LIG A   1      -8.549  -0.839 122.963  0.00  0.00    -0.043 A 
ATOM     13  C   LIG A   1      -7.456  -0.101 123.445  0.00  0.00    +0.053 A 
ATOM     14  C   LIG A   1      -7.626   1.253 123.644  0.00  0.00    +0.167 A 
ATOM     15  O   LIG A   1      -6.676   2.113 124.100  0.00  0.00    -0.453 OA
ATOM     16  C   LIG A   1      -7.410   3.354 124.094  0.00  0.00    +0.466 C 
ATOM     17  O   LIG A   1      -8.775   3.214 123.646  0.00  0.00    -0.453 OA
ATOM     18  C   LIG A   1      -8.821   1.880 123.386  0.00  0.00    +0.166 A 
ATOM     19  C   LIG A   1      -9.915   1.192 122.913  0.00  0.00    +0.050 A 
ATOM     20  C   LIG A   1      -9.773  -0.181 122.695  0.00  0.00    +0.007 A 
ENDBRANCH  11  12
ENDBRANCH   1  11
TORSDOF 4
ENDMDL
MODEL 5
REMARK VINA RESULT:      -6.9      7.913      9.660
REMARK  Name = NuBBE_80
REMARK  4 active torsions:
REMARK  status: ('A' for Active; 'I' for Inactive)
REMARK    1  A    between atoms: C_2  and  C_8
REMARK    2  A    between atoms: C_9  and  C_10
REMARK    3  A    between atoms: C_10  and  C_11
REMARK    4  A    between atoms: C_11  and  C_12
REMARK                            x       y       z     vdW  Elec       q    Type
REMARK                         _______ _______ _______ _____ _____    ______ ____
ROOT
ATOM      1  C   LIG A   1      -8.887   4.085 134.101  0.00  0.00    +0.032 C 
ENDROOT
BRANCH   1   3
ATOM      2  C   LIG A   1      -9.168   2.128 132.581  0.00  0.00    +0.063 C 
ATOM      3  C   LIG A   1      -8.377   2.879 133.361  0.00  0.00    -0.021 C 
BRANCH   2   5
ATOM      4  O   LIG A   1      -8.496  -0.134 132.490  0.00  0.00    -0.271 OA
ATOM      5  C   LIG A   1      -8.648   0.920 131.890  0.00  0.00    +0.239 C 
ATOM      6  N   LIG A   1      -8.368   1.090 130.553  0.00  0.00    -0.298 N 
ATOM      7  C   LIG A   1      -8.573   2.281 129.743  0.00  0.00    +0.108 C 
ATOM      8  C   LIG A   1      -8.621   1.756 128.319  0.00  0.00    +0.020 C 
ATOM      9  C   LIG A   1      -7.660   0.574 128.359  0.00  0.00    +0.020 C 
ATOM     10  C   LIG A   1      -7.863  -0.010 129.752  0.00  0.00    +0.108 C 
ENDBRANCH   2   5
ENDBRANCH   1   3
BRANCH   1  11
ATOM     11  C   LIG A   1      -8.315   5.404 133.563  0.00  0.00    +0.039 C 
BRANCH  11  12
ATOM     12  C   LIG A   1      -9.144   6.012 132.453  0.00  0.00    -0.043 A 
ATOM     13  C   LIG A   1     -10.546   6.000 132.539  0.00  0.00    +0.053 A 
ATOM     14  C   LIG A   1     -11.264   6.553 131.500  0.00  0.00    +0.167 A 
ATOM     15  O   LIG A   1     -12.620   6.626 131.424  0.00  0.00    -0.453 OA
ATOM     16  C   LIG A   1     -12.783   7.293 130.156  0.00  0.00    +0.466 C 
ATOM     17  O   LIG A   1     -11.534   7.596 129.499  0.00  0.00    -0.453 OA
ATOM     18  C   LIG A   1     -10.646   7.105 130.404  0.00  0.00    +0.166 A 
ATOM     19  C   LIG A   1      -9.275   7.138 130.283  0.00  0.00    +0.050 A 
ATOM     20  C   LIG A   1      -8.519   6.589 131.323  0.00  0.00    +0.007 A 
ENDBRANCH  11  12
ENDBRANCH   1  11
TORSDOF 4
ENDMDL
MODEL 6
REMARK VINA RESULT:      -6.9      5.699      9.665
REMARK  Name = NuBBE_80
REMARK  4 active torsions:
REMARK  status: ('A' for Active; 'I' for Inactive)
REMARK    1  A    between atoms: C_2  and  C_8
REMARK    2  A    between atoms: C_9  and  C_10
REMARK    3  A    between atoms: C_10  and  C_11
REMARK    4  A    between atoms: C_11  and  C_12
REMARK                            x       y       z     vdW  Elec       q    Type
REMARK                         _______ _______ _______ _____ _____    ______ ____
ROOT
ATOM      1  C   LIG A   1      -8.415  -3.671 128.511  0.00  0.00    +0.032 C 
ENDROOT
BRANCH   1   3
ATOM      2  C   LIG A   1      -8.676  -3.347 126.053  0.00  0.00    +0.063 C 
ATOM      3  C   LIG A   1      -8.455  -2.825 127.268  0.00  0.00    -0.021 C 
BRANCH   2   5
ATOM      4  O   LIG A   1      -9.629  -1.782 124.562  0.00  0.00    -0.271 OA
ATOM      5  C   LIG A   1      -8.674  -2.495 124.836  0.00  0.00    +0.239 C 
ATOM      6  N   LIG A   1      -7.531  -2.573 124.072  0.00  0.00    -0.298 N 
ATOM      7  C   LIG A   1      -6.326  -3.340 124.347  0.00  0.00    +0.108 C 
ATOM      8  C   LIG A   1      -5.253  -2.651 123.522  0.00  0.00    +0.020 C 
ATOM      9  C   LIG A   1      -6.023  -2.165 122.300  0.00  0.00    +0.020 C 
ATOM     10  C   LIG A   1      -7.389  -1.787 122.861  0.00  0.00    +0.108 C 
ENDBRANCH   2   5
ENDBRANCH   1   3
BRANCH   1  11
ATOM     11  C   LIG A   1      -8.060  -2.870 129.771  0.00  0.00    +0.039 C 
BRANCH  11  12
ATOM     12  C   LIG A   1      -6.687  -3.189 130.321  0.00  0.00    -0.043 A 
ATOM     13  C   LIG A   1      -6.530  -3.475 131.687  0.00  0.00    +0.053 A 
ATOM     14  C   LIG A   1      -5.260  -3.749 132.150  0.00  0.00    +0.167 A 
ATOM     15  O   LIG A   1      -4.932  -4.046 133.436  0.00  0.00    -0.453 OA
ATOM     16  C   LIG A   1      -3.508  -4.236 133.314  0.00  0.00    +0.466 C 
ATOM     17  O   LIG A   1      -3.014  -4.042 131.972  0.00  0.00    -0.453 OA
ATOM     18  C   LIG A   1      -4.167  -3.745 131.317  0.00  0.00    +0.166 A 
ATOM     19  C   LIG A   1      -4.280  -3.471 129.972  0.00  0.00    +0.050 A 
ATOM     20  C   LIG A   1      -5.556  -3.195 129.472  0.00  0.00    +0.007 A 
ENDBRANCH  11  12
ENDBRANCH   1  11
TORSDOF 4
ENDMDL
MODEL 7
REMARK VINA RESULT:      -6.8      2.578      7.080
REMARK  Name = NuBBE_80
REMARK  4 active torsions:
REMARK  status: ('A' for Active; 'I' for Inactive)
REMARK    1  A    between atoms: C_2  and  C_8
REMARK    2  A    between atoms: C_9  and  C_10
REMARK    3  A    between atoms: C_10  and  C_11
REMARK    4  A    between atoms: C_11  and  C_12
REMARK                            x       y       z     vdW  Elec       q    Type
REMARK                         _______ _______ _______ _____ _____    ______ ____
ROOT
ATOM      1  C   LIG A   1      -9.530   2.054 123.984  0.00  0.00    +0.032 C 
ENDROOT
BRANCH   1   3
ATOM      2  C   LIG A   1      -7.898   2.897 122.299  0.00  0.00    +0.063 C 
ATOM      3  C   LIG A   1      -8.286   2.795 123.578  0.00  0.00    -0.021 C 
BRANCH   2   5
ATOM      4  O   LIG A   1      -5.682   3.621 122.680  0.00  0.00    -0.271 OA
ATOM      5  C   LIG A   1      -6.645   3.604 121.927  0.00  0.00    +0.239 C 
ATOM      6  N   LIG A   1      -6.665   4.214 120.692  0.00  0.00    -0.298 N 
ATOM      7  C   LIG A   1      -7.735   4.196 119.707  0.00  0.00    +0.108 C 
ATOM      8  C   LIG A   1      -7.038   4.526 118.399  0.00  0.00    +0.020 C 
ATOM      9  C   LIG A   1      -5.925   5.471 118.835  0.00  0.00    +0.020 C 
ATOM     10  C   LIG A   1      -5.505   4.931 120.197  0.00  0.00    +0.108 C 
ENDBRANCH   2   5
ENDBRANCH   1   3
BRANCH   1  11
ATOM     11  C   LIG A   1      -9.617   0.649 123.373  0.00  0.00    +0.039 C 
BRANCH  11  12
ATOM     12  C   LIG A   1      -8.568  -0.305 123.902  0.00  0.00    -0.043 A 
ATOM     13  C   LIG A   1      -7.648  -0.893 123.020  0.00  0.00    +0.053 A 
ATOM     14  C   LIG A   1      -6.716  -1.767 123.542  0.00  0.00    +0.167 A 
ATOM     15  O   LIG A   1      -5.756  -2.418 122.833  0.00  0.00    -0.453 OA
ATOM     16  C   LIG A   1      -5.102  -3.159 123.883  0.00  0.00    +0.466 C 
ATOM     17  O   LIG A   1      -5.682  -2.945 125.187  0.00  0.00    -0.453 OA
ATOM     18  C   LIG A   1      -6.675  -2.067 124.882  0.00  0.00    +0.166 A 
ATOM     19  C   LIG A   1      -7.559  -1.511 125.779  0.00  0.00    +0.050 A 
ATOM     20  C   LIG A   1      -8.511  -0.617 125.281  0.00  0.00    +0.007 A 
ENDBRANCH  11  12
ENDBRANCH   1  11
TORSDOF 4
ENDMDL
MODEL 8
REMARK VINA RESULT:      -6.7      9.300     12.038
REMARK  Name = NuBBE_80
REMARK  4 active torsions:
REMARK  status: ('A' for Active; 'I' for Inactive)
REMARK    1  A    between atoms: C_2  and  C_8
REMARK    2  A    between atoms: C_9  and  C_10
REMARK    3  A    between atoms: C_10  and  C_11
REMARK    4  A    between atoms: C_11  and  C_12
REMARK                            x       y       z     vdW  Elec       q    Type
REMARK                         _______ _______ _______ _____ _____    ______ ____
ROOT
ATOM      1  C   LIG A   1      -8.299   5.125 133.830  0.00  0.00    +0.032 C 
ENDROOT
BRANCH   1   3
ATOM      2  C   LIG A   1      -9.476   6.101 131.861  0.00  0.00    +0.063 C 
ATOM      3  C   LIG A   1      -8.382   6.030 132.632  0.00  0.00    -0.021 C 
BRANCH   2   5
ATOM      4  O   LIG A   1      -8.491   7.366 130.127  0.00  0.00    -0.271 OA
ATOM      5  C   LIG A   1      -9.519   6.976 130.661  0.00  0.00    +0.239 C 
ATOM      6  N   LIG A   1     -10.784   7.292 130.217  0.00  0.00    -0.298 N 
ATOM      7  C   LIG A   1     -12.056   6.829 130.746  0.00  0.00    +0.108 C 
ATOM      8  C   LIG A   1     -13.028   7.024 129.595  0.00  0.00    +0.020 C 
ATOM      9  C   LIG A   1     -12.485   8.264 128.897  0.00  0.00    +0.020 C 
ATOM     10  C   LIG A   1     -10.974   8.131 129.048  0.00  0.00    +0.108 C 
ENDBRANCH   2   5
ENDBRANCH   1   3
BRANCH   1  11
ATOM     11  C   LIG A   1      -9.355   4.011 133.814  0.00  0.00    +0.039 C 
BRANCH  11  12
ATOM     12  C   LIG A   1      -8.865   2.724 133.188  0.00  0.00    -0.043 A 
ATOM     13  C   LIG A   1      -7.553   2.286 133.427  0.00  0.00    +0.053 A 
ATOM     14  C   LIG A   1      -7.141   1.114 132.827  0.00  0.00    +0.167 A 
ATOM     15  O   LIG A   1      -5.911   0.548 132.953  0.00  0.00    -0.453 OA
ATOM     16  C   LIG A   1      -6.069  -0.626 132.132  0.00  0.00    +0.466 C 
ATOM     17  O   LIG A   1      -7.376  -0.736 131.529  0.00  0.00    -0.453 OA
ATOM     18  C   LIG A   1      -7.974   0.383 132.015  0.00  0.00    +0.166 A 
ATOM     19  C   LIG A   1      -9.268   0.779 131.757  0.00  0.00    +0.050 A 
ATOM     20  C   LIG A   1      -9.716   1.960 132.356  0.00  0.00    +0.007 A 
ENDBRANCH  11  12
ENDBRANCH   1  11
TORSDOF 4
ENDMDL
MODEL 9
REMARK VINA RESULT:      -6.7     10.220     11.646
REMARK  Name = NuBBE_80
REMARK  4 active torsions:
REMARK  status: ('A' for Active; 'I' for Inactive)
REMARK    1  A    between atoms: C_2  and  C_8
REMARK    2  A    between atoms: C_9  and  C_10
REMARK    3  A    between atoms: C_10  and  C_11
REMARK    4  A    between atoms: C_11  and  C_12
REMARK                            x       y       z     vdW  Elec       q    Type
REMARK                         _______ _______ _______ _____ _____    ______ ____
ROOT
ATOM      1  C   LIG A   1      -7.786   6.131 132.276  0.00  0.00    +0.032 C 
ENDROOT
BRANCH   1   3
ATOM      2  C   LIG A   1      -9.858   6.558 130.957  0.00  0.00    +0.063 C 
ATOM      3  C   LIG A   1      -9.279   6.155 132.097  0.00  0.00    -0.021 C 
BRANCH   2   5
ATOM      4  O   LIG A   1     -12.068   6.406 131.778  0.00  0.00    -0.271 OA
ATOM      5  C   LIG A   1     -11.336   6.606 130.818  0.00  0.00    +0.239 C 
ATOM      6  N   LIG A   1     -11.793   6.893 129.551  0.00  0.00    -0.298 N 
ATOM      7  C   LIG A   1     -11.005   7.204 128.369  0.00  0.00    +0.108 C 
ATOM      8  C   LIG A   1     -11.973   7.945 127.464  0.00  0.00    +0.020 C 
ATOM      9  C   LIG A   1     -13.310   7.288 127.784  0.00  0.00    +0.020 C 
ATOM     10  C   LIG A   1     -13.215   6.983 129.275  0.00  0.00    +0.108 C 
ENDBRANCH   2   5
ENDBRANCH   1   3
BRANCH   1  11
ATOM     11  C   LIG A   1      -7.039   6.920 131.191  0.00  0.00    +0.039 C 
BRANCH  11  12
ATOM     12  C   LIG A   1      -5.538   6.734 131.237  0.00  0.00    -0.043 A 
ATOM     13  C   LIG A   1      -4.979   5.756 132.074  0.00  0.00    +0.053 A 
ATOM     14  C   LIG A   1      -3.606   5.628 132.095  0.00  0.00    +0.167 A 
ATOM     15  O   LIG A   1      -2.905   4.735 132.844  0.00  0.00    -0.453 OA
ATOM     16  C   LIG A   1      -1.555   5.059 132.454  0.00  0.00    +0.466 C 
ATOM     17  O   LIG A   1      -1.474   6.135 131.495  0.00  0.00    -0.453 OA
ATOM     18  C   LIG A   1      -2.791   6.426 131.328  0.00  0.00    +0.166 A 
ATOM     19  C   LIG A   1      -3.301   7.395 130.494  0.00  0.00    +0.050 A 
ATOM     20  C   LIG A   1      -4.690   7.545 130.446  0.00  0.00    +0.007 A 
ENDBRANCH  11  12
ENDBRANCH   1  11
TORSDOF 4
ENDMDL
