MODEL 1
REMARK VINA RESULT:      -7.4      0.000      0.000
REMARK  Name = NuBBE_1205
REMARK  6 active torsions:
REMARK  status: ('A' for Active; 'I' for Inactive)
REMARK    1  A    between atoms: O_1  and  C_2
REMARK    2  A    between atoms: C_6  and  C_7
REMARK    3  A    between atoms: C_9  and  O_10
REMARK    4  A    between atoms: O_10  and  C_11
REMARK    5  A    between atoms: C_12  and  O_15
REMARK    6  A    between atoms: C_20  and  O_21
REMARK                            x       y       z     vdW  Elec       q    Type
REMARK                         _______ _______ _______ _____ _____    ______ ____
ROOT
ATOM      1  C   LIG A   1     -11.180   8.099 129.070  0.00  0.00    +0.124 A 
ATOM      2  C   LIG A   1      -9.792   8.050 129.190  0.00  0.00    +0.092 A 
ATOM      3  C   LIG A   1      -9.224   7.333 130.245  0.00  0.00    +0.146 A 
ATOM      4  O   LIG A   1      -7.851   7.319 130.324  0.00  0.00    -0.454 OA
ATOM      5  C   LIG A   1      -7.253   6.632 131.375  0.00  0.00    +0.139 A 
ATOM      6  C   LIG A   1      -7.937   5.953 132.307  0.00  0.00    +0.098 A 
ATOM      7  C   LIG A   1      -9.405   5.936 132.256  0.00  0.00    +0.197 A 
ATOM      8  O   LIG A   1     -10.070   5.335 133.091  0.00  0.00    -0.287 OA
ATOM      9  C   LIG A   1     -10.042   6.674 131.161  0.00  0.00    +0.105 A 
ATOM     10  C   LIG A   1     -11.434   6.728 131.028  0.00  0.00    +0.135 A 
ATOM     11  C   LIG A   1     -12.005   7.442 129.980  0.00  0.00    +0.091 A 
ENDROOT
BRANCH   5  12
ATOM     12  C   LIG A   1      -5.771   6.683 131.379  0.00  0.00    +0.021 A 
ATOM     13  C   LIG A   1      -5.069   7.063 130.218  0.00  0.00    +0.060 A 
ATOM     14  C   LIG A   1      -3.672   7.111 130.206  0.00  0.00    +0.162 A 
ATOM     15  C   LIG A   1      -2.975   6.781 131.372  0.00  0.00    +0.159 A 
ATOM     16  C   LIG A   1      -3.639   6.418 132.533  0.00  0.00    +0.050 A 
ATOM     17  C   LIG A   1      -5.033   6.375 132.537  0.00  0.00    +0.015 A 
BRANCH  14  18
ATOM     18  O   LIG A   1      -2.882   7.454 129.139  0.00  0.00    -0.491 OA
ATOM     19  C   LIG A   1      -2.869   6.550 128.041  0.00  0.00    +0.277 C 
ENDBRANCH  14  18
BRANCH  15  20
ATOM     20  O   LIG A   1      -1.608   6.813 131.395  0.00  0.00    -0.503 OA
ATOM     21  H   LIG A   1      -1.368   7.709 131.089  0.00  0.00    +0.292 HD
ENDBRANCH  15  20
ENDBRANCH   5  12
BRANCH   1  22
ATOM     22  O   LIG A   1     -11.782   8.791 128.060  0.00  0.00    -0.506 OA
ATOM     23  H   LIG A   1     -11.709   8.285 127.234  0.00  0.00    +0.292 HD
ENDBRANCH   1  22
BRANCH  10  24
ATOM     24  O   LIG A   1     -12.290   6.101 131.892  0.00  0.00    -0.506 OA
ATOM     25  H   LIG A   1     -11.819   5.957 132.745  0.00  0.00    +0.292 HD
ENDBRANCH  10  24
TORSDOF 5
ENDMDL
MODEL 2
REMARK VINA RESULT:      -7.3      7.451      9.049
REMARK  Name = NuBBE_1205
REMARK  6 active torsions:
REMARK  status: ('A' for Active; 'I' for Inactive)
REMARK    1  A    between atoms: O_1  and  C_2
REMARK    2  A    between atoms: C_6  and  C_7
REMARK    3  A    between atoms: C_9  and  O_10
REMARK    4  A    between atoms: O_10  and  C_11
REMARK    5  A    between atoms: C_12  and  O_15
REMARK    6  A    between atoms: C_20  and  O_21
REMARK                            x       y       z     vdW  Elec       q    Type
REMARK                         _______ _______ _______ _____ _____    ______ ____
ROOT
ATOM      1  C   LIG A   1      -5.928   4.889 119.734  0.00  0.00    +0.124 A 
ATOM      2  C   LIG A   1      -5.407   4.532 120.977  0.00  0.00    +0.092 A 
ATOM      3  C   LIG A   1      -6.218   3.852 121.887  0.00  0.00    +0.146 A 
ATOM      4  O   LIG A   1      -5.661   3.527 123.101  0.00  0.00    -0.454 OA
ATOM      5  C   LIG A   1      -6.448   2.869 124.039  0.00  0.00    +0.139 A 
ATOM      6  C   LIG A   1      -7.719   2.502 123.820  0.00  0.00    +0.098 A 
ATOM      7  C   LIG A   1      -8.351   2.822 122.533  0.00  0.00    +0.197 A 
ATOM      8  O   LIG A   1      -9.513   2.513 122.294  0.00  0.00    -0.287 OA
ATOM      9  C   LIG A   1      -7.533   3.534 121.547  0.00  0.00    +0.105 A 
ATOM     10  C   LIG A   1      -8.043   3.894 120.296  0.00  0.00    +0.135 A 
ATOM     11  C   LIG A   1      -7.240   4.573 119.386  0.00  0.00    +0.091 A 
ENDROOT
BRANCH   5  12
ATOM     12  C   LIG A   1      -5.761   2.570 125.320  0.00  0.00    +0.021 A 
ATOM     13  C   LIG A   1      -4.558   3.226 125.650  0.00  0.00    +0.060 A 
ATOM     14  C   LIG A   1      -3.897   2.952 126.851  0.00  0.00    +0.162 A 
ATOM     15  C   LIG A   1      -4.453   2.017 127.729  0.00  0.00    +0.159 A 
ATOM     16  C   LIG A   1      -5.642   1.368 127.437  0.00  0.00    +0.050 A 
ATOM     17  C   LIG A   1      -6.297   1.649 126.238  0.00  0.00    +0.015 A 
BRANCH  14  18
ATOM     18  O   LIG A   1      -2.721   3.516 127.276  0.00  0.00    -0.491 OA
ATOM     19  C   LIG A   1      -1.532   3.055 126.647  0.00  0.00    +0.277 C 
ENDBRANCH  14  18
BRANCH  15  20
ATOM     20  O   LIG A   1      -3.831   1.722 128.912  0.00  0.00    -0.503 OA
ATOM     21  H   LIG A   1      -3.214   0.995 128.700  0.00  0.00    +0.292 HD
ENDBRANCH  15  20
ENDBRANCH   5  12
BRANCH   1  22
ATOM     22  O   LIG A   1      -5.177   5.559 118.814  0.00  0.00    -0.506 OA
ATOM     23  H   LIG A   1      -5.736   6.200 118.345  0.00  0.00    +0.292 HD
ENDBRANCH   1  22
BRANCH  10  24
ATOM     24  O   LIG A   1      -9.323   3.609 119.903  0.00  0.00    -0.506 OA
ATOM     25  H   LIG A   1      -9.932   4.238 120.351  0.00  0.00    +0.292 HD
ENDBRANCH  10  24
TORSDOF 5
ENDMDL
MODEL 3
REMARK VINA RESULT:      -7.2      2.109      3.507
REMARK  Name = NuBBE_1205
REMARK  6 active torsions:
REMARK  status: ('A' for Active; 'I' for Inactive)
REMARK    1  A    between atoms: O_1  and  C_2
REMARK    2  A    between atoms: C_6  and  C_7
REMARK    3  A    between atoms: C_9  and  O_10
REMARK    4  A    between atoms: O_10  and  C_11
REMARK    5  A    between atoms: C_12  and  O_15
REMARK    6  A    between atoms: C_20  and  O_21
REMARK                            x       y       z     vdW  Elec       q    Type
REMARK                         _______ _______ _______ _____ _____    ______ ____
ROOT
ATOM      1  C   LIG A   1     -11.292   7.402 126.813  0.00  0.00    +0.124 A 
ATOM      2  C   LIG A   1     -10.125   7.213 127.551  0.00  0.00    +0.092 A 
ATOM      3  C   LIG A   1     -10.218   6.962 128.922  0.00  0.00    +0.146 A 
ATOM      4  O   LIG A   1      -9.040   6.787 129.608  0.00  0.00    -0.454 OA
ATOM      5  C   LIG A   1      -9.096   6.557 130.978  0.00  0.00    +0.139 A 
ATOM      6  C   LIG A   1     -10.240   6.465 131.672  0.00  0.00    +0.098 A 
ATOM      7  C   LIG A   1     -11.522   6.638 130.977  0.00  0.00    +0.197 A 
ATOM      8  O   LIG A   1     -12.590   6.570 131.574  0.00  0.00    -0.287 OA
ATOM      9  C   LIG A   1     -11.469   6.900 129.536  0.00  0.00    +0.105 A 
ATOM     10  C   LIG A   1     -12.632   7.088 128.783  0.00  0.00    +0.135 A 
ATOM     11  C   LIG A   1     -12.545   7.340 127.417  0.00  0.00    +0.091 A 
ENDROOT
BRANCH   5  12
ATOM     12  C   LIG A   1      -7.774   6.392 131.630  0.00  0.00    +0.021 A 
ATOM     13  C   LIG A   1      -7.673   5.739 132.875  0.00  0.00    +0.060 A 
ATOM     14  C   LIG A   1      -6.435   5.579 133.504  0.00  0.00    +0.162 A 
ATOM     15  C   LIG A   1      -5.289   6.074 132.874  0.00  0.00    +0.159 A 
ATOM     16  C   LIG A   1      -5.357   6.707 131.643  0.00  0.00    +0.050 A 
ATOM     17  C   LIG A   1      -6.595   6.860 131.021  0.00  0.00    +0.015 A 
BRANCH  14  18
ATOM     18  O   LIG A   1      -6.213   4.973 134.714  0.00  0.00    -0.491 OA
ATOM     19  C   LIG A   1      -6.689   5.659 135.865  0.00  0.00    +0.277 C 
ENDBRANCH  14  18
BRANCH  15  20
ATOM     20  O   LIG A   1      -4.061   5.939 133.463  0.00  0.00    -0.503 OA
ATOM     21  H   LIG A   1      -3.987   6.697 134.074  0.00  0.00    +0.292 HD
ENDBRANCH  15  20
ENDBRANCH   5  12
BRANCH   1  22
ATOM     22  O   LIG A   1     -11.251   7.655 125.473  0.00  0.00    -0.506 OA
ATOM     23  H   LIG A   1     -12.152   7.820 125.148  0.00  0.00    +0.292 HD
ENDBRANCH   1  22
BRANCH  10  24
ATOM     24  O   LIG A   1     -13.887   7.038 129.326  0.00  0.00    -0.506 OA
ATOM     25  H   LIG A   1     -14.544   7.141 128.599  0.00  0.00    +0.292 HD
ENDBRANCH  10  24
TORSDOF 5
ENDMDL
MODEL 4
REMARK VINA RESULT:      -7.0      4.323      4.859
REMARK  Name = NuBBE_1205
REMARK  6 active torsions:
REMARK  status: ('A' for Active; 'I' for Inactive)
REMARK    1  A    between atoms: O_1  and  C_2
REMARK    2  A    between atoms: C_6  and  C_7
REMARK    3  A    between atoms: C_9  and  O_10
REMARK    4  A    between atoms: O_10  and  C_11
REMARK    5  A    between atoms: C_12  and  O_15
REMARK    6  A    between atoms: C_20  and  O_21
REMARK                            x       y       z     vdW  Elec       q    Type
REMARK                         _______ _______ _______ _____ _____    ______ ____
ROOT
ATOM      1  C   LIG A   1     -10.990   7.753 127.190  0.00  0.00    +0.124 A 
ATOM      2  C   LIG A   1     -10.297   6.818 127.956  0.00  0.00    +0.092 A 
ATOM      3  C   LIG A   1     -10.672   6.610 129.284  0.00  0.00    +0.146 A 
ATOM      4  O   LIG A   1      -9.955   5.682 130.001  0.00  0.00    -0.454 OA
ATOM      5  C   LIG A   1     -10.289   5.466 131.333  0.00  0.00    +0.139 A 
ATOM      6  C   LIG A   1     -11.295   6.093 131.960  0.00  0.00    +0.098 A 
ATOM      7  C   LIG A   1     -12.092   7.088 131.230  0.00  0.00    +0.197 A 
ATOM      8  O   LIG A   1     -13.015   7.690 131.767  0.00  0.00    -0.287 OA
ATOM      9  C   LIG A   1     -11.732   7.333 129.830  0.00  0.00    +0.105 A 
ATOM     10  C   LIG A   1     -12.423   8.267 129.051  0.00  0.00    +0.135 A 
ATOM     11  C   LIG A   1     -12.052   8.478 127.727  0.00  0.00    +0.091 A 
ENDROOT
BRANCH   5  12
ATOM     12  C   LIG A   1      -9.452   4.454 132.022  0.00  0.00    +0.021 A 
ATOM     13  C   LIG A   1      -9.040   3.291 131.342  0.00  0.00    +0.060 A 
ATOM     14  C   LIG A   1      -8.254   2.326 131.979  0.00  0.00    +0.162 A 
ATOM     15  C   LIG A   1      -7.877   2.534 133.309  0.00  0.00    +0.159 A 
ATOM     16  C   LIG A   1      -8.256   3.675 133.999  0.00  0.00    +0.050 A 
ATOM     17  C   LIG A   1      -9.036   4.634 133.354  0.00  0.00    +0.015 A 
BRANCH  14  18
ATOM     18  O   LIG A   1      -7.802   1.155 131.427  0.00  0.00    -0.491 OA
ATOM     19  C   LIG A   1      -8.755   0.108 131.286  0.00  0.00    +0.277 C 
ENDBRANCH  14  18
BRANCH  15  20
ATOM     20  O   LIG A   1      -7.113   1.608 133.966  0.00  0.00    -0.503 OA
ATOM     21  H   LIG A   1      -6.535   2.127 134.557  0.00  0.00    +0.292 HD
ENDBRANCH  15  20
ENDBRANCH   5  12
BRANCH   1  22
ATOM     22  O   LIG A   1     -10.657   7.994 125.890  0.00  0.00    -0.506 OA
ATOM     23  H   LIG A   1      -9.713   7.809 125.759  0.00  0.00    +0.292 HD
ENDBRANCH   1  22
BRANCH  10  24
ATOM     24  O   LIG A   1     -13.472   9.006 129.527  0.00  0.00    -0.506 OA
ATOM     25  H   LIG A   1     -13.849   9.526 128.781  0.00  0.00    +0.292 HD
ENDBRANCH  10  24
TORSDOF 5
ENDMDL
MODEL 5
REMARK VINA RESULT:      -6.9      9.467      9.855
REMARK  Name = NuBBE_1205
REMARK  6 active torsions:
REMARK  status: ('A' for Active; 'I' for Inactive)
REMARK    1  A    between atoms: O_1  and  C_2
REMARK    2  A    between atoms: C_6  and  C_7
REMARK    3  A    between atoms: C_9  and  O_10
REMARK    4  A    between atoms: O_10  and  C_11
REMARK    5  A    between atoms: C_12  and  O_15
REMARK    6  A    between atoms: C_20  and  O_21
REMARK                            x       y       z     vdW  Elec       q    Type
REMARK                         _______ _______ _______ _____ _____    ______ ____
ROOT
ATOM      1  C   LIG A   1      -8.988   2.341 124.736  0.00  0.00    +0.124 A 
ATOM      2  C   LIG A   1      -8.432   1.661 125.818  0.00  0.00    +0.092 A 
ATOM      3  C   LIG A   1      -8.456   0.265 125.834  0.00  0.00    +0.146 A 
ATOM      4  O   LIG A   1      -7.900  -0.359 126.925  0.00  0.00    -0.454 OA
ATOM      5  C   LIG A   1      -7.927  -1.748 126.982  0.00  0.00    +0.139 A 
ATOM      6  C   LIG A   1      -8.442  -2.524 126.016  0.00  0.00    +0.098 A 
ATOM      7  C   LIG A   1      -9.040  -1.898 124.830  0.00  0.00    +0.197 A 
ATOM      8  O   LIG A   1      -9.528  -2.569 123.928  0.00  0.00    -0.287 OA
ATOM      9  C   LIG A   1      -9.031  -0.433 124.773  0.00  0.00    +0.105 A 
ATOM     10  C   LIG A   1      -9.584   0.260 123.691  0.00  0.00    +0.135 A 
ATOM     11  C   LIG A   1      -9.563   1.651 123.672  0.00  0.00    +0.091 A 
ENDROOT
BRANCH   5  12
ATOM     12  C   LIG A   1      -7.312  -2.327 128.201  0.00  0.00    +0.021 A 
ATOM     13  C   LIG A   1      -5.916  -2.275 128.385  0.00  0.00    +0.060 A 
ATOM     14  C   LIG A   1      -5.320  -2.821 129.526  0.00  0.00    +0.162 A 
ATOM     15  C   LIG A   1      -6.136  -3.417 130.493  0.00  0.00    +0.159 A 
ATOM     16  C   LIG A   1      -7.513  -3.469 130.346  0.00  0.00    +0.050 A 
ATOM     17  C   LIG A   1      -8.099  -2.920 129.205  0.00  0.00    +0.015 A 
BRANCH  14  18
ATOM     18  O   LIG A   1      -3.979  -2.840 129.810  0.00  0.00    -0.491 OA
ATOM     19  C   LIG A   1      -3.175  -3.712 129.024  0.00  0.00    +0.277 C 
ENDBRANCH  14  18
BRANCH  15  20
ATOM     20  O   LIG A   1      -5.587  -3.965 131.620  0.00  0.00    -0.503 OA
ATOM     21  H   LIG A   1      -6.168  -3.680 132.351  0.00  0.00    +0.292 HD
ENDBRANCH  15  20
ENDBRANCH   5  12
BRANCH   1  22
ATOM     22  O   LIG A   1      -8.993   3.703 124.679  0.00  0.00    -0.506 OA
ATOM     23  H   LIG A   1      -9.898   4.017 124.519  0.00  0.00    +0.292 HD
ENDBRANCH   1  22
BRANCH  10  24
ATOM     24  O   LIG A   1     -10.160  -0.368 122.620  0.00  0.00    -0.506 OA
ATOM     25  H   LIG A   1     -11.021  -0.748 122.910  0.00  0.00    +0.292 HD
ENDBRANCH  10  24
TORSDOF 5
ENDMDL
MODEL 6
REMARK VINA RESULT:      -6.9      9.352     10.622
REMARK  Name = NuBBE_1205
REMARK  6 active torsions:
REMARK  status: ('A' for Active; 'I' for Inactive)
REMARK    1  A    between atoms: O_1  and  C_2
REMARK    2  A    between atoms: C_6  and  C_7
REMARK    3  A    between atoms: C_9  and  O_10
REMARK    4  A    between atoms: O_10  and  C_11
REMARK    5  A    between atoms: C_12  and  O_15
REMARK    6  A    between atoms: C_20  and  O_21
REMARK                            x       y       z     vdW  Elec       q    Type
REMARK                         _______ _______ _______ _____ _____    ______ ____
ROOT
ATOM      1  C   LIG A   1      -9.311  -3.105 124.071  0.00  0.00    +0.124 A 
ATOM      2  C   LIG A   1      -9.321  -3.045 125.464  0.00  0.00    +0.092 A 
ATOM      3  C   LIG A   1      -8.252  -2.442 126.129  0.00  0.00    +0.146 A 
ATOM      4  O   LIG A   1      -8.305  -2.412 127.502  0.00  0.00    -0.454 OA
ATOM      5  C   LIG A   1      -7.246  -1.839 128.196  0.00  0.00    +0.139 A 
ATOM      6  C   LIG A   1      -6.180  -1.282 127.603  0.00  0.00    +0.098 A 
ATOM      7  C   LIG A   1      -6.086  -1.285 126.137  0.00  0.00    +0.197 A 
ATOM      8  O   LIG A   1      -5.126  -0.795 125.554  0.00  0.00    -0.287 OA
ATOM      9  C   LIG A   1      -7.191  -1.906 125.400  0.00  0.00    +0.105 A 
ATOM     10  C   LIG A   1      -7.193  -1.969 124.003  0.00  0.00    +0.135 A 
ATOM     11  C   LIG A   1      -8.256  -2.570 123.336  0.00  0.00    +0.091 A 
ENDROOT
BRANCH   5  12
ATOM     12  C   LIG A   1      -7.391  -1.863 129.672  0.00  0.00    +0.021 A 
ATOM     13  C   LIG A   1      -7.902  -0.740 130.354  0.00  0.00    +0.060 A 
ATOM     14  C   LIG A   1      -8.041  -0.746 131.746  0.00  0.00    +0.162 A 
ATOM     15  C   LIG A   1      -7.668  -1.892 132.456  0.00  0.00    +0.159 A 
ATOM     16  C   LIG A   1      -7.177  -3.015 131.810  0.00  0.00    +0.050 A 
ATOM     17  C   LIG A   1      -7.045  -3.002 130.422  0.00  0.00    +0.015 A 
BRANCH  14  18
ATOM     18  O   LIG A   1      -8.513   0.283 132.517  0.00  0.00    -0.491 OA
ATOM     19  C   LIG A   1      -9.460   1.153 131.908  0.00  0.00    +0.277 C 
ENDBRANCH  14  18
BRANCH  15  20
ATOM     20  O   LIG A   1      -7.786  -1.931 133.818  0.00  0.00    -0.503 OA
ATOM     21  H   LIG A   1      -8.577  -2.477 133.990  0.00  0.00    +0.292 HD
ENDBRANCH  15  20
ENDBRANCH   5  12
BRANCH   1  22
ATOM     22  O   LIG A   1     -10.330  -3.688 123.377  0.00  0.00    -0.506 OA
ATOM     23  H   LIG A   1     -10.002  -4.488 122.934  0.00  0.00    +0.292 HD
ENDBRANCH   1  22
BRANCH  10  24
ATOM     24  O   LIG A   1      -6.183  -1.461 123.232  0.00  0.00    -0.506 OA
ATOM     25  H   LIG A   1      -6.228  -1.883 122.344  0.00  0.00    +0.292 HD
ENDBRANCH  10  24
TORSDOF 5
ENDMDL
MODEL 7
REMARK VINA RESULT:      -6.8      1.366      6.944
REMARK  Name = NuBBE_1205
REMARK  6 active torsions:
REMARK  status: ('A' for Active; 'I' for Inactive)
REMARK    1  A    between atoms: O_1  and  C_2
REMARK    2  A    between atoms: C_6  and  C_7
REMARK    3  A    between atoms: C_9  and  O_10
REMARK    4  A    between atoms: O_10  and  C_11
REMARK    5  A    between atoms: C_12  and  O_15
REMARK    6  A    between atoms: C_20  and  O_21
REMARK                            x       y       z     vdW  Elec       q    Type
REMARK                         _______ _______ _______ _____ _____    ______ ____
ROOT
ATOM      1  C   LIG A   1      -2.666   6.649 129.178  0.00  0.00    +0.124 A 
ATOM      2  C   LIG A   1      -4.056   6.711 129.263  0.00  0.00    +0.092 A 
ATOM      3  C   LIG A   1      -4.675   6.493 130.495  0.00  0.00    +0.146 A 
ATOM      4  O   LIG A   1      -6.048   6.560 130.527  0.00  0.00    -0.454 OA
ATOM      5  C   LIG A   1      -6.697   6.326 131.734  0.00  0.00    +0.139 A 
ATOM      6  C   LIG A   1      -6.060   6.065 132.885  0.00  0.00    +0.098 A 
ATOM      7  C   LIG A   1      -4.593   5.992 132.898  0.00  0.00    +0.197 A 
ATOM      8  O   LIG A   1      -3.971   5.748 133.925  0.00  0.00    -0.287 OA
ATOM      9  C   LIG A   1      -3.904   6.219 131.624  0.00  0.00    +0.105 A 
ATOM     10  C   LIG A   1      -2.510   6.162 131.527  0.00  0.00    +0.135 A 
ATOM     11  C   LIG A   1      -1.888   6.377 130.301  0.00  0.00    +0.091 A 
ENDROOT
BRANCH   5  12
ATOM     12  C   LIG A   1      -8.176   6.411 131.665  0.00  0.00    +0.021 A 
ATOM     13  C   LIG A   1      -8.802   7.016 130.557  0.00  0.00    +0.060 A 
ATOM     14  C   LIG A   1     -10.195   7.108 130.479  0.00  0.00    +0.162 A 
ATOM     15  C   LIG A   1     -10.965   6.581 131.521  0.00  0.00    +0.159 A 
ATOM     16  C   LIG A   1     -10.377   5.967 132.616  0.00  0.00    +0.050 A 
ATOM     17  C   LIG A   1      -8.987   5.878 132.684  0.00  0.00    +0.015 A 
BRANCH  14  18
ATOM     18  O   LIG A   1     -10.915   7.680 129.462  0.00  0.00    -0.491 OA
ATOM     19  C   LIG A   1     -10.487   7.386 128.138  0.00  0.00    +0.277 C 
ENDBRANCH  14  18
BRANCH  15  20
ATOM     20  O   LIG A   1     -12.330   6.657 131.481  0.00  0.00    -0.503 OA
ATOM     21  H   LIG A   1     -12.543   6.947 130.573  0.00  0.00    +0.292 HD
ENDBRANCH  15  20
ENDBRANCH   5  12
BRANCH   1  22
ATOM     22  O   LIG A   1      -2.017   6.850 127.995  0.00  0.00    -0.506 OA
ATOM     23  H   LIG A   1      -2.343   6.215 127.336  0.00  0.00    +0.292 HD
ENDBRANCH   1  22
BRANCH  10  24
ATOM     24  O   LIG A   1      -1.698   5.899 132.597  0.00  0.00    -0.506 OA
ATOM     25  H   LIG A   1      -1.461   4.944 132.579  0.00  0.00    +0.292 HD
ENDBRANCH  10  24
TORSDOF 5
ENDMDL
MODEL 8
REMARK VINA RESULT:      -6.6     10.248     11.243
REMARK  Name = NuBBE_1205
REMARK  6 active torsions:
REMARK  status: ('A' for Active; 'I' for Inactive)
REMARK    1  A    between atoms: O_1  and  C_2
REMARK    2  A    between atoms: C_6  and  C_7
REMARK    3  A    between atoms: C_9  and  O_10
REMARK    4  A    between atoms: O_10  and  C_11
REMARK    5  A    between atoms: C_12  and  O_15
REMARK    6  A    between atoms: C_20  and  O_21
REMARK                            x       y       z     vdW  Elec       q    Type
REMARK                         _______ _______ _______ _____ _____    ______ ____
ROOT
ATOM      1  C   LIG A   1      -9.271  -3.145 123.961  0.00  0.00    +0.124 A 
ATOM      2  C   LIG A   1      -9.156  -3.291 125.343  0.00  0.00    +0.092 A 
ATOM      3  C   LIG A   1      -8.044  -2.756 125.995  0.00  0.00    +0.146 A 
ATOM      4  O   LIG A   1      -7.973  -2.930 127.357  0.00  0.00    -0.454 OA
ATOM      5  C   LIG A   1      -6.868  -2.429 128.035  0.00  0.00    +0.139 A 
ATOM      6  C   LIG A   1      -5.872  -1.754 127.442  0.00  0.00    +0.098 A 
ATOM      7  C   LIG A   1      -5.912  -1.538 125.990  0.00  0.00    +0.197 A 
ATOM      8  O   LIG A   1      -5.020  -0.935 125.406  0.00  0.00    -0.287 OA
ATOM      9  C   LIG A   1      -7.065  -2.082 125.266  0.00  0.00    +0.105 A 
ATOM     10  C   LIG A   1      -7.193  -1.939 123.881  0.00  0.00    +0.135 A 
ATOM     11  C   LIG A   1      -8.299  -2.472 123.226  0.00  0.00    +0.091 A 
ENDROOT
BRANCH   5  12
ATOM     12  C   LIG A   1      -6.878  -2.675 129.498  0.00  0.00    +0.021 A 
ATOM     13  C   LIG A   1      -6.014  -3.635 130.062  0.00  0.00    +0.060 A 
ATOM     14  C   LIG A   1      -6.015  -3.881 131.439  0.00  0.00    +0.162 A 
ATOM     15  C   LIG A   1      -6.886  -3.153 132.254  0.00  0.00    +0.159 A 
ATOM     16  C   LIG A   1      -7.736  -2.192 131.728  0.00  0.00    +0.050 A 
ATOM     17  C   LIG A   1      -7.727  -1.951 130.355  0.00  0.00    +0.015 A 
BRANCH  14  18
ATOM     18  O   LIG A   1      -5.232  -4.793 132.099  0.00  0.00    -0.491 OA
ATOM     19  C   LIG A   1      -3.899  -4.392 132.393  0.00  0.00    +0.277 C 
ENDBRANCH  14  18
BRANCH  15  20
ATOM     20  O   LIG A   1      -6.917  -3.371 133.605  0.00  0.00    -0.503 OA
ATOM     21  H   LIG A   1      -5.984  -3.339 133.889  0.00  0.00    +0.292 HD
ENDBRANCH  15  20
ENDBRANCH   5  12
BRANCH   1  22
ATOM     22  O   LIG A   1     -10.336  -3.655 123.279  0.00  0.00    -0.506 OA
ATOM     23  H   LIG A   1     -10.450  -4.592 123.512  0.00  0.00    +0.292 HD
ENDBRANCH   1  22
BRANCH  10  24
ATOM     24  O   LIG A   1      -6.269  -1.287 123.110  0.00  0.00    -0.506 OA
ATOM     25  H   LIG A   1      -5.824  -1.950 122.534  0.00  0.00    +0.292 HD
ENDBRANCH  10  24
TORSDOF 5
ENDMDL
MODEL 9
REMARK VINA RESULT:      -6.6     10.286     11.147
REMARK  Name = NuBBE_1205
REMARK  6 active torsions:
REMARK  status: ('A' for Active; 'I' for Inactive)
REMARK    1  A    between atoms: O_1  and  C_2
REMARK    2  A    between atoms: C_6  and  C_7
REMARK    3  A    between atoms: C_9  and  O_10
REMARK    4  A    between atoms: O_10  and  C_11
REMARK    5  A    between atoms: C_12  and  O_15
REMARK    6  A    between atoms: C_20  and  O_21
REMARK                            x       y       z     vdW  Elec       q    Type
REMARK                         _______ _______ _______ _____ _____    ______ ____
ROOT
ATOM      1  C   LIG A   1      -6.523  -2.103 122.980  0.00  0.00    +0.124 A 
ATOM      2  C   LIG A   1      -6.003  -2.183 124.271  0.00  0.00    +0.092 A 
ATOM      3  C   LIG A   1      -6.862  -2.465 125.335  0.00  0.00    +0.146 A 
ATOM      4  O   LIG A   1      -6.303  -2.528 126.590  0.00  0.00    -0.454 OA
ATOM      5  C   LIG A   1      -7.133  -2.784 127.675  0.00  0.00    +0.139 A 
ATOM      6  C   LIG A   1      -8.452  -3.005 127.569  0.00  0.00    +0.098 A 
ATOM      7  C   LIG A   1      -9.088  -2.955 126.247  0.00  0.00    +0.197 A 
ATOM      8  O   LIG A   1     -10.291  -3.142 126.105  0.00  0.00    -0.287 OA
ATOM      9  C   LIG A   1      -8.221  -2.665 125.101  0.00  0.00    +0.105 A 
ATOM     10  C   LIG A   1      -8.730  -2.586 123.800  0.00  0.00    +0.135 A 
ATOM     11  C   LIG A   1      -7.879  -2.304 122.736  0.00  0.00    +0.091 A 
ENDROOT
BRANCH   5  12
ATOM     12  C   LIG A   1      -6.440  -2.823 128.986  0.00  0.00    +0.021 A 
ATOM     13  C   LIG A   1      -7.180  -2.970 130.176  0.00  0.00    +0.060 A 
ATOM     14  C   LIG A   1      -6.541  -3.004 131.420  0.00  0.00    +0.162 A 
ATOM     15  C   LIG A   1      -5.148  -2.895 131.466  0.00  0.00    +0.159 A 
ATOM     16  C   LIG A   1      -4.394  -2.765 130.311  0.00  0.00    +0.050 A 
ATOM     17  C   LIG A   1      -5.039  -2.735 129.074  0.00  0.00    +0.015 A 
BRANCH  14  18
ATOM     18  O   LIG A   1      -7.152  -3.132 132.641  0.00  0.00    -0.491 OA
ATOM     19  C   LIG A   1      -7.840  -1.988 133.131  0.00  0.00    +0.277 C 
ENDBRANCH  14  18
BRANCH  15  20
ATOM     20  O   LIG A   1      -4.491  -2.920 132.666  0.00  0.00    -0.503 OA
ATOM     21  H   LIG A   1      -4.812  -2.135 133.149  0.00  0.00    +0.292 HD
ENDBRANCH  15  20
ENDBRANCH   5  12
BRANCH   1  22
ATOM     22  O   LIG A   1      -5.725  -1.826 121.909  0.00  0.00    -0.506 OA
ATOM     23  H   LIG A   1      -6.250  -1.383 121.221  0.00  0.00    +0.292 HD
ENDBRANCH   1  22
BRANCH  10  24
ATOM     24  O   LIG A   1     -10.053  -2.774 123.505  0.00  0.00    -0.506 OA
ATOM     25  H   LIG A   1     -10.239  -3.741 123.518  0.00  0.00    +0.292 HD
ENDBRANCH  10  24
TORSDOF 5
ENDMDL
