MODEL 1
REMARK VINA RESULT:      -5.7      0.000      0.000
REMARK  Name = NuBBE_1198
REMARK  8 active torsions:
REMARK  status: ('A' for Active; 'I' for Inactive)
REMARK    1  A    between atoms: C_2  and  O_3
REMARK    2  A    between atoms: C_2  and  C_4
REMARK    3  A    between atoms: C_5  and  O_6
REMARK    4  A    between atoms: O_6  and  C_7
REMARK    5  A    between atoms: C_9  and  O_10
REMARK    6  A    between atoms: O_10  and  C_11
REMARK    7  A    between atoms: C_13  and  O_14
REMARK    8  A    between atoms: O_14  and  C_15
REMARK                            x       y       z     vdW  Elec       q    Type
REMARK                         _______ _______ _______ _____ _____    ______ ____
ROOT
ATOM      1  C   LIG A   1     -11.331   7.193 128.115  0.00  0.00    +0.142 A 
ATOM      2  C   LIG A   1     -10.300   6.439 128.728  0.00  0.00    +0.141 A 
ATOM      3  C   LIG A   1     -10.297   6.272 130.121  0.00  0.00    +0.092 A 
ATOM      4  C   LIG A   1     -11.269   6.873 130.915  0.00  0.00    +0.127 A 
ATOM      5  C   LIG A   1     -12.271   7.624 130.313  0.00  0.00    +0.092 A 
ATOM      6  C   LIG A   1     -12.328   7.777 128.924  0.00  0.00    +0.141 A 
ENDROOT
BRANCH   1   8
ATOM      7  O   LIG A   1     -10.713   8.049 125.958  0.00  0.00    -0.245 OA
ATOM      8  C   LIG A   1     -11.430   7.337 126.625  0.00  0.00    +0.344 C 
BRANCH   8   9
ATOM      9  O   LIG A   1     -12.394   6.566 126.059  0.00  0.00    -0.477 OA
ATOM     10  H   LIG A   1     -13.049   6.238 126.707  0.00  0.00    +0.295 HD
ENDBRANCH   8   9
ENDBRANCH   1   8
BRANCH   2  11
ATOM     11  O   LIG A   1      -9.327   5.913 127.910  0.00  0.00    -0.494 OA
ATOM     12  C   LIG A   1      -8.477   4.907 128.461  0.00  0.00    +0.277 C 
ENDBRANCH   2  11
BRANCH   4  13
ATOM     13  O   LIG A   1     -11.145   6.669 132.263  0.00  0.00    -0.495 OA
ATOM     14  C   LIG A   1      -9.985   5.954 132.684  0.00  0.00    +0.277 C 
ENDBRANCH   4  13
BRANCH   6  15
ATOM     15  O   LIG A   1     -13.293   8.563 128.342  0.00  0.00    -0.494 OA
ATOM     16  C   LIG A   1     -13.396   9.902 128.825  0.00  0.00    +0.277 C 
ENDBRANCH   6  15
TORSDOF 5
ENDMDL
MODEL 2
REMARK VINA RESULT:      -5.5      0.491      3.371
REMARK  Name = NuBBE_1198
REMARK  8 active torsions:
REMARK  status: ('A' for Active; 'I' for Inactive)
REMARK    1  A    between atoms: C_2  and  O_3
REMARK    2  A    between atoms: C_2  and  C_4
REMARK    3  A    between atoms: C_5  and  O_6
REMARK    4  A    between atoms: O_6  and  C_7
REMARK    5  A    between atoms: C_9  and  O_10
REMARK    6  A    between atoms: O_10  and  C_11
REMARK    7  A    between atoms: C_13  and  O_14
REMARK    8  A    between atoms: O_14  and  C_15
REMARK                            x       y       z     vdW  Elec       q    Type
REMARK                         _______ _______ _______ _____ _____    ______ ____
ROOT
ATOM      1  C   LIG A   1     -11.149   7.086 128.425  0.00  0.00    +0.142 A 
ATOM      2  C   LIG A   1     -12.042   7.640 129.375  0.00  0.00    +0.141 A 
ATOM      3  C   LIG A   1     -11.827   7.414 130.743  0.00  0.00    +0.092 A 
ATOM      4  C   LIG A   1     -10.773   6.616 131.178  0.00  0.00    +0.127 A 
ATOM      5  C   LIG A   1      -9.908   6.062 130.244  0.00  0.00    +0.092 A 
ATOM      6  C   LIG A   1     -10.068   6.299 128.875  0.00  0.00    +0.141 A 
ENDROOT
BRANCH   1   8
ATOM      7  O   LIG A   1     -10.808   8.322 126.394  0.00  0.00    -0.245 OA
ATOM      8  C   LIG A   1     -11.283   7.361 126.957  0.00  0.00    +0.344 C 
BRANCH   8   9
ATOM      9  O   LIG A   1     -11.974   6.409 126.278  0.00  0.00    -0.477 OA
ATOM     10  H   LIG A   1     -12.183   6.673 125.358  0.00  0.00    +0.295 HD
ENDBRANCH   8   9
ENDBRANCH   1   8
BRANCH   2  11
ATOM     11  O   LIG A   1     -13.103   8.373 128.896  0.00  0.00    -0.494 OA
ATOM     12  C   LIG A   1     -13.116   9.773 129.177  0.00  0.00    +0.277 C 
ENDBRANCH   2  11
BRANCH   4  13
ATOM     13  O   LIG A   1     -10.684   6.438 132.533  0.00  0.00    -0.495 OA
ATOM     14  C   LIG A   1      -9.501   5.794 133.003  0.00  0.00    +0.277 C 
ENDBRANCH   4  13
BRANCH   6  15
ATOM     15  O   LIG A   1      -9.238   5.706 127.956  0.00  0.00    -0.494 OA
ATOM     16  C   LIG A   1      -8.347   4.710 128.457  0.00  0.00    +0.277 C 
ENDBRANCH   6  15
TORSDOF 5
ENDMDL
MODEL 3
REMARK VINA RESULT:      -4.9      1.387      3.789
REMARK  Name = NuBBE_1198
REMARK  8 active torsions:
REMARK  status: ('A' for Active; 'I' for Inactive)
REMARK    1  A    between atoms: C_2  and  O_3
REMARK    2  A    between atoms: C_2  and  C_4
REMARK    3  A    between atoms: C_5  and  O_6
REMARK    4  A    between atoms: O_6  and  C_7
REMARK    5  A    between atoms: C_9  and  O_10
REMARK    6  A    between atoms: O_10  and  C_11
REMARK    7  A    between atoms: C_13  and  O_14
REMARK    8  A    between atoms: O_14  and  C_15
REMARK                            x       y       z     vdW  Elec       q    Type
REMARK                         _______ _______ _______ _____ _____    ______ ____
ROOT
ATOM      1  C   LIG A   1     -10.043   5.960 129.745  0.00  0.00    +0.142 A 
ATOM      2  C   LIG A   1     -10.586   6.074 131.048  0.00  0.00    +0.141 A 
ATOM      3  C   LIG A   1     -11.611   6.999 131.295  0.00  0.00    +0.092 A 
ATOM      4  C   LIG A   1     -12.072   7.839 130.286  0.00  0.00    +0.127 A 
ATOM      5  C   LIG A   1     -11.528   7.736 129.012  0.00  0.00    +0.092 A 
ATOM      6  C   LIG A   1     -10.534   6.797 128.721  0.00  0.00    +0.141 A 
ENDROOT
BRANCH   1   8
ATOM      7  O   LIG A   1      -7.834   5.181 129.215  0.00  0.00    -0.245 OA
ATOM      8  C   LIG A   1      -9.004   4.933 129.405  0.00  0.00    +0.344 C 
BRANCH   8   9
ATOM      9  O   LIG A   1      -9.480   3.662 129.352  0.00  0.00    -0.477 OA
ATOM     10  H   LIG A   1     -10.327   3.593 128.867  0.00  0.00    +0.295 HD
ENDBRANCH   8   9
ENDBRANCH   1   8
BRANCH   2  11
ATOM     11  O   LIG A   1     -10.058   5.264 132.028  0.00  0.00    -0.494 OA
ATOM     12  C   LIG A   1      -9.090   5.838 132.906  0.00  0.00    +0.277 C 
ENDBRANCH   2  11
BRANCH   4  13
ATOM     13  O   LIG A   1     -13.049   8.726 130.652  0.00  0.00    -0.495 OA
ATOM     14  C   LIG A   1     -13.136   9.919 129.875  0.00  0.00    +0.277 C 
ENDBRANCH   4  13
BRANCH   6  15
ATOM     15  O   LIG A   1      -9.966   6.737 127.472  0.00  0.00    -0.494 OA
ATOM     16  C   LIG A   1     -10.682   7.382 126.419  0.00  0.00    +0.277 C 
ENDBRANCH   6  15
TORSDOF 5
ENDMDL
MODEL 4
REMARK VINA RESULT:      -4.8      1.726      3.986
REMARK  Name = NuBBE_1198
REMARK  8 active torsions:
REMARK  status: ('A' for Active; 'I' for Inactive)
REMARK    1  A    between atoms: C_2  and  O_3
REMARK    2  A    between atoms: C_2  and  C_4
REMARK    3  A    between atoms: C_5  and  O_6
REMARK    4  A    between atoms: O_6  and  C_7
REMARK    5  A    between atoms: C_9  and  O_10
REMARK    6  A    between atoms: O_10  and  C_11
REMARK    7  A    between atoms: C_13  and  O_14
REMARK    8  A    between atoms: O_14  and  C_15
REMARK                            x       y       z     vdW  Elec       q    Type
REMARK                         _______ _______ _______ _____ _____    ______ ____
ROOT
ATOM      1  C   LIG A   1     -10.299   6.482 129.380  0.00  0.00    +0.142 A 
ATOM      2  C   LIG A   1     -10.975   6.816 130.580  0.00  0.00    +0.141 A 
ATOM      3  C   LIG A   1     -10.606   6.194 131.781  0.00  0.00    +0.092 A 
ATOM      4  C   LIG A   1      -9.612   5.219 131.805  0.00  0.00    +0.127 A 
ATOM      5  C   LIG A   1      -8.961   4.882 130.625  0.00  0.00    +0.092 A 
ATOM      6  C   LIG A   1      -9.275   5.512 129.417  0.00  0.00    +0.141 A 
ENDROOT
BRANCH   1   8
ATOM      7  O   LIG A   1     -11.179   6.662 127.153  0.00  0.00    -0.245 OA
ATOM      8  C   LIG A   1     -10.597   7.173 128.083  0.00  0.00    +0.344 C 
BRANCH   8   9
ATOM      9  O   LIG A   1     -10.176   8.464 128.036  0.00  0.00    -0.477 OA
ATOM     10  H   LIG A   1     -10.207   8.907 128.908  0.00  0.00    +0.295 HD
ENDBRANCH   8   9
ENDBRANCH   1   8
BRANCH   2  11
ATOM     11  O   LIG A   1     -11.989   7.742 130.499  0.00  0.00    -0.494 OA
ATOM     12  C   LIG A   1     -13.036   7.659 131.466  0.00  0.00    +0.277 C 
ENDBRANCH   2  11
BRANCH   4  13
ATOM     13  O   LIG A   1      -9.362   4.656 133.027  0.00  0.00    -0.495 OA
ATOM     14  C   LIG A   1      -9.255   3.235 133.052  0.00  0.00    +0.277 C 
ENDBRANCH   4  13
BRANCH   6  15
ATOM     15  O   LIG A   1      -8.662   5.136 128.246  0.00  0.00    -0.494 OA
ATOM     16  C   LIG A   1      -7.850   3.964 128.305  0.00  0.00    +0.277 C 
ENDBRANCH   6  15
TORSDOF 5
ENDMDL
MODEL 5
REMARK VINA RESULT:      -4.8      7.411      8.262
REMARK  Name = NuBBE_1198
REMARK  8 active torsions:
REMARK  status: ('A' for Active; 'I' for Inactive)
REMARK    1  A    between atoms: C_2  and  O_3
REMARK    2  A    between atoms: C_2  and  C_4
REMARK    3  A    between atoms: C_5  and  O_6
REMARK    4  A    between atoms: O_6  and  C_7
REMARK    5  A    between atoms: C_9  and  O_10
REMARK    6  A    between atoms: O_10  and  C_11
REMARK    7  A    between atoms: C_13  and  O_14
REMARK    8  A    between atoms: O_14  and  C_15
REMARK                            x       y       z     vdW  Elec       q    Type
REMARK                         _______ _______ _______ _____ _____    ______ ____
ROOT
ATOM      1  C   LIG A   1      -9.246   1.690 123.570  0.00  0.00    +0.142 A 
ATOM      2  C   LIG A   1      -8.593   1.461 124.806  0.00  0.00    +0.141 A 
ATOM      3  C   LIG A   1      -7.413   2.157 125.107  0.00  0.00    +0.092 A 
ATOM      4  C   LIG A   1      -6.850   3.039 124.189  0.00  0.00    +0.127 A 
ATOM      5  C   LIG A   1      -7.484   3.251 122.972  0.00  0.00    +0.092 A 
ATOM      6  C   LIG A   1      -8.683   2.605 122.655  0.00  0.00    +0.141 A 
ENDROOT
BRANCH   1   8
ATOM      7  O   LIG A   1     -10.692   0.196 122.368  0.00  0.00    -0.245 OA
ATOM      8  C   LIG A   1     -10.552   1.036 123.229  0.00  0.00    +0.344 C 
BRANCH   8   9
ATOM      9  O   LIG A   1     -11.592   1.447 123.998  0.00  0.00    -0.477 OA
ATOM     10  H   LIG A   1     -11.643   2.421 124.083  0.00  0.00    +0.295 HD
ENDBRANCH   8   9
ENDBRANCH   1   8
BRANCH   2  11
ATOM     11  O   LIG A   1      -9.154   0.537 125.657  0.00  0.00    -0.494 OA
ATOM     12  C   LIG A   1      -8.505  -0.729 125.775  0.00  0.00    +0.277 C 
ENDBRANCH   2  11
BRANCH   4  13
ATOM     13  O   LIG A   1      -5.679   3.633 124.578  0.00  0.00    -0.495 OA
ATOM     14  C   LIG A   1      -5.657   4.168 125.900  0.00  0.00    +0.277 C 
ENDBRANCH   4  13
BRANCH   6  15
ATOM     15  O   LIG A   1      -9.276   2.782 121.429  0.00  0.00    -0.494 OA
ATOM     16  C   LIG A   1      -8.736   3.818 120.608  0.00  0.00    +0.277 C 
ENDBRANCH   6  15
TORSDOF 5
ENDMDL
MODEL 6
REMARK VINA RESULT:      -4.7      7.788     10.346
REMARK  Name = NuBBE_1198
REMARK  8 active torsions:
REMARK  status: ('A' for Active; 'I' for Inactive)
REMARK    1  A    between atoms: C_2  and  O_3
REMARK    2  A    between atoms: C_2  and  C_4
REMARK    3  A    between atoms: C_5  and  O_6
REMARK    4  A    between atoms: O_6  and  C_7
REMARK    5  A    between atoms: C_9  and  O_10
REMARK    6  A    between atoms: O_10  and  C_11
REMARK    7  A    between atoms: C_13  and  O_14
REMARK    8  A    between atoms: O_14  and  C_15
REMARK                            x       y       z     vdW  Elec       q    Type
REMARK                         _______ _______ _______ _____ _____    ______ ____
ROOT
ATOM      1  C   LIG A   1      -8.665  -0.059 124.389  0.00  0.00    +0.142 A 
ATOM      2  C   LIG A   1      -7.637   0.467 123.568  0.00  0.00    +0.141 A 
ATOM      3  C   LIG A   1      -6.685  -0.397 123.009  0.00  0.00    +0.092 A 
ATOM      4  C   LIG A   1      -6.708  -1.761 123.286  0.00  0.00    +0.127 A 
ATOM      5  C   LIG A   1      -7.708  -2.273 124.103  0.00  0.00    +0.092 A 
ATOM      6  C   LIG A   1      -8.698  -1.446 124.644  0.00  0.00    +0.141 A 
ENDROOT
BRANCH   1   8
ATOM      7  O   LIG A   1     -10.729   1.168 124.323  0.00  0.00    -0.245 OA
ATOM      8  C   LIG A   1      -9.756   0.806 124.946  0.00  0.00    +0.344 C 
BRANCH   8   9
ATOM      9  O   LIG A   1      -9.581   1.143 126.250  0.00  0.00    -0.477 OA
ATOM     10  H   LIG A   1      -9.022   1.938 126.367  0.00  0.00    +0.295 HD
ENDBRANCH   8   9
ENDBRANCH   1   8
BRANCH   2  11
ATOM     11  O   LIG A   1      -7.618   1.828 123.369  0.00  0.00    -0.494 OA
ATOM     12  C   LIG A   1      -6.623   2.581 124.064  0.00  0.00    +0.277 C 
ENDBRANCH   2  11
BRANCH   4  13
ATOM     13  O   LIG A   1      -5.708  -2.501 122.714  0.00  0.00    -0.495 OA
ATOM     14  C   LIG A   1      -4.909  -3.272 123.609  0.00  0.00    +0.277 C 
ENDBRANCH   4  13
BRANCH   6  15
ATOM     15  O   LIG A   1      -9.652  -1.952 125.492  0.00  0.00    -0.494 OA
ATOM     16  C   LIG A   1      -9.285  -3.112 126.238  0.00  0.00    +0.277 C 
ENDBRANCH   6  15
TORSDOF 5
ENDMDL
MODEL 7
REMARK VINA RESULT:      -4.7      7.838      8.641
REMARK  Name = NuBBE_1198
REMARK  8 active torsions:
REMARK  status: ('A' for Active; 'I' for Inactive)
REMARK    1  A    between atoms: C_2  and  O_3
REMARK    2  A    between atoms: C_2  and  C_4
REMARK    3  A    between atoms: C_5  and  O_6
REMARK    4  A    between atoms: O_6  and  C_7
REMARK    5  A    between atoms: C_9  and  O_10
REMARK    6  A    between atoms: O_10  and  C_11
REMARK    7  A    between atoms: C_13  and  O_14
REMARK    8  A    between atoms: O_14  and  C_15
REMARK                            x       y       z     vdW  Elec       q    Type
REMARK                         _______ _______ _______ _____ _____    ______ ____
ROOT
ATOM      1  C   LIG A   1      -9.242   1.250 123.848  0.00  0.00    +0.142 A 
ATOM      2  C   LIG A   1      -8.495   2.389 123.458  0.00  0.00    +0.141 A 
ATOM      3  C   LIG A   1      -7.291   2.687 124.113  0.00  0.00    +0.092 A 
ATOM      4  C   LIG A   1      -6.841   1.904 125.172  0.00  0.00    +0.127 A 
ATOM      5  C   LIG A   1      -7.583   0.796 125.562  0.00  0.00    +0.092 A 
ATOM      6  C   LIG A   1      -8.766   0.446 124.905  0.00  0.00    +0.141 A 
ENDROOT
BRANCH   1   8
ATOM      7  O   LIG A   1     -10.513   0.206 122.097  0.00  0.00    -0.245 OA
ATOM      8  C   LIG A   1     -10.493   0.838 123.130  0.00  0.00    +0.344 C 
BRANCH   8   9
ATOM      9  O   LIG A   1     -11.638   1.213 123.757  0.00  0.00    -0.477 OA
ATOM     10  H   LIG A   1     -12.346   1.473 123.133  0.00  0.00    +0.295 HD
ENDBRANCH   8   9
ENDBRANCH   1   8
BRANCH   2  11
ATOM     11  O   LIG A   1      -9.008   3.167 122.446  0.00  0.00    -0.494 OA
ATOM     12  C   LIG A   1      -8.150   3.463 121.343  0.00  0.00    +0.277 C 
ENDBRANCH   2  11
BRANCH   4  13
ATOM     13  O   LIG A   1      -5.672   2.311 125.757  0.00  0.00    -0.495 OA
ATOM     14  C   LIG A   1      -5.189   3.594 125.363  0.00  0.00    +0.277 C 
ENDBRANCH   4  13
BRANCH   6  15
ATOM     15  O   LIG A   1      -9.519  -0.621 125.331  0.00  0.00    -0.494 OA
ATOM     16  C   LIG A   1      -8.800  -1.802 125.685  0.00  0.00    +0.277 C 
ENDBRANCH   6  15
TORSDOF 5
ENDMDL
MODEL 8
REMARK VINA RESULT:      -4.7      8.367     10.526
REMARK  Name = NuBBE_1198
REMARK  8 active torsions:
REMARK  status: ('A' for Active; 'I' for Inactive)
REMARK    1  A    between atoms: C_2  and  O_3
REMARK    2  A    between atoms: C_2  and  C_4
REMARK    3  A    between atoms: C_5  and  O_6
REMARK    4  A    between atoms: O_6  and  C_7
REMARK    5  A    between atoms: C_9  and  O_10
REMARK    6  A    between atoms: O_10  and  C_11
REMARK    7  A    between atoms: C_13  and  O_14
REMARK    8  A    between atoms: O_14  and  C_15
REMARK                            x       y       z     vdW  Elec       q    Type
REMARK                         _______ _______ _______ _____ _____    ______ ____
ROOT
ATOM      1  C   LIG A   1      -8.017  -2.213 124.755  0.00  0.00    +0.142 A 
ATOM      2  C   LIG A   1      -6.751  -2.803 124.994  0.00  0.00    +0.141 A 
ATOM      3  C   LIG A   1      -6.078  -2.538 126.195  0.00  0.00    +0.092 A 
ATOM      4  C   LIG A   1      -6.615  -1.667 127.138  0.00  0.00    +0.127 A 
ATOM      5  C   LIG A   1      -7.848  -1.077 126.895  0.00  0.00    +0.092 A 
ATOM      6  C   LIG A   1      -8.567  -1.351 125.727  0.00  0.00    +0.141 A 
ENDROOT
BRANCH   1   8
ATOM      7  O   LIG A   1      -8.525  -2.163 122.408  0.00  0.00    -0.245 OA
ATOM      8  C   LIG A   1      -8.818  -2.524 123.526  0.00  0.00    +0.344 C 
BRANCH   8   9
ATOM      9  O   LIG A   1      -9.916  -3.287 123.762  0.00  0.00    -0.477 OA
ATOM     10  H   LIG A   1      -9.874  -3.763 124.616  0.00  0.00    +0.295 HD
ENDBRANCH   8   9
ENDBRANCH   1   8
BRANCH   2  11
ATOM     11  O   LIG A   1      -6.232  -3.611 124.008  0.00  0.00    -0.494 OA
ATOM     12  C   LIG A   1      -4.887  -3.367 123.598  0.00  0.00    +0.277 C 
ENDBRANCH   2  11
BRANCH   4  13
ATOM     13  O   LIG A   1      -5.851  -1.456 128.255  0.00  0.00    -0.495 OA
ATOM     14  C   LIG A   1      -4.887  -2.464 128.554  0.00  0.00    +0.277 C 
ENDBRANCH   4  13
BRANCH   6  15
ATOM     15  O   LIG A   1      -9.762  -0.724 125.472  0.00  0.00    -0.494 OA
ATOM     16  C   LIG A   1      -9.729   0.701 125.411  0.00  0.00    +0.277 C 
ENDBRANCH   6  15
TORSDOF 5
ENDMDL
MODEL 9
REMARK VINA RESULT:      -4.6      8.347     11.008
REMARK  Name = NuBBE_1198
REMARK  8 active torsions:
REMARK  status: ('A' for Active; 'I' for Inactive)
REMARK    1  A    between atoms: C_2  and  O_3
REMARK    2  A    between atoms: C_2  and  C_4
REMARK    3  A    between atoms: C_5  and  O_6
REMARK    4  A    between atoms: O_6  and  C_7
REMARK    5  A    between atoms: C_9  and  O_10
REMARK    6  A    between atoms: O_10  and  C_11
REMARK    7  A    between atoms: C_13  and  O_14
REMARK    8  A    between atoms: O_14  and  C_15
REMARK                            x       y       z     vdW  Elec       q    Type
REMARK                         _______ _______ _______ _____ _____    ______ ____
ROOT
ATOM      1  C   LIG A   1      -8.019  -2.162 124.750  0.00  0.00    +0.142 A 
ATOM      2  C   LIG A   1      -8.496  -1.257 125.730  0.00  0.00    +0.141 A 
ATOM      3  C   LIG A   1      -7.710  -0.977 126.857  0.00  0.00    +0.092 A 
ATOM      4  C   LIG A   1      -6.485  -1.609 127.049  0.00  0.00    +0.127 A 
ATOM      5  C   LIG A   1      -6.027  -2.507 126.095  0.00  0.00    +0.092 A 
ATOM      6  C   LIG A   1      -6.765  -2.779 124.939  0.00  0.00    +0.141 A 
ENDROOT
BRANCH   1   8
ATOM      7  O   LIG A   1      -8.424  -2.086 122.384  0.00  0.00    -0.245 OA
ATOM      8  C   LIG A   1      -8.780  -2.437 123.487  0.00  0.00    +0.344 C 
BRANCH   8   9
ATOM      9  O   LIG A   1      -9.918  -3.154 123.673  0.00  0.00    -0.477 OA
ATOM     10  H   LIG A   1     -10.715  -2.697 123.336  0.00  0.00    +0.295 HD
ENDBRANCH   8   9
ENDBRANCH   1   8
BRANCH   2  11
ATOM     11  O   LIG A   1      -9.738  -0.700 125.528  0.00  0.00    -0.494 OA
ATOM     12  C   LIG A   1      -9.802   0.713 125.330  0.00  0.00    +0.277 C 
ENDBRANCH   2  11
BRANCH   4  13
ATOM     13  O   LIG A   1      -5.824  -1.284 128.203  0.00  0.00    -0.495 OA
ATOM     14  C   LIG A   1      -4.832  -2.211 128.639  0.00  0.00    +0.277 C 
ENDBRANCH   4  13
BRANCH   6  15
ATOM     15  O   LIG A   1      -6.327  -3.707 124.025  0.00  0.00    -0.494 OA
ATOM     16  C   LIG A   1      -4.913  -3.856 123.902  0.00  0.00    +0.277 C 
ENDBRANCH   6  15
TORSDOF 5
ENDMDL
