MODEL 1
REMARK VINA RESULT:      -8.6      0.000      0.000
REMARK  Name = NuBBE_2330
REMARK  15 active torsions:
REMARK  status: ('A' for Active; 'I' for Inactive)
REMARK    1  A    between atoms: O_1  and  C_2
REMARK    2  A    between atoms: C_3  and  O_4
REMARK    3  A    between atoms: O_4  and  C_5
REMARK    4  A    between atoms: C_6  and  C_7
REMARK    5  A    between atoms: C_7  and  C_8
REMARK    6  A    between atoms: C_9  and  C_10
REMARK    7  A    between atoms: C_9  and  C_11
REMARK    8  A    between atoms: C_13  and  C_14
REMARK    9  A    between atoms: C_14  and  C_15
REMARK   10  A    between atoms: C_15  and  C_16
REMARK   11  A    between atoms: C_16  and  C_17
REMARK   12  A    between atoms: C_18  and  O_19
REMARK   13  A    between atoms: C_23  and  C_24
REMARK   14  A    between atoms: C_23  and  C_25
REMARK   15  A    between atoms: C_29  and  O_30
REMARK                            x       y       z     vdW  Elec       q    Type
REMARK                         _______ _______ _______ _____ _____    ______ ____
ROOT
ATOM      1  C   LIG A   1      -9.142  -2.197 123.367  0.00  0.00    +0.171 C 
ATOM      2  O   LIG A   1      -9.520  -3.297 122.955  0.00  0.00    -0.292 OA
ENDROOT
BRANCH   1   3
ATOM      3  C   LIG A   1      -8.370  -2.130 124.653  0.00  0.00    +0.101 A 
ATOM      4  C   LIG A   1      -8.914  -2.670 125.853  0.00  0.00    +0.138 A 
ATOM      5  C   LIG A   1      -8.159  -2.739 127.041  0.00  0.00    +0.037 A 
ATOM      6  C   LIG A   1      -8.650  -3.448 128.285  0.00  0.00    +0.046 C 
ATOM      7  C   LIG A   1      -7.541  -3.611 129.321  0.00  0.00    +0.052 C 
ATOM      8  C   LIG A   1      -6.726  -2.317 129.440  0.00  0.00    +0.105 C 
ATOM      9  C   LIG A   1      -7.573  -1.130 129.928  0.00  0.00    +0.055 C 
ATOM     10  C   LIG A   1      -5.567  -2.507 130.428  0.00  0.00    +0.055 C 
ATOM     11  O   LIG A   1      -6.113  -2.010 128.176  0.00  0.00    -0.486 OA
ATOM     12  C   LIG A   1      -6.897  -2.140 127.061  0.00  0.00    +0.131 A 
ATOM     13  C   LIG A   1      -6.340  -1.631 125.890  0.00  0.00    +0.092 A 
ATOM     14  C   LIG A   1      -7.058  -1.650 124.694  0.00  0.00    +0.134 A 
BRANCH   4  15
ATOM     15  O   LIG A   1     -10.217  -3.099 125.851  0.00  0.00    -0.505 OA
ATOM     16  H   LIG A   1     -10.733  -2.616 126.516  0.00  0.00    +0.292 HD
ENDBRANCH   4  15
BRANCH  14  17
ATOM     17  O   LIG A   1      -6.428  -1.207 123.566  0.00  0.00    -0.506 OA
ATOM     18  H   LIG A   1      -7.086  -0.985 122.886  0.00  0.00    +0.292 HD
ENDBRANCH  14  17
ENDBRANCH   1   3
BRANCH   1  19
ATOM     19  C   LIG A   1      -9.417  -0.950 122.522  0.00  0.00    +0.084 C 
BRANCH  19  20
ATOM     20  C   LIG A   1     -10.009   0.277 123.219  0.00  0.00    +0.043 C 
BRANCH  20  25
ATOM     21  C   LIG A   1      -8.230   2.819 125.444  0.00  0.00    +0.159 A 
ATOM     22  C   LIG A   1      -7.449   3.545 124.531  0.00  0.00    +0.165 A 
ATOM     23  C   LIG A   1      -7.392   3.105 123.199  0.00  0.00    +0.002 A 
ATOM     24  C   LIG A   1      -8.235   2.058 122.781  0.00  0.00    +0.011 A 
ATOM     25  C   LIG A   1      -9.061   1.369 123.671  0.00  0.00    -0.043 A 
ATOM     26  C   LIG A   1      -9.031   1.756 125.020  0.00  0.00    +0.052 A 
BRANCH  21  27
ATOM     27  O   LIG A   1      -8.194   3.125 126.780  0.00  0.00    -0.503 OA
ATOM     28  H   LIG A   1      -7.441   3.717 126.938  0.00  0.00    +0.292 HD
ENDBRANCH  21  27
BRANCH  22  29
ATOM     29  O   LIG A   1      -6.679   4.625 124.870  0.00  0.00    -0.491 OA
ATOM     30  C   LIG A   1      -5.396   4.321 125.419  0.00  0.00    +0.277 C 
ENDBRANCH  22  29
BRANCH  23  31
ATOM     31  C   LIG A   1      -6.448   3.687 122.171  0.00  0.00    +0.066 C 
BRANCH  31  32
ATOM     32  C   LIG A   1      -7.039   3.800 120.791  0.00  0.00    -0.023 C 
ATOM     33  C   LIG A   1      -6.536   4.480 119.750  0.00  0.00    -0.079 C 
ATOM     34  C   LIG A   1      -5.289   5.317 119.802  0.00  0.00    +0.038 C 
ATOM     35  C   LIG A   1      -7.218   4.477 118.411  0.00  0.00    +0.038 C 
ENDBRANCH  31  32
ENDBRANCH  23  31
ENDBRANCH  20  25
ENDBRANCH  19  20
ENDBRANCH   1  19
TORSDOF 10
ENDMDL
MODEL 2
REMARK VINA RESULT:      -8.4      5.862      9.845
REMARK  Name = NuBBE_2330
REMARK  15 active torsions:
REMARK  status: ('A' for Active; 'I' for Inactive)
REMARK    1  A    between atoms: O_1  and  C_2
REMARK    2  A    between atoms: C_3  and  O_4
REMARK    3  A    between atoms: O_4  and  C_5
REMARK    4  A    between atoms: C_6  and  C_7
REMARK    5  A    between atoms: C_7  and  C_8
REMARK    6  A    between atoms: C_9  and  C_10
REMARK    7  A    between atoms: C_9  and  C_11
REMARK    8  A    between atoms: C_13  and  C_14
REMARK    9  A    between atoms: C_14  and  C_15
REMARK   10  A    between atoms: C_15  and  C_16
REMARK   11  A    between atoms: C_16  and  C_17
REMARK   12  A    between atoms: C_18  and  O_19
REMARK   13  A    between atoms: C_23  and  C_24
REMARK   14  A    between atoms: C_23  and  C_25
REMARK   15  A    between atoms: C_29  and  O_30
REMARK                            x       y       z     vdW  Elec       q    Type
REMARK                         _______ _______ _______ _____ _____    ______ ____
ROOT
ATOM      1  C   LIG A   1      -7.768   5.204 131.934  0.00  0.00    +0.171 C 
ATOM      2  O   LIG A   1      -7.469   5.720 133.014  0.00  0.00    -0.292 OA
ENDROOT
BRANCH   1   3
ATOM      3  C   LIG A   1      -9.027   5.646 131.243  0.00  0.00    +0.101 A 
ATOM      4  C   LIG A   1      -9.026   6.798 130.405  0.00  0.00    +0.138 A 
ATOM      5  C   LIG A   1     -10.156   7.157 129.643  0.00  0.00    +0.037 A 
ATOM      6  C   LIG A   1     -10.136   8.278 128.626  0.00  0.00    +0.046 C 
ATOM      7  C   LIG A   1     -11.390   8.277 127.755  0.00  0.00    +0.052 C 
ATOM      8  C   LIG A   1     -12.637   8.035 128.615  0.00  0.00    +0.105 C 
ATOM      9  C   LIG A   1     -12.860   9.145 129.655  0.00  0.00    +0.055 C 
ATOM     10  C   LIG A   1     -13.887   7.961 127.728  0.00  0.00    +0.055 C 
ATOM     11  O   LIG A   1     -12.542   6.753 129.260  0.00  0.00    -0.486 OA
ATOM     12  C   LIG A   1     -11.337   6.434 129.826  0.00  0.00    +0.131 A 
ATOM     13  C   LIG A   1     -11.347   5.291 130.621  0.00  0.00    +0.092 A 
ATOM     14  C   LIG A   1     -10.198   4.887 131.301  0.00  0.00    +0.134 A 
BRANCH   4  15
ATOM     15  O   LIG A   1      -7.905   7.588 130.373  0.00  0.00    -0.505 OA
ATOM     16  H   LIG A   1      -7.418   7.516 131.209  0.00  0.00    +0.292 HD
ENDBRANCH   4  15
BRANCH  14  17
ATOM     17  O   LIG A   1     -10.252   3.715 132.002  0.00  0.00    -0.506 OA
ATOM     18  H   LIG A   1      -9.564   3.710 132.688  0.00  0.00    +0.292 HD
ENDBRANCH  14  17
ENDBRANCH   1   3
BRANCH   1  19
ATOM     19  C   LIG A   1      -6.816   4.184 131.306  0.00  0.00    +0.084 C 
BRANCH  19  20
ATOM     20  C   LIG A   1      -7.113   3.699 129.885  0.00  0.00    +0.043 C 
BRANCH  20  25
ATOM     21  C   LIG A   1      -4.879   2.860 126.904  0.00  0.00    +0.159 A 
ATOM     22  C   LIG A   1      -3.843   3.800 127.012  0.00  0.00    +0.165 A 
ATOM     23  C   LIG A   1      -3.951   4.809 127.983  0.00  0.00    +0.002 A 
ATOM     24  C   LIG A   1      -5.004   4.760 128.917  0.00  0.00    +0.011 A 
ATOM     25  C   LIG A   1      -6.008   3.791 128.852  0.00  0.00    -0.043 A 
ATOM     26  C   LIG A   1      -5.938   2.849 127.815  0.00  0.00    +0.052 A 
BRANCH  21  27
ATOM     27  O   LIG A   1      -4.884   1.953 125.876  0.00  0.00    -0.503 OA
ATOM     28  H   LIG A   1      -5.802   1.819 125.591  0.00  0.00    +0.292 HD
ENDBRANCH  21  27
BRANCH  22  29
ATOM     29  O   LIG A   1      -2.753   3.838 126.184  0.00  0.00    -0.491 OA
ATOM     30  C   LIG A   1      -1.636   3.051 126.598  0.00  0.00    +0.277 C 
ENDBRANCH  22  29
BRANCH  23  31
ATOM     31  C   LIG A   1      -2.998   5.979 128.075  0.00  0.00    +0.066 C 
BRANCH  31  32
ATOM     32  C   LIG A   1      -2.106   5.949 129.287  0.00  0.00    -0.023 C 
ATOM     33  C   LIG A   1      -2.290   6.603 130.443  0.00  0.00    -0.079 C 
ATOM     34  C   LIG A   1      -3.424   7.551 130.713  0.00  0.00    +0.038 C 
ATOM     35  C   LIG A   1      -1.331   6.451 131.590  0.00  0.00    +0.038 C 
ENDBRANCH  31  32
ENDBRANCH  23  31
ENDBRANCH  20  25
ENDBRANCH  19  20
ENDBRANCH   1  19
TORSDOF 10
ENDMDL
MODEL 3
REMARK VINA RESULT:      -8.4      1.506      3.426
REMARK  Name = NuBBE_2330
REMARK  15 active torsions:
REMARK  status: ('A' for Active; 'I' for Inactive)
REMARK    1  A    between atoms: O_1  and  C_2
REMARK    2  A    between atoms: C_3  and  O_4
REMARK    3  A    between atoms: O_4  and  C_5
REMARK    4  A    between atoms: C_6  and  C_7
REMARK    5  A    between atoms: C_7  and  C_8
REMARK    6  A    between atoms: C_9  and  C_10
REMARK    7  A    between atoms: C_9  and  C_11
REMARK    8  A    between atoms: C_13  and  C_14
REMARK    9  A    between atoms: C_14  and  C_15
REMARK   10  A    between atoms: C_15  and  C_16
REMARK   11  A    between atoms: C_16  and  C_17
REMARK   12  A    between atoms: C_18  and  O_19
REMARK   13  A    between atoms: C_23  and  C_24
REMARK   14  A    between atoms: C_23  and  C_25
REMARK   15  A    between atoms: C_29  and  O_30
REMARK                            x       y       z     vdW  Elec       q    Type
REMARK                         _______ _______ _______ _____ _____    ______ ____
ROOT
ATOM      1  C   LIG A   1      -9.002  -2.160 123.447  0.00  0.00    +0.171 C 
ATOM      2  O   LIG A   1      -9.197  -3.230 122.865  0.00  0.00    -0.292 OA
ENDROOT
BRANCH   1   3
ATOM      3  C   LIG A   1      -8.247  -2.168 124.745  0.00  0.00    +0.101 A 
ATOM      4  C   LIG A   1      -8.848  -2.685 125.929  0.00  0.00    +0.138 A 
ATOM      5  C   LIG A   1      -8.118  -2.826 127.126  0.00  0.00    +0.037 A 
ATOM      6  C   LIG A   1      -8.678  -3.516 128.351  0.00  0.00    +0.046 C 
ATOM      7  C   LIG A   1      -7.600  -3.774 129.401  0.00  0.00    +0.052 C 
ATOM      8  C   LIG A   1      -6.696  -2.544 129.552  0.00  0.00    +0.105 C 
ATOM      9  C   LIG A   1      -7.462  -1.307 130.046  0.00  0.00    +0.055 C 
ATOM     10  C   LIG A   1      -5.569  -2.832 130.553  0.00  0.00    +0.055 C 
ATOM     11  O   LIG A   1      -6.042  -2.264 128.302  0.00  0.00    -0.486 OA
ATOM     12  C   LIG A   1      -6.816  -2.320 127.174  0.00  0.00    +0.131 A 
ATOM     13  C   LIG A   1      -6.206  -1.836 126.019  0.00  0.00    +0.092 A 
ATOM     14  C   LIG A   1      -6.905  -1.785 124.813  0.00  0.00    +0.134 A 
BRANCH   4  15
ATOM     15  O   LIG A   1     -10.177  -3.018 125.900  0.00  0.00    -0.505 OA
ATOM     16  H   LIG A   1     -10.702  -2.356 126.378  0.00  0.00    +0.292 HD
ENDBRANCH   4  15
BRANCH  14  17
ATOM     17  O   LIG A   1      -6.227  -1.372 123.701  0.00  0.00    -0.506 OA
ATOM     18  H   LIG A   1      -5.294  -1.217 123.923  0.00  0.00    +0.292 HD
ENDBRANCH  14  17
ENDBRANCH   1   3
BRANCH   1  19
ATOM     19  C   LIG A   1      -9.478  -0.859 122.796  0.00  0.00    +0.084 C 
BRANCH  19  20
ATOM     20  C   LIG A   1      -9.575   0.393 123.672  0.00  0.00    +0.043 C 
BRANCH  20  25
ATOM     21  C   LIG A   1      -7.917   3.342 121.902  0.00  0.00    +0.159 A 
ATOM     22  C   LIG A   1      -6.778   3.580 122.686  0.00  0.00    +0.165 A 
ATOM     23  C   LIG A   1      -6.627   2.865 123.885  0.00  0.00    +0.002 A 
ATOM     24  C   LIG A   1      -7.528   1.826 124.188  0.00  0.00    +0.011 A 
ATOM     25  C   LIG A   1      -8.632   1.543 123.382  0.00  0.00    -0.043 A 
ATOM     26  C   LIG A   1      -8.824   2.333 122.238  0.00  0.00    +0.052 A 
BRANCH  21  27
ATOM     27  O   LIG A   1      -8.177   4.123 120.806  0.00  0.00    -0.503 OA
ATOM     28  H   LIG A   1      -7.795   5.002 120.959  0.00  0.00    +0.292 HD
ENDBRANCH  21  27
BRANCH  22  29
ATOM     29  O   LIG A   1      -5.826   4.519 122.390  0.00  0.00    -0.491 OA
ATOM     30  C   LIG A   1      -4.930   4.177 121.332  0.00  0.00    +0.277 C 
ENDBRANCH  22  29
BRANCH  23  31
ATOM     31  C   LIG A   1      -5.547   3.162 124.900  0.00  0.00    +0.066 C 
BRANCH  31  32
ATOM     32  C   LIG A   1      -5.375   2.091 125.944  0.00  0.00    -0.023 C 
ATOM     33  C   LIG A   1      -5.379   2.252 127.275  0.00  0.00    -0.079 C 
ATOM     34  C   LIG A   1      -5.503   3.577 127.972  0.00  0.00    +0.038 C 
ATOM     35  C   LIG A   1      -5.232   1.080 128.206  0.00  0.00    +0.038 C 
ENDBRANCH  31  32
ENDBRANCH  23  31
ENDBRANCH  20  25
ENDBRANCH  19  20
ENDBRANCH   1  19
TORSDOF 10
ENDMDL
MODEL 4
REMARK VINA RESULT:      -8.3      5.942      9.756
REMARK  Name = NuBBE_2330
REMARK  15 active torsions:
REMARK  status: ('A' for Active; 'I' for Inactive)
REMARK    1  A    between atoms: O_1  and  C_2
REMARK    2  A    between atoms: C_3  and  O_4
REMARK    3  A    between atoms: O_4  and  C_5
REMARK    4  A    between atoms: C_6  and  C_7
REMARK    5  A    between atoms: C_7  and  C_8
REMARK    6  A    between atoms: C_9  and  C_10
REMARK    7  A    between atoms: C_9  and  C_11
REMARK    8  A    between atoms: C_13  and  C_14
REMARK    9  A    between atoms: C_14  and  C_15
REMARK   10  A    between atoms: C_15  and  C_16
REMARK   11  A    between atoms: C_16  and  C_17
REMARK   12  A    between atoms: C_18  and  O_19
REMARK   13  A    between atoms: C_23  and  C_24
REMARK   14  A    between atoms: C_23  and  C_25
REMARK   15  A    between atoms: C_29  and  O_30
REMARK                            x       y       z     vdW  Elec       q    Type
REMARK                         _______ _______ _______ _____ _____    ______ ____
ROOT
ATOM      1  C   LIG A   1      -7.591   5.228 132.760  0.00  0.00    +0.171 C 
ATOM      2  O   LIG A   1      -6.898   5.881 133.544  0.00  0.00    -0.292 OA
ENDROOT
BRANCH   1   3
ATOM      3  C   LIG A   1      -8.546   5.956 131.858  0.00  0.00    +0.101 A 
ATOM      4  C   LIG A   1      -9.949   5.907 132.098  0.00  0.00    +0.138 A 
ATOM      5  C   LIG A   1     -10.854   6.685 131.349  0.00  0.00    +0.037 A 
ATOM      6  C   LIG A   1     -12.328   6.776 131.682  0.00  0.00    +0.046 C 
ATOM      7  C   LIG A   1     -13.021   7.887 130.896  0.00  0.00    +0.052 C 
ATOM      8  C   LIG A   1     -12.557   7.875 129.434  0.00  0.00    +0.105 C 
ATOM      9  C   LIG A   1     -12.925   6.569 128.710  0.00  0.00    +0.055 C 
ATOM     10  C   LIG A   1     -13.199   9.038 128.664  0.00  0.00    +0.055 C 
ATOM     11  O   LIG A   1     -11.139   8.103 129.370  0.00  0.00    -0.486 OA
ATOM     12  C   LIG A   1     -10.363   7.415 130.264  0.00  0.00    +0.131 A 
ATOM     13  C   LIG A   1      -8.992   7.495 130.032  0.00  0.00    +0.092 A 
ATOM     14  C   LIG A   1      -8.092   6.795 130.836  0.00  0.00    +0.134 A 
BRANCH   4  15
ATOM     15  O   LIG A   1     -10.422   5.052 133.060  0.00  0.00    -0.505 OA
ATOM     16  H   LIG A   1     -10.604   4.179 132.677  0.00  0.00    +0.292 HD
ENDBRANCH   4  15
BRANCH  14  17
ATOM     17  O   LIG A   1      -6.758   6.975 130.606  0.00  0.00    -0.506 OA
ATOM     18  H   LIG A   1      -6.274   6.157 130.808  0.00  0.00    +0.292 HD
ENDBRANCH  14  17
ENDBRANCH   1   3
BRANCH   1  19
ATOM     19  C   LIG A   1      -7.408   3.710 132.688  0.00  0.00    +0.084 C 
BRANCH  19  20
ATOM     20  C   LIG A   1      -7.840   2.991 131.407  0.00  0.00    +0.043 C 
BRANCH  20  25
ATOM     21  C   LIG A   1      -7.393   4.015 127.756  0.00  0.00    +0.159 A 
ATOM     22  C   LIG A   1      -6.001   3.965 127.583  0.00  0.00    +0.165 A 
ATOM     23  C   LIG A   1      -5.193   3.736 128.709  0.00  0.00    +0.002 A 
ATOM     24  C   LIG A   1      -5.797   3.407 129.937  0.00  0.00    +0.011 A 
ATOM     25  C   LIG A   1      -7.183   3.396 130.104  0.00  0.00    -0.043 A 
ATOM     26  C   LIG A   1      -7.975   3.725 128.993  0.00  0.00    +0.052 A 
BRANCH  21  27
ATOM     27  O   LIG A   1      -8.205   4.384 126.716  0.00  0.00    -0.503 OA
ATOM     28  H   LIG A   1      -7.960   3.861 125.936  0.00  0.00    +0.292 HD
ENDBRANCH  21  27
BRANCH  22  29
ATOM     29  O   LIG A   1      -5.368   4.191 126.390  0.00  0.00    -0.491 OA
ATOM     30  C   LIG A   1      -5.268   3.062 125.521  0.00  0.00    +0.277 C 
ENDBRANCH  22  29
BRANCH  23  31
ATOM     31  C   LIG A   1      -3.685   3.842 128.685  0.00  0.00    +0.066 C 
BRANCH  31  32
ATOM     32  C   LIG A   1      -3.109   4.645 129.820  0.00  0.00    -0.023 C 
ATOM     33  C   LIG A   1      -2.501   5.838 129.739  0.00  0.00    -0.079 C 
ATOM     34  C   LIG A   1      -2.232   6.572 128.456  0.00  0.00    +0.038 C 
ATOM     35  C   LIG A   1      -2.003   6.548 130.967  0.00  0.00    +0.038 C 
ENDBRANCH  31  32
ENDBRANCH  23  31
ENDBRANCH  20  25
ENDBRANCH  19  20
ENDBRANCH   1  19
TORSDOF 10
ENDMDL
MODEL 5
REMARK VINA RESULT:      -8.2      1.907      4.105
REMARK  Name = NuBBE_2330
REMARK  15 active torsions:
REMARK  status: ('A' for Active; 'I' for Inactive)
REMARK    1  A    between atoms: O_1  and  C_2
REMARK    2  A    between atoms: C_3  and  O_4
REMARK    3  A    between atoms: O_4  and  C_5
REMARK    4  A    between atoms: C_6  and  C_7
REMARK    5  A    between atoms: C_7  and  C_8
REMARK    6  A    between atoms: C_9  and  C_10
REMARK    7  A    between atoms: C_9  and  C_11
REMARK    8  A    between atoms: C_13  and  C_14
REMARK    9  A    between atoms: C_14  and  C_15
REMARK   10  A    between atoms: C_15  and  C_16
REMARK   11  A    between atoms: C_16  and  C_17
REMARK   12  A    between atoms: C_18  and  O_19
REMARK   13  A    between atoms: C_23  and  C_24
REMARK   14  A    between atoms: C_23  and  C_25
REMARK   15  A    between atoms: C_29  and  O_30
REMARK                            x       y       z     vdW  Elec       q    Type
REMARK                         _______ _______ _______ _____ _____    ______ ____
ROOT
ATOM      1  C   LIG A   1      -7.741  -2.183 124.397  0.00  0.00    +0.171 C 
ATOM      2  O   LIG A   1      -7.123  -2.903 123.609  0.00  0.00    -0.292 OA
ENDROOT
BRANCH   1   3
ATOM      3  C   LIG A   1      -7.713  -2.519 125.860  0.00  0.00    +0.101 A 
ATOM      4  C   LIG A   1      -6.556  -2.244 126.644  0.00  0.00    +0.138 A 
ATOM      5  C   LIG A   1      -6.550  -2.427 128.042  0.00  0.00    +0.037 A 
ATOM      6  C   LIG A   1      -5.396  -1.996 128.920  0.00  0.00    +0.046 C 
ATOM      7  C   LIG A   1      -5.757  -2.055 130.403  0.00  0.00    +0.052 C 
ATOM      8  C   LIG A   1      -6.526  -3.345 130.714  0.00  0.00    +0.105 C 
ATOM      9  C   LIG A   1      -5.691  -4.608 130.444  0.00  0.00    +0.055 C 
ATOM     10  C   LIG A   1      -6.951  -3.367 132.189  0.00  0.00    +0.055 C 
ATOM     11  O   LIG A   1      -7.748  -3.379 129.956  0.00  0.00    -0.486 OA
ATOM     12  C   LIG A   1      -7.667  -3.017 128.639  0.00  0.00    +0.131 A 
ATOM     13  C   LIG A   1      -8.815  -3.268 127.891  0.00  0.00    +0.092 A 
ATOM     14  C   LIG A   1      -8.847  -2.997 126.523  0.00  0.00    +0.134 A 
BRANCH   4  15
ATOM     15  O   LIG A   1      -5.415  -1.824 126.010  0.00  0.00    -0.505 OA
ATOM     16  H   LIG A   1      -5.597  -1.640 125.074  0.00  0.00    +0.292 HD
ENDBRANCH   4  15
BRANCH  14  17
ATOM     17  O   LIG A   1     -10.026  -3.192 125.862  0.00  0.00    -0.506 OA
ATOM     18  H   LIG A   1     -10.632  -2.455 126.043  0.00  0.00    +0.292 HD
ENDBRANCH  14  17
ENDBRANCH   1   3
BRANCH   1  19
ATOM     19  C   LIG A   1      -8.456  -0.938 123.866  0.00  0.00    +0.084 C 
BRANCH  19  20
ATOM     20  C   LIG A   1      -8.459   0.320 124.738  0.00  0.00    +0.043 C 
BRANCH  20  25
ATOM     21  C   LIG A   1      -7.468   3.233 122.478  0.00  0.00    +0.159 A 
ATOM     22  C   LIG A   1      -6.315   3.737 123.101  0.00  0.00    +0.165 A 
ATOM     23  C   LIG A   1      -5.942   3.211 124.348  0.00  0.00    +0.002 A 
ATOM     24  C   LIG A   1      -6.632   2.096 124.862  0.00  0.00    +0.011 A 
ATOM     25  C   LIG A   1      -7.745   1.551 124.219  0.00  0.00    -0.043 A 
ATOM     26  C   LIG A   1      -8.165   2.151 123.022  0.00  0.00    +0.052 A 
BRANCH  21  27
ATOM     27  O   LIG A   1      -7.948   3.820 121.337  0.00  0.00    -0.503 OA
ATOM     28  H   LIG A   1      -8.501   3.173 120.869  0.00  0.00    +0.292 HD
ENDBRANCH  21  27
BRANCH  22  29
ATOM     29  O   LIG A   1      -5.558   4.762 122.598  0.00  0.00    -0.491 OA
ATOM     30  C   LIG A   1      -4.708   4.422 121.502  0.00  0.00    +0.277 C 
ENDBRANCH  22  29
BRANCH  23  31
ATOM     31  C   LIG A   1      -4.836   3.793 125.198  0.00  0.00    +0.066 C 
BRANCH  31  32
ATOM     32  C   LIG A   1      -4.777   3.233 126.595  0.00  0.00    -0.023 C 
ATOM     33  C   LIG A   1      -3.675   2.964 127.311  0.00  0.00    -0.079 C 
ATOM     34  C   LIG A   1      -2.270   3.125 126.805  0.00  0.00    +0.038 C 
ATOM     35  C   LIG A   1      -3.765   2.438 128.716  0.00  0.00    +0.038 C 
ENDBRANCH  31  32
ENDBRANCH  23  31
ENDBRANCH  20  25
ENDBRANCH  19  20
ENDBRANCH   1  19
TORSDOF 10
ENDMDL
MODEL 6
REMARK VINA RESULT:      -8.1      2.468      4.031
REMARK  Name = NuBBE_2330
REMARK  15 active torsions:
REMARK  status: ('A' for Active; 'I' for Inactive)
REMARK    1  A    between atoms: O_1  and  C_2
REMARK    2  A    between atoms: C_3  and  O_4
REMARK    3  A    between atoms: O_4  and  C_5
REMARK    4  A    between atoms: C_6  and  C_7
REMARK    5  A    between atoms: C_7  and  C_8
REMARK    6  A    between atoms: C_9  and  C_10
REMARK    7  A    between atoms: C_9  and  C_11
REMARK    8  A    between atoms: C_13  and  C_14
REMARK    9  A    between atoms: C_14  and  C_15
REMARK   10  A    between atoms: C_15  and  C_16
REMARK   11  A    between atoms: C_16  and  C_17
REMARK   12  A    between atoms: C_18  and  O_19
REMARK   13  A    between atoms: C_23  and  C_24
REMARK   14  A    between atoms: C_23  and  C_25
REMARK   15  A    between atoms: C_29  and  O_30
REMARK                            x       y       z     vdW  Elec       q    Type
REMARK                         _______ _______ _______ _____ _____    ______ ____
ROOT
ATOM      1  C   LIG A   1      -7.750  -2.228 124.177  0.00  0.00    +0.171 C 
ATOM      2  O   LIG A   1      -7.283  -3.073 123.408  0.00  0.00    -0.292 OA
ENDROOT
BRANCH   1   3
ATOM      3  C   LIG A   1      -7.745  -2.509 125.652  0.00  0.00    +0.101 A 
ATOM      4  C   LIG A   1      -6.582  -2.255 126.433  0.00  0.00    +0.138 A 
ATOM      5  C   LIG A   1      -6.592  -2.385 127.837  0.00  0.00    +0.037 A 
ATOM      6  C   LIG A   1      -5.425  -1.970 128.707  0.00  0.00    +0.046 C 
ATOM      7  C   LIG A   1      -5.797  -1.958 130.188  0.00  0.00    +0.052 C 
ATOM      8  C   LIG A   1      -6.623  -3.201 130.542  0.00  0.00    +0.105 C 
ATOM      9  C   LIG A   1      -5.842  -4.508 130.326  0.00  0.00    +0.055 C 
ATOM     10  C   LIG A   1      -7.057  -3.149 132.013  0.00  0.00    +0.055 C 
ATOM     11  O   LIG A   1      -7.841  -3.211 129.777  0.00  0.00    -0.486 OA
ATOM     12  C   LIG A   1      -7.737  -2.903 128.447  0.00  0.00    +0.131 A 
ATOM     13  C   LIG A   1      -8.890  -3.132 127.701  0.00  0.00    +0.092 A 
ATOM     14  C   LIG A   1      -8.902  -2.913 126.323  0.00  0.00    +0.134 A 
BRANCH   4  15
ATOM     15  O   LIG A   1      -5.421  -1.909 125.792  0.00  0.00    -0.505 OA
ATOM     16  H   LIG A   1      -4.832  -1.426 126.394  0.00  0.00    +0.292 HD
ENDBRANCH   4  15
BRANCH  14  17
ATOM     17  O   LIG A   1     -10.085  -3.082 125.662  0.00  0.00    -0.506 OA
ATOM     18  H   LIG A   1     -10.810  -3.182 126.301  0.00  0.00    +0.292 HD
ENDBRANCH  14  17
ENDBRANCH   1   3
BRANCH   1  19
ATOM     19  C   LIG A   1      -8.255  -0.900 123.607  0.00  0.00    +0.084 C 
BRANCH  19  20
ATOM     20  C   LIG A   1      -7.247   0.238 123.428  0.00  0.00    +0.043 C 
BRANCH  20  25
ATOM     21  C   LIG A   1      -8.060   3.459 125.310  0.00  0.00    +0.159 A 
ATOM     22  C   LIG A   1      -7.058   3.512 126.291  0.00  0.00    +0.165 A 
ATOM     23  C   LIG A   1      -6.196   2.412 126.431  0.00  0.00    +0.002 A 
ATOM     24  C   LIG A   1      -6.255   1.365 125.491  0.00  0.00    +0.011 A 
ATOM     25  C   LIG A   1      -7.211   1.333 124.474  0.00  0.00    -0.043 A 
ATOM     26  C   LIG A   1      -8.129   2.393 124.409  0.00  0.00    +0.052 A 
BRANCH  21  27
ATOM     27  O   LIG A   1      -9.011   4.443 125.240  0.00  0.00    -0.503 OA
ATOM     28  H   LIG A   1      -8.562   5.303 125.228  0.00  0.00    +0.292 HD
ENDBRANCH  21  27
BRANCH  22  29
ATOM     29  O   LIG A   1      -6.903   4.549 127.173  0.00  0.00    -0.491 OA
ATOM     30  C   LIG A   1      -7.710   4.484 128.349  0.00  0.00    +0.277 C 
ENDBRANCH  22  29
BRANCH  23  31
ATOM     31  C   LIG A   1      -5.204   2.272 127.562  0.00  0.00    +0.066 C 
BRANCH  31  32
ATOM     32  C   LIG A   1      -3.769   2.201 127.114  0.00  0.00    -0.023 C 
ATOM     33  C   LIG A   1      -2.897   3.216 127.030  0.00  0.00    -0.079 C 
ATOM     34  C   LIG A   1      -3.232   4.652 127.323  0.00  0.00    +0.038 C 
ATOM     35  C   LIG A   1      -1.475   2.994 126.597  0.00  0.00    +0.038 C 
ENDBRANCH  31  32
ENDBRANCH  23  31
ENDBRANCH  20  25
ENDBRANCH  19  20
ENDBRANCH   1  19
TORSDOF 10
ENDMDL
MODEL 7
REMARK VINA RESULT:      -8.0      4.471      7.310
REMARK  Name = NuBBE_2330
REMARK  15 active torsions:
REMARK  status: ('A' for Active; 'I' for Inactive)
REMARK    1  A    between atoms: O_1  and  C_2
REMARK    2  A    between atoms: C_3  and  O_4
REMARK    3  A    between atoms: O_4  and  C_5
REMARK    4  A    between atoms: C_6  and  C_7
REMARK    5  A    between atoms: C_7  and  C_8
REMARK    6  A    between atoms: C_9  and  C_10
REMARK    7  A    between atoms: C_9  and  C_11
REMARK    8  A    between atoms: C_13  and  C_14
REMARK    9  A    between atoms: C_14  and  C_15
REMARK   10  A    between atoms: C_15  and  C_16
REMARK   11  A    between atoms: C_16  and  C_17
REMARK   12  A    between atoms: C_18  and  O_19
REMARK   13  A    between atoms: C_23  and  C_24
REMARK   14  A    between atoms: C_23  and  C_25
REMARK   15  A    between atoms: C_29  and  O_30
REMARK                            x       y       z     vdW  Elec       q    Type
REMARK                         _______ _______ _______ _____ _____    ______ ____
ROOT
ATOM      1  C   LIG A   1      -2.474   3.387 126.993  0.00  0.00    +0.171 C 
ATOM      2  O   LIG A   1      -1.437   2.741 126.818  0.00  0.00    -0.292 OA
ENDROOT
BRANCH   1   3
ATOM      3  C   LIG A   1      -2.874   3.751 128.394  0.00  0.00    +0.101 A 
ATOM      4  C   LIG A   1      -2.668   5.072 128.885  0.00  0.00    +0.138 A 
ATOM      5  C   LIG A   1      -3.152   5.475 130.146  0.00  0.00    +0.037 A 
ATOM      6  C   LIG A   1      -3.091   6.908 130.628  0.00  0.00    +0.046 C 
ATOM      7  C   LIG A   1      -3.921   7.119 131.892  0.00  0.00    +0.052 C 
ATOM      8  C   LIG A   1      -3.701   5.962 132.875  0.00  0.00    +0.105 C 
ATOM      9  C   LIG A   1      -2.244   5.865 133.354  0.00  0.00    +0.055 C 
ATOM     10  C   LIG A   1      -4.593   6.139 134.111  0.00  0.00    +0.055 C 
ATOM     11  O   LIG A   1      -4.116   4.724 132.271  0.00  0.00    -0.486 OA
ATOM     12  C   LIG A   1      -3.728   4.509 130.976  0.00  0.00    +0.131 A 
ATOM     13  C   LIG A   1      -3.960   3.221 130.501  0.00  0.00    +0.092 A 
ATOM     14  C   LIG A   1      -3.561   2.854 129.215  0.00  0.00    +0.134 A 
BRANCH   4  15
ATOM     15  O   LIG A   1      -1.951   5.955 128.120  0.00  0.00    -0.505 OA
ATOM     16  H   LIG A   1      -1.600   5.511 127.331  0.00  0.00    +0.292 HD
ENDBRANCH   4  15
BRANCH  14  17
ATOM     17  O   LIG A   1      -3.886   1.600 128.782  0.00  0.00    -0.506 OA
ATOM     18  H   LIG A   1      -4.805   1.395 129.023  0.00  0.00    +0.292 HD
ENDBRANCH  14  17
ENDBRANCH   1   3
BRANCH   1  19
ATOM     19  C   LIG A   1      -3.279   3.850 125.776  0.00  0.00    +0.084 C 
BRANCH  19  20
ATOM     20  C   LIG A   1      -4.672   4.438 126.013  0.00  0.00    +0.043 C 
BRANCH  20  25
ATOM     21  C   LIG A   1      -8.161   3.629 124.691  0.00  0.00    +0.159 A 
ATOM     22  C   LIG A   1      -7.900   3.094 123.420  0.00  0.00    +0.165 A 
ATOM     23  C   LIG A   1      -6.583   3.134 122.933  0.00  0.00    +0.002 A 
ATOM     24  C   LIG A   1      -5.544   3.556 123.784  0.00  0.00    +0.011 A 
ATOM     25  C   LIG A   1      -5.789   4.033 125.073  0.00  0.00    -0.043 A 
ATOM     26  C   LIG A   1      -7.122   4.080 125.508  0.00  0.00    +0.052 A 
BRANCH  21  27
ATOM     27  O   LIG A   1      -9.451   3.746 125.139  0.00  0.00    -0.503 OA
ATOM     28  H   LIG A   1      -9.816   4.581 124.805  0.00  0.00    +0.292 HD
ENDBRANCH  21  27
BRANCH  22  29
ATOM     29  O   LIG A   1      -8.863   2.591 122.587  0.00  0.00    -0.491 OA
ATOM     30  C   LIG A   1      -9.333   1.281 122.907  0.00  0.00    +0.277 C 
ENDBRANCH  22  29
BRANCH  23  31
ATOM     31  C   LIG A   1      -6.209   2.762 121.516  0.00  0.00    +0.066 C 
BRANCH  31  32
ATOM     32  C   LIG A   1      -5.657   3.905 120.707  0.00  0.00    -0.023 C 
ATOM     33  C   LIG A   1      -6.292   4.602 119.754  0.00  0.00    -0.079 C 
ATOM     34  C   LIG A   1      -7.687   4.314 119.275  0.00  0.00    +0.038 C 
ATOM     35  C   LIG A   1      -5.626   5.750 119.048  0.00  0.00    +0.038 C 
ENDBRANCH  31  32
ENDBRANCH  23  31
ENDBRANCH  20  25
ENDBRANCH  19  20
ENDBRANCH   1  19
TORSDOF 10
ENDMDL
MODEL 8
REMARK VINA RESULT:      -8.0      4.880      9.231
REMARK  Name = NuBBE_2330
REMARK  15 active torsions:
REMARK  status: ('A' for Active; 'I' for Inactive)
REMARK    1  A    between atoms: O_1  and  C_2
REMARK    2  A    between atoms: C_3  and  O_4
REMARK    3  A    between atoms: O_4  and  C_5
REMARK    4  A    between atoms: C_6  and  C_7
REMARK    5  A    between atoms: C_7  and  C_8
REMARK    6  A    between atoms: C_9  and  C_10
REMARK    7  A    between atoms: C_9  and  C_11
REMARK    8  A    between atoms: C_13  and  C_14
REMARK    9  A    between atoms: C_14  and  C_15
REMARK   10  A    between atoms: C_15  and  C_16
REMARK   11  A    between atoms: C_16  and  C_17
REMARK   12  A    between atoms: C_18  and  O_19
REMARK   13  A    between atoms: C_23  and  C_24
REMARK   14  A    between atoms: C_23  and  C_25
REMARK   15  A    between atoms: C_29  and  O_30
REMARK                            x       y       z     vdW  Elec       q    Type
REMARK                         _______ _______ _______ _____ _____    ______ ____
ROOT
ATOM      1  C   LIG A   1      -7.971   4.410 131.583  0.00  0.00    +0.171 C 
ATOM      2  O   LIG A   1      -7.732   4.642 132.772  0.00  0.00    -0.292 OA
ENDROOT
BRANCH   1   3
ATOM      3  C   LIG A   1      -9.187   5.027 130.955  0.00  0.00    +0.101 A 
ATOM      4  C   LIG A   1      -9.111   6.307 130.335  0.00  0.00    +0.138 A 
ATOM      5  C   LIG A   1     -10.200   6.850 129.625  0.00  0.00    +0.037 A 
ATOM      6  C   LIG A   1     -10.101   8.129 128.823  0.00  0.00    +0.046 C 
ATOM      7  C   LIG A   1     -11.328   8.343 127.939  0.00  0.00    +0.052 C 
ATOM      8  C   LIG A   1     -12.609   8.014 128.715  0.00  0.00    +0.105 C 
ATOM      9  C   LIG A   1     -12.814   8.933 129.931  0.00  0.00    +0.055 C 
ATOM     10  C   LIG A   1     -13.834   8.159 127.802  0.00  0.00    +0.055 C 
ATOM     11  O   LIG A   1     -12.590   6.636 129.125  0.00  0.00    -0.486 OA
ATOM     12  C   LIG A   1     -11.418   6.164 129.651  0.00  0.00    +0.131 A 
ATOM     13  C   LIG A   1     -11.502   4.900 130.230  0.00  0.00    +0.092 A 
ATOM     14  C   LIG A   1     -10.392   4.327 130.852  0.00  0.00    +0.134 A 
BRANCH   4  15
ATOM     15  O   LIG A   1      -7.956   7.035 130.468  0.00  0.00    -0.505 OA
ATOM     16  H   LIG A   1      -7.209   6.559 130.072  0.00  0.00    +0.292 HD
ENDBRANCH   4  15
BRANCH  14  17
ATOM     17  O   LIG A   1     -10.518   3.055 131.332  0.00  0.00    -0.506 OA
ATOM     18  H   LIG A   1      -9.782   2.855 131.935  0.00  0.00    +0.292 HD
ENDBRANCH  14  17
ENDBRANCH   1   3
BRANCH   1  19
ATOM     19  C   LIG A   1      -6.987   3.558 130.777  0.00  0.00    +0.084 C 
BRANCH  19  20
ATOM     20  C   LIG A   1      -7.487   2.232 130.199  0.00  0.00    +0.043 C 
BRANCH  20  25
ATOM     21  C   LIG A   1      -7.782   3.178 126.512  0.00  0.00    +0.159 A 
ATOM     22  C   LIG A   1      -8.023   1.944 125.888  0.00  0.00    +0.165 A 
ATOM     23  C   LIG A   1      -7.944   0.774 126.662  0.00  0.00    +0.002 A 
ATOM     24  C   LIG A   1      -7.786   0.878 128.057  0.00  0.00    +0.011 A 
ATOM     25  C   LIG A   1      -7.604   2.108 128.694  0.00  0.00    -0.043 A 
ATOM     26  C   LIG A   1      -7.587   3.260 127.893  0.00  0.00    +0.052 A 
BRANCH  21  27
ATOM     27  O   LIG A   1      -7.702   4.324 125.765  0.00  0.00    -0.503 OA
ATOM     28  H   LIG A   1      -6.772   4.599 125.725  0.00  0.00    +0.292 HD
ENDBRANCH  21  27
BRANCH  22  29
ATOM     29  O   LIG A   1      -8.269   1.796 124.549  0.00  0.00    -0.491 OA
ATOM     30  C   LIG A   1      -9.637   1.912 124.157  0.00  0.00    +0.277 C 
ENDBRANCH  22  29
BRANCH  23  31
ATOM     31  C   LIG A   1      -8.000  -0.617 126.074  0.00  0.00    +0.066 C 
BRANCH  31  32
ATOM     32  C   LIG A   1      -8.305  -1.696 127.078  0.00  0.00    -0.023 C 
ATOM     33  C   LIG A   1      -8.562  -2.987 126.825  0.00  0.00    -0.079 C 
ATOM     34  C   LIG A   1      -8.651  -3.583 125.448  0.00  0.00    +0.038 C 
ATOM     35  C   LIG A   1      -8.816  -3.968 127.935  0.00  0.00    +0.038 C 
ENDBRANCH  31  32
ENDBRANCH  23  31
ENDBRANCH  20  25
ENDBRANCH  19  20
ENDBRANCH   1  19
TORSDOF 10
ENDMDL
MODEL 9
REMARK VINA RESULT:      -8.0      2.605      5.115
REMARK  Name = NuBBE_2330
REMARK  15 active torsions:
REMARK  status: ('A' for Active; 'I' for Inactive)
REMARK    1  A    between atoms: O_1  and  C_2
REMARK    2  A    between atoms: C_3  and  O_4
REMARK    3  A    between atoms: O_4  and  C_5
REMARK    4  A    between atoms: C_6  and  C_7
REMARK    5  A    between atoms: C_7  and  C_8
REMARK    6  A    between atoms: C_9  and  C_10
REMARK    7  A    between atoms: C_9  and  C_11
REMARK    8  A    between atoms: C_13  and  C_14
REMARK    9  A    between atoms: C_14  and  C_15
REMARK   10  A    between atoms: C_15  and  C_16
REMARK   11  A    between atoms: C_16  and  C_17
REMARK   12  A    between atoms: C_18  and  O_19
REMARK   13  A    between atoms: C_23  and  C_24
REMARK   14  A    between atoms: C_23  and  C_25
REMARK   15  A    between atoms: C_29  and  O_30
REMARK                            x       y       z     vdW  Elec       q    Type
REMARK                         _______ _______ _______ _____ _____    ______ ____
ROOT
ATOM      1  C   LIG A   1      -7.922  -1.972 124.490  0.00  0.00    +0.171 C 
ATOM      2  O   LIG A   1      -7.340  -2.651 123.639  0.00  0.00    -0.292 OA
ENDROOT
BRANCH   1   3
ATOM      3  C   LIG A   1      -7.821  -2.375 125.932  0.00  0.00    +0.101 A 
ATOM      4  C   LIG A   1      -6.672  -2.033 126.701  0.00  0.00    +0.138 A 
ATOM      5  C   LIG A   1      -6.609  -2.283 128.087  0.00  0.00    +0.037 A 
ATOM      6  C   LIG A   1      -5.473  -1.791 128.958  0.00  0.00    +0.046 C 
ATOM      7  C   LIG A   1      -5.784  -1.956 130.443  0.00  0.00    +0.052 C 
ATOM      8  C   LIG A   1      -6.424  -3.325 130.707  0.00  0.00    +0.105 C 
ATOM      9  C   LIG A   1      -5.487  -4.491 130.352  0.00  0.00    +0.055 C 
ATOM     10  C   LIG A   1      -6.803  -3.458 132.188  0.00  0.00    +0.055 C 
ATOM     11  O   LIG A   1      -7.659  -3.434 129.979  0.00  0.00    -0.486 OA
ATOM     12  C   LIG A   1      -7.650  -3.002 128.680  0.00  0.00    +0.131 A 
ATOM     13  C   LIG A   1      -8.792  -3.320 127.948  0.00  0.00    +0.092 A 
ATOM     14  C   LIG A   1      -8.887  -2.987 126.597  0.00  0.00    +0.134 A 
BRANCH   4  15
ATOM     15  O   LIG A   1      -5.593  -1.480 126.061  0.00  0.00    -0.505 OA
ATOM     16  H   LIG A   1      -5.887  -0.847 125.386  0.00  0.00    +0.292 HD
ENDBRANCH   4  15
BRANCH  14  17
ATOM     17  O   LIG A   1     -10.063  -3.257 125.956  0.00  0.00    -0.506 OA
ATOM     18  H   LIG A   1     -10.812  -3.038 126.534  0.00  0.00    +0.292 HD
ENDBRANCH  14  17
ENDBRANCH   1   3
BRANCH   1  19
ATOM     19  C   LIG A   1      -8.668  -0.709 124.052  0.00  0.00    +0.084 C 
BRANCH  19  20
ATOM     20  C   LIG A   1      -9.445   0.074 125.113  0.00  0.00    +0.043 C 
BRANCH  20  25
ATOM     21  C   LIG A   1      -7.990   3.591 125.412  0.00  0.00    +0.159 A 
ATOM     22  C   LIG A   1      -7.423   3.589 126.695  0.00  0.00    +0.165 A 
ATOM     23  C   LIG A   1      -7.645   2.479 127.526  0.00  0.00    +0.002 A 
ATOM     24  C   LIG A   1      -8.286   1.341 127.000  0.00  0.00    +0.011 A 
ATOM     25  C   LIG A   1      -8.802   1.312 125.703  0.00  0.00    -0.043 A 
ATOM     26  C   LIG A   1      -8.659   2.467 124.919  0.00  0.00    +0.052 A 
BRANCH  21  27
ATOM     27  O   LIG A   1      -7.925   4.714 124.629  0.00  0.00    -0.503 OA
ATOM     28  H   LIG A   1      -8.754   5.208 124.731  0.00  0.00    +0.292 HD
ENDBRANCH  21  27
BRANCH  22  29
ATOM     29  O   LIG A   1      -6.714   4.637 127.222  0.00  0.00    -0.491 OA
ATOM     30  C   LIG A   1      -5.319   4.653 126.918  0.00  0.00    +0.277 C 
ENDBRANCH  22  29
BRANCH  23  31
ATOM     31  C   LIG A   1      -7.246   2.438 128.983  0.00  0.00    +0.066 C 
BRANCH  31  32
ATOM     32  C   LIG A   1      -7.647   1.172 129.693  0.00  0.00    -0.023 C 
ATOM     33  C   LIG A   1      -8.500   1.059 130.722  0.00  0.00    -0.079 C 
ATOM     34  C   LIG A   1      -9.176   2.218 131.400  0.00  0.00    +0.038 C 
ATOM     35  C   LIG A   1      -8.838  -0.281 131.314  0.00  0.00    +0.038 C 
ENDBRANCH  31  32
ENDBRANCH  23  31
ENDBRANCH  20  25
ENDBRANCH  19  20
ENDBRANCH   1  19
TORSDOF 10
ENDMDL
