MODEL 1
REMARK VINA RESULT:      -6.3      0.000      0.000
REMARK  Name = NuBBE_1688
REMARK  15 active torsions:
REMARK  status: ('A' for Active; 'I' for Inactive)
REMARK    1  A    between atoms: C_1  and  C_2
REMARK    2  A    between atoms: C_2  and  C_3
REMARK    3  A    between atoms: C_3  and  C_4
REMARK    4  A    between atoms: C_5  and  C_6
REMARK    5  A    between atoms: C_6  and  C_7
REMARK    6  A    between atoms: C_8  and  C_9
REMARK    7  A    between atoms: C_9  and  C_10
REMARK    8  A    between atoms: C_10  and  C_11
REMARK    9  A    between atoms: C_11  and  C_12
REMARK   10  A    between atoms: C_12  and  C_13
REMARK   11  A    between atoms: C_13  and  C_14
REMARK   12  A    between atoms: C_14  and  C_15
REMARK   13  A    between atoms: C_15  and  C_16
REMARK   14  A    between atoms: C_18  and  O_19
REMARK   15  A    between atoms: C_21  and  O_22
REMARK                            x       y       z     vdW  Elec       q    Type
REMARK                         _______ _______ _______ _____ _____    ______ ____
ROOT
ATOM      1  C   LIG A   1      -5.461  -1.661 127.225  0.00  0.00    +0.000 C 
ENDROOT
BRANCH   1   2
ATOM      2  C   LIG A   1      -6.094  -1.792 128.609  0.00  0.00    +0.000 C 
BRANCH   2   3
ATOM      3  C   LIG A   1      -6.922  -3.061 128.814  0.00  0.00    +0.000 C 
BRANCH   3   4
ATOM      4  C   LIG A   1      -8.423  -2.952 128.507  0.00  0.00    +0.004 C 
BRANCH   4   5
ATOM      5  C   LIG A   1      -8.973  -3.821 127.383  0.00  0.00    +0.027 C 
BRANCH   5   7
ATOM      6  C   LIG A   1      -9.067  -3.151 124.977  0.00  0.00    -0.027 C 
ATOM      7  C   LIG A   1      -8.381  -3.603 126.011  0.00  0.00    -0.031 C 
BRANCH   6   8
ATOM      8  C   LIG A   1      -8.585  -3.018 123.552  0.00  0.00    +0.054 C 
BRANCH   8  10
ATOM      9  C   LIG A   1      -6.545  -1.569 123.027  0.00  0.00    -0.031 C 
ATOM     10  C   LIG A   1      -7.841  -1.732 123.351  0.00  0.00    -0.027 C 
BRANCH   9  11
ATOM     11  C   LIG A   1      -5.534  -2.642 122.717  0.00  0.00    +0.026 C 
BRANCH  11  13
ATOM     12  C   LIG A   1      -4.316  -4.663 123.665  0.00  0.00    +0.004 C 
ATOM     13  C   LIG A   1      -5.122  -3.410 123.978  0.00  0.00    +0.001 C 
ENDBRANCH  11  13
ENDBRANCH   9  11
ENDBRANCH   8  10
ENDBRANCH   6   8
ENDBRANCH   5   7
ENDBRANCH   4   5
ENDBRANCH   3   4
ENDBRANCH   2   3
ENDBRANCH   1   2
BRANCH   1  14
ATOM     14  C   LIG A   1      -5.845  -0.408 126.438  0.00  0.00    +0.005 C 
BRANCH  14  15
ATOM     15  C   LIG A   1      -7.233   0.174 126.758  0.00  0.00    +0.035 C 
BRANCH  15  16
ATOM     16  C   LIG A   1      -7.945   0.934 125.661  0.00  0.00    -0.041 A 
ATOM     17  C   LIG A   1      -9.293   0.692 125.350  0.00  0.00    +0.049 A 
ATOM     18  C   LIG A   1      -9.938   1.467 124.383  0.00  0.00    +0.121 A 
ATOM     19  C   LIG A   1      -9.264   2.470 123.696  0.00  0.00    +0.090 A 
ATOM     20  C   LIG A   1      -7.928   2.703 123.993  0.00  0.00    +0.121 A 
ATOM     21  C   LIG A   1      -7.268   1.950 124.964  0.00  0.00    +0.049 A 
BRANCH  18  22
ATOM     22  O   LIG A   1     -11.271   1.316 124.128  0.00  0.00    -0.507 OA
ATOM     23  H   LIG A   1     -11.767   1.919 124.706  0.00  0.00    +0.292 HD
ENDBRANCH  18  22
BRANCH  20  24
ATOM     24  O   LIG A   1      -7.220   3.682 123.360  0.00  0.00    -0.507 OA
ATOM     25  H   LIG A   1      -7.809   4.111 122.717  0.00  0.00    +0.292 HD
ENDBRANCH  20  24
ENDBRANCH  15  16
ENDBRANCH  14  15
ENDBRANCH   1  14
TORSDOF 14
ENDMDL
MODEL 2
REMARK VINA RESULT:      -6.0      1.181      4.150
REMARK  Name = NuBBE_1688
REMARK  15 active torsions:
REMARK  status: ('A' for Active; 'I' for Inactive)
REMARK    1  A    between atoms: C_1  and  C_2
REMARK    2  A    between atoms: C_2  and  C_3
REMARK    3  A    between atoms: C_3  and  C_4
REMARK    4  A    between atoms: C_5  and  C_6
REMARK    5  A    between atoms: C_6  and  C_7
REMARK    6  A    between atoms: C_8  and  C_9
REMARK    7  A    between atoms: C_9  and  C_10
REMARK    8  A    between atoms: C_10  and  C_11
REMARK    9  A    between atoms: C_11  and  C_12
REMARK   10  A    between atoms: C_12  and  C_13
REMARK   11  A    between atoms: C_13  and  C_14
REMARK   12  A    between atoms: C_14  and  C_15
REMARK   13  A    between atoms: C_15  and  C_16
REMARK   14  A    between atoms: C_18  and  O_19
REMARK   15  A    between atoms: C_21  and  O_22
REMARK                            x       y       z     vdW  Elec       q    Type
REMARK                         _______ _______ _______ _____ _____    ______ ____
ROOT
ATOM      1  C   LIG A   1      -5.416  -2.469 125.358  0.00  0.00    +0.000 C 
ENDROOT
BRANCH   1   2
ATOM      2  C   LIG A   1      -5.588  -2.215 123.861  0.00  0.00    +0.000 C 
BRANCH   2   3
ATOM      3  C   LIG A   1      -7.015  -2.401 123.343  0.00  0.00    +0.000 C 
BRANCH   3   4
ATOM      4  C   LIG A   1      -7.858  -3.479 124.041  0.00  0.00    +0.004 C 
BRANCH   4   5
ATOM      5  C   LIG A   1      -9.241  -3.075 124.535  0.00  0.00    +0.027 C 
BRANCH   5   7
ATOM      6  C   LIG A   1      -8.578  -3.566 126.894  0.00  0.00    -0.027 C 
ATOM      7  C   LIG A   1      -9.454  -3.086 126.031  0.00  0.00    -0.031 C 
BRANCH   6   8
ATOM      8  C   LIG A   1      -8.761  -3.723 128.385  0.00  0.00    +0.054 C 
BRANCH   8  10
ATOM      9  C   LIG A   1      -6.961  -2.602 129.813  0.00  0.00    -0.031 C 
ATOM     10  C   LIG A   1      -8.119  -2.591 129.130  0.00  0.00    -0.027 C 
BRANCH   9  11
ATOM     11  C   LIG A   1      -5.982  -3.740 129.942  0.00  0.00    +0.026 C 
BRANCH  11  13
ATOM     12  C   LIG A   1      -4.183  -1.977 129.587  0.00  0.00    +0.004 C 
ATOM     13  C   LIG A   1      -4.636  -3.401 129.292  0.00  0.00    +0.001 C 
ENDBRANCH  11  13
ENDBRANCH   9  11
ENDBRANCH   8  10
ENDBRANCH   6   8
ENDBRANCH   5   7
ENDBRANCH   4   5
ENDBRANCH   3   4
ENDBRANCH   2   3
ENDBRANCH   1   2
BRANCH   1  14
ATOM     14  C   LIG A   1      -5.848  -1.326 126.277  0.00  0.00    +0.005 C 
BRANCH  14  15
ATOM     15  C   LIG A   1      -5.692   0.088 125.690  0.00  0.00    +0.035 C 
BRANCH  15  16
ATOM     16  C   LIG A   1      -6.953   0.832 125.311  0.00  0.00    -0.041 A 
ATOM     17  C   LIG A   1      -6.910   2.042 124.599  0.00  0.00    +0.049 A 
ATOM     18  C   LIG A   1      -8.096   2.662 124.199  0.00  0.00    +0.121 A 
ATOM     19  C   LIG A   1      -9.336   2.116 124.511  0.00  0.00    +0.090 A 
ATOM     20  C   LIG A   1      -9.381   0.925 125.225  0.00  0.00    +0.121 A 
ATOM     21  C   LIG A   1      -8.209   0.284 125.623  0.00  0.00    +0.049 A 
BRANCH  18  22
ATOM     22  O   LIG A   1      -8.081   3.788 123.426  0.00  0.00    -0.507 OA
ATOM     23  H   LIG A   1      -8.582   3.612 122.613  0.00  0.00    +0.292 HD
ENDBRANCH  18  22
BRANCH  20  24
ATOM     24  O   LIG A   1     -10.568   0.337 125.548  0.00  0.00    -0.507 OA
ATOM     25  H   LIG A   1     -11.186   1.035 125.822  0.00  0.00    +0.292 HD
ENDBRANCH  20  24
ENDBRANCH  15  16
ENDBRANCH  14  15
ENDBRANCH   1  14
TORSDOF 14
ENDMDL
MODEL 3
REMARK VINA RESULT:      -5.8      1.541      2.529
REMARK  Name = NuBBE_1688
REMARK  15 active torsions:
REMARK  status: ('A' for Active; 'I' for Inactive)
REMARK    1  A    between atoms: C_1  and  C_2
REMARK    2  A    between atoms: C_2  and  C_3
REMARK    3  A    between atoms: C_3  and  C_4
REMARK    4  A    between atoms: C_5  and  C_6
REMARK    5  A    between atoms: C_6  and  C_7
REMARK    6  A    between atoms: C_8  and  C_9
REMARK    7  A    between atoms: C_9  and  C_10
REMARK    8  A    between atoms: C_10  and  C_11
REMARK    9  A    between atoms: C_11  and  C_12
REMARK   10  A    between atoms: C_12  and  C_13
REMARK   11  A    between atoms: C_13  and  C_14
REMARK   12  A    between atoms: C_14  and  C_15
REMARK   13  A    between atoms: C_15  and  C_16
REMARK   14  A    between atoms: C_18  and  O_19
REMARK   15  A    between atoms: C_21  and  O_22
REMARK                            x       y       z     vdW  Elec       q    Type
REMARK                         _______ _______ _______ _____ _____    ______ ____
ROOT
ATOM      1  C   LIG A   1      -5.677  -1.582 127.341  0.00  0.00    +0.000 C 
ENDROOT
BRANCH   1   2
ATOM      2  C   LIG A   1      -6.025  -1.874 128.800  0.00  0.00    +0.000 C 
BRANCH   2   3
ATOM      3  C   LIG A   1      -6.782  -3.183 129.025  0.00  0.00    +0.000 C 
BRANCH   3   4
ATOM      4  C   LIG A   1      -8.316  -3.100 128.974  0.00  0.00    +0.004 C 
BRANCH   4   5
ATOM      5  C   LIG A   1      -9.024  -3.894 127.884  0.00  0.00    +0.027 C 
BRANCH   5   7
ATOM      6  C   LIG A   1      -9.309  -3.059 125.546  0.00  0.00    -0.027 C 
ATOM      7  C   LIG A   1      -8.568  -3.648 126.466  0.00  0.00    -0.031 C 
BRANCH   6   8
ATOM      8  C   LIG A   1      -8.978  -2.882 124.084  0.00  0.00    +0.054 C 
BRANCH   8  10
ATOM      9  C   LIG A   1      -7.256  -1.174 123.274  0.00  0.00    -0.031 C 
ATOM     10  C   LIG A   1      -8.442  -1.508 123.814  0.00  0.00    -0.027 C 
BRANCH   9  11
ATOM     11  C   LIG A   1      -6.196  -2.102 122.741  0.00  0.00    +0.026 C 
BRANCH  11  13
ATOM     12  C   LIG A   1      -4.937  -4.014 123.849  0.00  0.00    +0.004 C 
ATOM     13  C   LIG A   1      -5.207  -2.515 123.837  0.00  0.00    +0.001 C 
ENDBRANCH  11  13
ENDBRANCH   9  11
ENDBRANCH   8  10
ENDBRANCH   6   8
ENDBRANCH   5   7
ENDBRANCH   4   5
ENDBRANCH   3   4
ENDBRANCH   2   3
ENDBRANCH   1   2
BRANCH   1  14
ATOM     14  C   LIG A   1      -6.340  -0.342 126.739  0.00  0.00    +0.005 C 
BRANCH  14  15
ATOM     15  C   LIG A   1      -5.403   0.592 125.954  0.00  0.00    +0.035 C 
BRANCH  15  16
ATOM     16  C   LIG A   1      -5.865   2.013 125.721  0.00  0.00    -0.041 A 
ATOM     17  C   LIG A   1      -5.274   3.100 126.384  0.00  0.00    +0.049 A 
ATOM     18  C   LIG A   1      -5.674   4.405 126.086  0.00  0.00    +0.121 A 
ATOM     19  C   LIG A   1      -6.674   4.657 125.153  0.00  0.00    +0.090 A 
ATOM     20  C   LIG A   1      -7.269   3.583 124.504  0.00  0.00    +0.121 A 
ATOM     21  C   LIG A   1      -6.875   2.273 124.777  0.00  0.00    +0.049 A 
BRANCH  18  22
ATOM     22  O   LIG A   1      -5.051   5.483 126.647  0.00  0.00    -0.507 OA
ATOM     23  H   LIG A   1      -4.317   5.751 126.070  0.00  0.00    +0.292 HD
ENDBRANCH  18  22
BRANCH  20  24
ATOM     24  O   LIG A   1      -8.245   3.770 123.570  0.00  0.00    -0.507 OA
ATOM     25  H   LIG A   1      -9.103   3.599 123.993  0.00  0.00    +0.292 HD
ENDBRANCH  20  24
ENDBRANCH  15  16
ENDBRANCH  14  15
ENDBRANCH   1  14
TORSDOF 14
ENDMDL
MODEL 4
REMARK VINA RESULT:      -5.7      1.430      4.695
REMARK  Name = NuBBE_1688
REMARK  15 active torsions:
REMARK  status: ('A' for Active; 'I' for Inactive)
REMARK    1  A    between atoms: C_1  and  C_2
REMARK    2  A    between atoms: C_2  and  C_3
REMARK    3  A    between atoms: C_3  and  C_4
REMARK    4  A    between atoms: C_5  and  C_6
REMARK    5  A    between atoms: C_6  and  C_7
REMARK    6  A    between atoms: C_8  and  C_9
REMARK    7  A    between atoms: C_9  and  C_10
REMARK    8  A    between atoms: C_10  and  C_11
REMARK    9  A    between atoms: C_11  and  C_12
REMARK   10  A    between atoms: C_12  and  C_13
REMARK   11  A    between atoms: C_13  and  C_14
REMARK   12  A    between atoms: C_14  and  C_15
REMARK   13  A    between atoms: C_15  and  C_16
REMARK   14  A    between atoms: C_18  and  O_19
REMARK   15  A    between atoms: C_21  and  O_22
REMARK                            x       y       z     vdW  Elec       q    Type
REMARK                         _______ _______ _______ _____ _____    ______ ____
ROOT
ATOM      1  C   LIG A   1      -5.758  -2.060 124.837  0.00  0.00    +0.000 C 
ENDROOT
BRANCH   1   2
ATOM      2  C   LIG A   1      -6.304  -1.931 123.415  0.00  0.00    +0.000 C 
BRANCH   2   3
ATOM      3  C   LIG A   1      -7.802  -2.208 123.280  0.00  0.00    +0.000 C 
BRANCH   3   4
ATOM      4  C   LIG A   1      -8.347  -3.405 124.074  0.00  0.00    +0.004 C 
BRANCH   4   5
ATOM      5  C   LIG A   1      -9.364  -3.114 125.170  0.00  0.00    +0.027 C 
BRANCH   5   7
ATOM      6  C   LIG A   1      -8.816  -3.659 127.546  0.00  0.00    -0.027 C 
ATOM      7  C   LIG A   1      -8.810  -2.805 126.540  0.00  0.00    -0.031 C 
BRANCH   6   8
ATOM      8  C   LIG A   1      -8.394  -3.392 128.971  0.00  0.00    +0.054 C 
BRANCH   8  10
ATOM      9  C   LIG A   1      -7.244  -1.240 129.734  0.00  0.00    -0.031 C 
ATOM     10  C   LIG A   1      -7.287  -2.383 129.026  0.00  0.00    -0.027 C 
BRANCH   9  11
ATOM     11  C   LIG A   1      -8.273  -0.722 130.705  0.00  0.00    +0.026 C 
BRANCH  11  13
ATOM     12  C   LIG A   1      -8.258   1.290 129.150  0.00  0.00    +0.004 C 
ATOM     13  C   LIG A   1      -8.456   0.794 130.576  0.00  0.00    +0.001 C 
ENDBRANCH  11  13
ENDBRANCH   9  11
ENDBRANCH   8  10
ENDBRANCH   6   8
ENDBRANCH   5   7
ENDBRANCH   4   5
ENDBRANCH   3   4
ENDBRANCH   2   3
ENDBRANCH   1   2
BRANCH   1  14
ATOM     14  C   LIG A   1      -5.417  -0.744 125.536  0.00  0.00    +0.005 C 
BRANCH  14  15
ATOM     15  C   LIG A   1      -6.604  -0.019 126.195  0.00  0.00    +0.035 C 
BRANCH  15  16
ATOM     16  C   LIG A   1      -7.397   0.945 125.343  0.00  0.00    -0.041 A 
ATOM     17  C   LIG A   1      -6.781   2.008 124.662  0.00  0.00    +0.049 A 
ATOM     18  C   LIG A   1      -7.534   2.832 123.823  0.00  0.00    +0.121 A 
ATOM     19  C   LIG A   1      -8.901   2.639 123.659  0.00  0.00    +0.090 A 
ATOM     20  C   LIG A   1      -9.515   1.596 124.341  0.00  0.00    +0.121 A 
ATOM     21  C   LIG A   1      -8.780   0.754 125.174  0.00  0.00    +0.049 A 
BRANCH  18  22
ATOM     22  O   LIG A   1      -6.943   3.812 123.076  0.00  0.00    -0.507 OA
ATOM     23  H   LIG A   1      -7.434   4.640 123.208  0.00  0.00    +0.292 HD
ENDBRANCH  18  22
BRANCH  20  24
ATOM     24  O   LIG A   1     -10.850   1.352 124.209  0.00  0.00    -0.507 OA
ATOM     25  H   LIG A   1     -11.269   1.492 125.075  0.00  0.00    +0.292 HD
ENDBRANCH  20  24
ENDBRANCH  15  16
ENDBRANCH  14  15
ENDBRANCH   1  14
TORSDOF 14
ENDMDL
MODEL 5
REMARK VINA RESULT:      -5.7      1.832      4.529
REMARK  Name = NuBBE_1688
REMARK  15 active torsions:
REMARK  status: ('A' for Active; 'I' for Inactive)
REMARK    1  A    between atoms: C_1  and  C_2
REMARK    2  A    between atoms: C_2  and  C_3
REMARK    3  A    between atoms: C_3  and  C_4
REMARK    4  A    between atoms: C_5  and  C_6
REMARK    5  A    between atoms: C_6  and  C_7
REMARK    6  A    between atoms: C_8  and  C_9
REMARK    7  A    between atoms: C_9  and  C_10
REMARK    8  A    between atoms: C_10  and  C_11
REMARK    9  A    between atoms: C_11  and  C_12
REMARK   10  A    between atoms: C_12  and  C_13
REMARK   11  A    between atoms: C_13  and  C_14
REMARK   12  A    between atoms: C_14  and  C_15
REMARK   13  A    between atoms: C_15  and  C_16
REMARK   14  A    between atoms: C_18  and  O_19
REMARK   15  A    between atoms: C_21  and  O_22
REMARK                            x       y       z     vdW  Elec       q    Type
REMARK                         _______ _______ _______ _____ _____    ______ ____
ROOT
ATOM      1  C   LIG A   1      -6.063  -2.654 124.940  0.00  0.00    +0.000 C 
ENDROOT
BRANCH   1   2
ATOM      2  C   LIG A   1      -7.225  -3.193 124.108  0.00  0.00    +0.000 C 
BRANCH   2   3
ATOM      3  C   LIG A   1      -8.274  -3.970 124.905  0.00  0.00    +0.000 C 
BRANCH   3   4
ATOM      4  C   LIG A   1      -9.101  -3.158 125.913  0.00  0.00    +0.004 C 
BRANCH   4   5
ATOM      5  C   LIG A   1      -9.053  -3.594 127.371  0.00  0.00    +0.027 C 
BRANCH   5   7
ATOM      6  C   LIG A   1      -7.318  -2.039 128.274  0.00  0.00    -0.027 C 
ATOM      7  C   LIG A   1      -7.792  -3.263 128.134  0.00  0.00    -0.031 C 
BRANCH   6   8
ATOM      8  C   LIG A   1      -6.011  -1.636 128.914  0.00  0.00    +0.054 C 
BRANCH   8  10
ATOM      9  C   LIG A   1      -4.142  -3.342 129.275  0.00  0.00    -0.031 C 
ATOM     10  C   LIG A   1      -4.900  -2.551 128.495  0.00  0.00    -0.027 C 
BRANCH   9  11
ATOM     11  C   LIG A   1      -4.266  -3.558 130.761  0.00  0.00    +0.026 C 
BRANCH  11  13
ATOM     12  C   LIG A   1      -5.201  -5.317 132.343  0.00  0.00    +0.004 C 
ATOM     13  C   LIG A   1      -5.449  -4.472 131.100  0.00  0.00    +0.001 C 
ENDBRANCH  11  13
ENDBRANCH   9  11
ENDBRANCH   8  10
ENDBRANCH   6   8
ENDBRANCH   5   7
ENDBRANCH   4   5
ENDBRANCH   3   4
ENDBRANCH   2   3
ENDBRANCH   1   2
BRANCH   1  14
ATOM     14  C   LIG A   1      -5.816  -1.148 124.835  0.00  0.00    +0.005 C 
BRANCH  14  15
ATOM     15  C   LIG A   1      -6.891  -0.256 125.481  0.00  0.00    +0.035 C 
BRANCH  15  16
ATOM     16  C   LIG A   1      -7.757   0.575 124.561  0.00  0.00    -0.041 A 
ATOM     17  C   LIG A   1      -7.434   1.904 124.243  0.00  0.00    +0.049 A 
ATOM     18  C   LIG A   1      -8.216   2.615 123.330  0.00  0.00    +0.121 A 
ATOM     19  C   LIG A   1      -9.334   2.041 122.737  0.00  0.00    +0.090 A 
ATOM     20  C   LIG A   1      -9.663   0.730 123.059  0.00  0.00    +0.121 A 
ATOM     21  C   LIG A   1      -8.889  -0.002 123.958  0.00  0.00    +0.049 A 
BRANCH  18  22
ATOM     22  O   LIG A   1      -7.870   3.875 122.932  0.00  0.00    -0.507 OA
ATOM     23  H   LIG A   1      -7.625   4.392 123.717  0.00  0.00    +0.292 HD
ENDBRANCH  18  22
BRANCH  20  24
ATOM     24  O   LIG A   1     -10.742   0.111 122.499  0.00  0.00    -0.507 OA
ATOM     25  H   LIG A   1     -10.415  -0.546 121.863  0.00  0.00    +0.292 HD
ENDBRANCH  20  24
ENDBRANCH  15  16
ENDBRANCH  14  15
ENDBRANCH   1  14
TORSDOF 14
ENDMDL
MODEL 6
REMARK VINA RESULT:      -5.7      1.703      3.143
REMARK  Name = NuBBE_1688
REMARK  15 active torsions:
REMARK  status: ('A' for Active; 'I' for Inactive)
REMARK    1  A    between atoms: C_1  and  C_2
REMARK    2  A    between atoms: C_2  and  C_3
REMARK    3  A    between atoms: C_3  and  C_4
REMARK    4  A    between atoms: C_5  and  C_6
REMARK    5  A    between atoms: C_6  and  C_7
REMARK    6  A    between atoms: C_8  and  C_9
REMARK    7  A    between atoms: C_9  and  C_10
REMARK    8  A    between atoms: C_10  and  C_11
REMARK    9  A    between atoms: C_11  and  C_12
REMARK   10  A    between atoms: C_12  and  C_13
REMARK   11  A    between atoms: C_13  and  C_14
REMARK   12  A    between atoms: C_14  and  C_15
REMARK   13  A    between atoms: C_15  and  C_16
REMARK   14  A    between atoms: C_18  and  O_19
REMARK   15  A    between atoms: C_21  and  O_22
REMARK                            x       y       z     vdW  Elec       q    Type
REMARK                         _______ _______ _______ _____ _____    ______ ____
ROOT
ATOM      1  C   LIG A   1      -8.454   1.794 129.383  0.00  0.00    +0.000 C 
ENDROOT
BRANCH   1   2
ATOM      2  C   LIG A   1      -7.645   0.944 130.362  0.00  0.00    +0.000 C 
BRANCH   2   3
ATOM      3  C   LIG A   1      -8.146  -0.492 130.525  0.00  0.00    +0.000 C 
BRANCH   3   4
ATOM      4  C   LIG A   1      -7.162  -1.605 130.134  0.00  0.00    +0.004 C 
BRANCH   4   5
ATOM      5  C   LIG A   1      -7.723  -3.012 129.976  0.00  0.00    +0.027 C 
BRANCH   5   7
ATOM      6  C   LIG A   1      -8.303  -2.621 127.577  0.00  0.00    -0.027 C 
ATOM      7  C   LIG A   1      -8.471  -3.301 128.696  0.00  0.00    -0.031 C 
BRANCH   6   8
ATOM      8  C   LIG A   1      -9.089  -2.766 126.296  0.00  0.00    +0.054 C 
BRANCH   8  10
ATOM      9  C   LIG A   1      -8.180  -3.552 124.040  0.00  0.00    -0.031 C 
ATOM     10  C   LIG A   1      -8.416  -3.718 125.353  0.00  0.00    -0.027 C 
BRANCH   9  11
ATOM     11  C   LIG A   1      -8.473  -2.336 123.200  0.00  0.00    +0.026 C 
BRANCH  11  13
ATOM     12  C   LIG A   1      -6.546  -0.946 124.106  0.00  0.00    +0.004 C 
ATOM     13  C   LIG A   1      -7.194  -1.558 122.872  0.00  0.00    +0.001 C 
ENDBRANCH  11  13
ENDBRANCH   9  11
ENDBRANCH   8  10
ENDBRANCH   6   8
ENDBRANCH   5   7
ENDBRANCH   4   5
ENDBRANCH   3   4
ENDBRANCH   2   3
ENDBRANCH   1   2
BRANCH   1  14
ATOM     14  C   LIG A   1      -8.000   1.735 127.925  0.00  0.00    +0.005 C 
BRANCH  14  15
ATOM     15  C   LIG A   1      -8.920   0.945 126.978  0.00  0.00    +0.035 C 
BRANCH  15  16
ATOM     16  C   LIG A   1      -9.024   1.418 125.545  0.00  0.00    -0.041 A 
ATOM     17  C   LIG A   1      -8.253   2.488 125.063  0.00  0.00    +0.049 A 
ATOM     18  C   LIG A   1      -8.319   2.847 123.715  0.00  0.00    +0.121 A 
ATOM     19  C   LIG A   1      -9.158   2.178 122.830  0.00  0.00    +0.090 A 
ATOM     20  C   LIG A   1      -9.930   1.127 123.308  0.00  0.00    +0.121 A 
ATOM     21  C   LIG A   1      -9.870   0.743 124.647  0.00  0.00    +0.049 A 
BRANCH  18  22
ATOM     22  O   LIG A   1      -7.511   3.821 123.200  0.00  0.00    -0.507 OA
ATOM     23  H   LIG A   1      -7.987   4.667 123.233  0.00  0.00    +0.292 HD
ENDBRANCH  18  22
BRANCH  20  24
ATOM     24  O   LIG A   1     -10.761   0.426 122.484  0.00  0.00    -0.507 OA
ATOM     25  H   LIG A   1     -10.316   0.319 121.627  0.00  0.00    +0.292 HD
ENDBRANCH  20  24
ENDBRANCH  15  16
ENDBRANCH  14  15
ENDBRANCH   1  14
TORSDOF 14
ENDMDL
MODEL 7
REMARK VINA RESULT:      -5.5      2.173      4.805
REMARK  Name = NuBBE_1688
REMARK  15 active torsions:
REMARK  status: ('A' for Active; 'I' for Inactive)
REMARK    1  A    between atoms: C_1  and  C_2
REMARK    2  A    between atoms: C_2  and  C_3
REMARK    3  A    between atoms: C_3  and  C_4
REMARK    4  A    between atoms: C_5  and  C_6
REMARK    5  A    between atoms: C_6  and  C_7
REMARK    6  A    between atoms: C_8  and  C_9
REMARK    7  A    between atoms: C_9  and  C_10
REMARK    8  A    between atoms: C_10  and  C_11
REMARK    9  A    between atoms: C_11  and  C_12
REMARK   10  A    between atoms: C_12  and  C_13
REMARK   11  A    between atoms: C_13  and  C_14
REMARK   12  A    between atoms: C_14  and  C_15
REMARK   13  A    between atoms: C_15  and  C_16
REMARK   14  A    between atoms: C_18  and  O_19
REMARK   15  A    between atoms: C_21  and  O_22
REMARK                            x       y       z     vdW  Elec       q    Type
REMARK                         _______ _______ _______ _____ _____    ______ ____
ROOT
ATOM      1  C   LIG A   1      -7.525  -3.247 130.325  0.00  0.00    +0.000 C 
ENDROOT
BRANCH   1   2
ATOM      2  C   LIG A   1      -6.299  -4.093 129.981  0.00  0.00    +0.000 C 
BRANCH   2   3
ATOM      3  C   LIG A   1      -4.966  -3.348 130.067  0.00  0.00    +0.000 C 
BRANCH   3   4
ATOM      4  C   LIG A   1      -4.655  -2.375 128.919  0.00  0.00    +0.004 C 
BRANCH   4   5
ATOM      5  C   LIG A   1      -4.915  -0.894 129.167  0.00  0.00    +0.027 C 
BRANCH   5   7
ATOM      6  C   LIG A   1      -6.731   0.500 128.165  0.00  0.00    -0.027 C 
ATOM      7  C   LIG A   1      -5.576  -0.128 128.046  0.00  0.00    -0.031 C 
BRANCH   6   8
ATOM      8  C   LIG A   1      -7.513   1.184 127.069  0.00  0.00    +0.054 C 
BRANCH   8  10
ATOM      9  C   LIG A   1      -9.580   0.592 125.687  0.00  0.00    -0.031 C 
ATOM     10  C   LIG A   1      -8.761   0.421 126.740  0.00  0.00    -0.027 C 
BRANCH   9  11
ATOM     11  C   LIG A   1      -9.410   1.548 124.535  0.00  0.00    +0.026 C 
BRANCH  11  13
ATOM     12  C   LIG A   1      -7.149   1.546 123.370  0.00  0.00    +0.004 C 
ATOM     13  C   LIG A   1      -8.546   0.942 123.424  0.00  0.00    +0.001 C 
ENDBRANCH  11  13
ENDBRANCH   9  11
ENDBRANCH   8  10
ENDBRANCH   6   8
ENDBRANCH   5   7
ENDBRANCH   4   5
ENDBRANCH   3   4
ENDBRANCH   2   3
ENDBRANCH   1   2
BRANCH   1  14
ATOM     14  C   LIG A   1      -8.248  -2.617 129.135  0.00  0.00    +0.005 C 
BRANCH  14  15
ATOM     15  C   LIG A   1      -8.714  -3.601 128.048  0.00  0.00    +0.035 C 
BRANCH  15  16
ATOM     16  C   LIG A   1      -8.424  -3.244 126.608  0.00  0.00    -0.041 A 
ATOM     17  C   LIG A   1      -9.407  -3.339 125.610  0.00  0.00    +0.049 A 
ATOM     18  C   LIG A   1      -9.124  -2.928 124.306  0.00  0.00    +0.121 A 
ATOM     19  C   LIG A   1      -7.869  -2.440 123.960  0.00  0.00    +0.090 A 
ATOM     20  C   LIG A   1      -6.890  -2.357 124.942  0.00  0.00    +0.121 A 
ATOM     21  C   LIG A   1      -7.156  -2.750 126.253  0.00  0.00    +0.049 A 
BRANCH  18  22
ATOM     22  O   LIG A   1     -10.090  -2.921 123.339  0.00  0.00    -0.507 OA
ATOM     23  H   LIG A   1     -10.064  -3.771 122.870  0.00  0.00    +0.292 HD
ENDBRANCH  18  22
BRANCH  20  24
ATOM     24  O   LIG A   1      -5.645  -1.875 124.663  0.00  0.00    -0.507 OA
ATOM     25  H   LIG A   1      -5.129  -1.880 125.487  0.00  0.00    +0.292 HD
ENDBRANCH  20  24
ENDBRANCH  15  16
ENDBRANCH  14  15
ENDBRANCH   1  14
TORSDOF 14
ENDMDL
MODEL 8
REMARK VINA RESULT:      -5.5      5.023      5.452
REMARK  Name = NuBBE_1688
REMARK  15 active torsions:
REMARK  status: ('A' for Active; 'I' for Inactive)
REMARK    1  A    between atoms: C_1  and  C_2
REMARK    2  A    between atoms: C_2  and  C_3
REMARK    3  A    between atoms: C_3  and  C_4
REMARK    4  A    between atoms: C_5  and  C_6
REMARK    5  A    between atoms: C_6  and  C_7
REMARK    6  A    between atoms: C_8  and  C_9
REMARK    7  A    between atoms: C_9  and  C_10
REMARK    8  A    between atoms: C_10  and  C_11
REMARK    9  A    between atoms: C_11  and  C_12
REMARK   10  A    between atoms: C_12  and  C_13
REMARK   11  A    between atoms: C_13  and  C_14
REMARK   12  A    between atoms: C_14  and  C_15
REMARK   13  A    between atoms: C_15  and  C_16
REMARK   14  A    between atoms: C_18  and  O_19
REMARK   15  A    between atoms: C_21  and  O_22
REMARK                            x       y       z     vdW  Elec       q    Type
REMARK                         _______ _______ _______ _____ _____    ______ ____
ROOT
ATOM      1  C   LIG A   1      -8.764  -0.175 131.579  0.00  0.00    +0.000 C 
ENDROOT
BRANCH   1   2
ATOM      2  C   LIG A   1      -7.248  -0.190 131.386  0.00  0.00    +0.000 C 
BRANCH   2   3
ATOM      3  C   LIG A   1      -6.712  -1.412 130.639  0.00  0.00    +0.000 C 
BRANCH   3   4
ATOM      4  C   LIG A   1      -7.581  -2.677 130.692  0.00  0.00    +0.004 C 
BRANCH   4   5
ATOM      5  C   LIG A   1      -7.542  -3.605 129.485  0.00  0.00    +0.027 C 
BRANCH   5   7
ATOM      6  C   LIG A   1      -8.782  -3.447 127.322  0.00  0.00    -0.027 C 
ATOM      7  C   LIG A   1      -7.861  -2.985 128.146  0.00  0.00    -0.031 C 
BRANCH   6   8
ATOM      8  C   LIG A   1      -9.080  -2.962 125.923  0.00  0.00    +0.054 C 
BRANCH   8  10
ATOM      9  C   LIG A   1      -7.252  -3.763 124.326  0.00  0.00    -0.031 C 
ATOM     10  C   LIG A   1      -8.466  -3.865 124.896  0.00  0.00    -0.027 C 
BRANCH   9  11
ATOM     11  C   LIG A   1      -6.176  -2.753 124.630  0.00  0.00    +0.026 C 
BRANCH  11  13
ATOM     12  C   LIG A   1      -4.536  -4.466 123.711  0.00  0.00    +0.004 C 
ATOM     13  C   LIG A   1      -4.921  -2.995 123.783  0.00  0.00    +0.001 C 
ENDBRANCH  11  13
ENDBRANCH   9  11
ENDBRANCH   8  10
ENDBRANCH   6   8
ENDBRANCH   5   7
ENDBRANCH   4   5
ENDBRANCH   3   4
ENDBRANCH   2   3
ENDBRANCH   1   2
BRANCH   1  14
ATOM     14  C   LIG A   1      -9.377   1.192 131.886  0.00  0.00    +0.005 C 
BRANCH  14  15
ATOM     15  C   LIG A   1      -8.868   2.355 131.019  0.00  0.00    +0.035 C 
BRANCH  15  16
ATOM     16  C   LIG A   1      -9.598   3.676 131.119  0.00  0.00    -0.041 A 
ATOM     17  C   LIG A   1     -10.532   4.079 130.151  0.00  0.00    +0.049 A 
ATOM     18  C   LIG A   1     -11.243   5.270 130.317  0.00  0.00    +0.121 A 
ATOM     19  C   LIG A   1     -11.030   6.089 131.420  0.00  0.00    +0.090 A 
ATOM     20  C   LIG A   1     -10.098   5.699 132.373  0.00  0.00    +0.121 A 
ATOM     21  C   LIG A   1      -9.386   4.508 132.233  0.00  0.00    +0.049 A 
BRANCH  18  22
ATOM     22  O   LIG A   1     -12.223   5.638 129.440  0.00  0.00    -0.507 OA
ATOM     23  H   LIG A   1     -13.051   5.200 129.699  0.00  0.00    +0.292 HD
ENDBRANCH  18  22
BRANCH  20  24
ATOM     24  O   LIG A   1      -9.856   6.457 133.481  0.00  0.00    -0.507 OA
ATOM     25  H   LIG A   1      -8.968   6.238 133.807  0.00  0.00    +0.292 HD
ENDBRANCH  20  24
ENDBRANCH  15  16
ENDBRANCH  14  15
ENDBRANCH   1  14
TORSDOF 14
ENDMDL
MODEL 9
REMARK VINA RESULT:      -5.4      7.869     10.472
REMARK  Name = NuBBE_1688
REMARK  15 active torsions:
REMARK  status: ('A' for Active; 'I' for Inactive)
REMARK    1  A    between atoms: C_1  and  C_2
REMARK    2  A    between atoms: C_2  and  C_3
REMARK    3  A    between atoms: C_3  and  C_4
REMARK    4  A    between atoms: C_5  and  C_6
REMARK    5  A    between atoms: C_6  and  C_7
REMARK    6  A    between atoms: C_8  and  C_9
REMARK    7  A    between atoms: C_9  and  C_10
REMARK    8  A    between atoms: C_10  and  C_11
REMARK    9  A    between atoms: C_11  and  C_12
REMARK   10  A    between atoms: C_12  and  C_13
REMARK   11  A    between atoms: C_13  and  C_14
REMARK   12  A    between atoms: C_14  and  C_15
REMARK   13  A    between atoms: C_15  and  C_16
REMARK   14  A    between atoms: C_18  and  O_19
REMARK   15  A    between atoms: C_21  and  O_22
REMARK                            x       y       z     vdW  Elec       q    Type
REMARK                         _______ _______ _______ _____ _____    ______ ____
ROOT
ATOM      1  C   LIG A   1      -8.336   2.635 133.340  0.00  0.00    +0.000 C 
ENDROOT
BRANCH   1   2
ATOM      2  C   LIG A   1      -9.316   1.881 132.442  0.00  0.00    +0.000 C 
BRANCH   2   3
ATOM      3  C   LIG A   1      -9.117   2.114 130.944  0.00  0.00    +0.000 C 
BRANCH   3   4
ATOM      4  C   LIG A   1      -9.378   3.540 130.436  0.00  0.00    +0.004 C 
BRANCH   4   5
ATOM      5  C   LIG A   1     -10.828   4.002 130.360  0.00  0.00    +0.027 C 
BRANCH   5   7
ATOM      6  C   LIG A   1     -12.051   6.079 131.020  0.00  0.00    -0.027 C 
ATOM      7  C   LIG A   1     -11.063   5.493 130.369  0.00  0.00    -0.031 C 
BRANCH   6   8
ATOM      8  C   LIG A   1     -12.425   7.541 130.985  0.00  0.00    +0.054 C 
BRANCH   8  10
ATOM      9  C   LIG A   1     -12.146   8.714 128.730  0.00  0.00    -0.031 C 
ATOM     10  C   LIG A   1     -11.674   8.264 129.906  0.00  0.00    -0.027 C 
BRANCH   9  11
ATOM     11  C   LIG A   1     -13.567   8.663 128.230  0.00  0.00    +0.026 C 
BRANCH  11  13
ATOM     12  C   LIG A   1     -12.593   6.862 126.721  0.00  0.00    +0.004 C 
ATOM     13  C   LIG A   1     -13.836   7.386 127.427  0.00  0.00    +0.001 C 
ENDBRANCH  11  13
ENDBRANCH   9  11
ENDBRANCH   8  10
ENDBRANCH   6   8
ENDBRANCH   5   7
ENDBRANCH   4   5
ENDBRANCH   3   4
ENDBRANCH   2   3
ENDBRANCH   1   2
BRANCH   1  14
ATOM     14  C   LIG A   1      -8.918   3.832 134.094  0.00  0.00    +0.005 C 
BRANCH  14  15
ATOM     15  C   LIG A   1      -7.916   4.948 134.435  0.00  0.00    +0.035 C 
BRANCH  15  16
ATOM     16  C   LIG A   1      -7.241   5.660 133.283  0.00  0.00    -0.041 A 
ATOM     17  C   LIG A   1      -5.843   5.709 133.163  0.00  0.00    +0.049 A 
ATOM     18  C   LIG A   1      -5.257   6.308 132.046  0.00  0.00    +0.121 A 
ATOM     19  C   LIG A   1      -6.032   6.886 131.047  0.00  0.00    +0.090 A 
ATOM     20  C   LIG A   1      -7.415   6.850 131.170  0.00  0.00    +0.121 A 
ATOM     21  C   LIG A   1      -8.021   6.245 132.270  0.00  0.00    +0.049 A 
BRANCH  18  22
ATOM     22  O   LIG A   1      -3.904   6.286 131.858  0.00  0.00    -0.507 OA
ATOM     23  H   LIG A   1      -3.655   7.050 131.313  0.00  0.00    +0.292 HD
ENDBRANCH  18  22
BRANCH  20  24
ATOM     24  O   LIG A   1      -8.227   7.389 130.215  0.00  0.00    -0.507 OA
ATOM     25  H   LIG A   1      -8.505   8.269 130.520  0.00  0.00    +0.292 HD
ENDBRANCH  20  24
ENDBRANCH  15  16
ENDBRANCH  14  15
ENDBRANCH   1  14
TORSDOF 14
ENDMDL
