MODEL 1
REMARK VINA RESULT:      -6.3      0.000      0.000
REMARK  Name = NuBBE_1069
REMARK  2 active torsions:
REMARK  status: ('A' for Active; 'I' for Inactive)
REMARK    1  A    between atoms: C_5  and  O_6
REMARK    2  A    between atoms: O_6  and  C_7
REMARK                            x       y       z     vdW  Elec       q    Type
REMARK                         _______ _______ _______ _____ _____    ______ ____
ROOT
ATOM      1  O   LIG A   1      -6.066  -2.717 130.395  0.00  0.00    -0.245 OA
ATOM      2  C   LIG A   1      -6.746  -2.838 129.382  0.00  0.00    +0.337 A 
ATOM      3  O   LIG A   1      -6.348  -2.352 128.148  0.00  0.00    -0.418 OA
ATOM      4  C   LIG A   1      -7.147  -2.499 126.982  0.00  0.00    +0.184 A 
ATOM      5  C   LIG A   1      -6.640  -1.963 125.785  0.00  0.00    +0.206 A 
ATOM      6  C   LIG A   1      -7.462  -2.137 124.661  0.00  0.00    +0.180 A 
ATOM      7  C   LIG A   1      -8.698  -2.785 124.697  0.00  0.00    +0.025 A 
ATOM      8  C   LIG A   1      -9.204  -2.749 123.370  0.00  0.00    +0.050 A 
ATOM      9  C   LIG A   1      -8.263  -2.095 122.613  0.00  0.00    +0.196 A 
ATOM     10  O   LIG A   1      -7.210  -1.723 123.382  0.00  0.00    -0.459 OA
ATOM     11  C   LIG A   1      -9.168  -3.303 125.920  0.00  0.00    +0.023 A 
ATOM     12  C   LIG A   1      -8.378  -3.155 127.068  0.00  0.00    +0.022 A 
ATOM     13  C   LIG A   1      -8.820  -3.674 128.352  0.00  0.00    +0.019 A 
ATOM     14  C   LIG A   1      -8.050  -3.521 129.433  0.00  0.00    +0.092 A 
ENDROOT
BRANCH   5  15
ATOM     15  O   LIG A   1      -5.405  -1.343 125.853  0.00  0.00    -0.488 OA
ATOM     16  C   LIG A   1      -5.411   0.076 125.919  0.00  0.00    +0.277 C 
ENDBRANCH   5  15
TORSDOF 1
ENDMDL
MODEL 2
REMARK VINA RESULT:      -6.2      9.007     10.721
REMARK  Name = NuBBE_1069
REMARK  2 active torsions:
REMARK  status: ('A' for Active; 'I' for Inactive)
REMARK    1  A    between atoms: C_5  and  O_6
REMARK    2  A    between atoms: O_6  and  C_7
REMARK                            x       y       z     vdW  Elec       q    Type
REMARK                         _______ _______ _______ _____ _____    ______ ____
ROOT
ATOM      1  O   LIG A   1     -10.890   7.682 125.704  0.00  0.00    -0.245 OA
ATOM      2  C   LIG A   1     -10.872   7.506 126.917  0.00  0.00    +0.337 A 
ATOM      3  O   LIG A   1      -9.962   6.667 127.540  0.00  0.00    -0.418 OA
ATOM      4  C   LIG A   1      -9.952   6.473 128.947  0.00  0.00    +0.184 A 
ATOM      5  C   LIG A   1      -8.983   5.596 129.467  0.00  0.00    +0.206 A 
ATOM      6  C   LIG A   1      -9.010   5.440 130.862  0.00  0.00    +0.180 A 
ATOM      7  C   LIG A   1      -9.921   6.090 131.697  0.00  0.00    +0.025 A 
ATOM      8  C   LIG A   1      -9.617   5.667 133.019  0.00  0.00    +0.050 A 
ATOM      9  C   LIG A   1      -8.556   4.801 132.916  0.00  0.00    +0.196 A 
ATOM     10  O   LIG A   1      -8.184   4.659 131.621  0.00  0.00    -0.459 OA
ATOM     11  C   LIG A   1     -10.877   6.956 131.131  0.00  0.00    +0.023 A 
ATOM     12  C   LIG A   1     -10.884   7.144 129.743  0.00  0.00    +0.022 A 
ATOM     13  C   LIG A   1     -11.851   8.030 129.114  0.00  0.00    +0.019 A 
ATOM     14  C   LIG A   1     -11.839   8.194 127.788  0.00  0.00    +0.092 A 
ENDROOT
BRANCH   5  15
ATOM     15  O   LIG A   1      -8.126   5.004 128.557  0.00  0.00    -0.488 OA
ATOM     16  C   LIG A   1      -8.130   3.584 128.513  0.00  0.00    +0.277 C 
ENDBRANCH   5  15
TORSDOF 1
ENDMDL
MODEL 3
REMARK VINA RESULT:      -6.0      0.914      4.608
REMARK  Name = NuBBE_1069
REMARK  2 active torsions:
REMARK  status: ('A' for Active; 'I' for Inactive)
REMARK    1  A    between atoms: C_5  and  O_6
REMARK    2  A    between atoms: O_6  and  C_7
REMARK                            x       y       z     vdW  Elec       q    Type
REMARK                         _______ _______ _______ _____ _____    ______ ____
ROOT
ATOM      1  O   LIG A   1      -6.948  -1.838 122.134  0.00  0.00    -0.245 OA
ATOM      2  C   LIG A   1      -7.385  -2.196 123.222  0.00  0.00    +0.337 A 
ATOM      3  O   LIG A   1      -6.748  -1.908 124.417  0.00  0.00    -0.418 OA
ATOM      4  C   LIG A   1      -7.266  -2.328 125.672  0.00  0.00    +0.184 A 
ATOM      5  C   LIG A   1      -6.531  -1.979 126.819  0.00  0.00    +0.206 A 
ATOM      6  C   LIG A   1      -7.085  -2.412 128.034  0.00  0.00    +0.180 A 
ATOM      7  C   LIG A   1      -8.272  -3.140 128.129  0.00  0.00    +0.025 A 
ATOM      8  C   LIG A   1      -8.481  -3.379 129.514  0.00  0.00    +0.050 A 
ATOM      9  C   LIG A   1      -7.429  -2.791 130.173  0.00  0.00    +0.196 A 
ATOM     10  O   LIG A   1      -6.583  -2.206 129.289  0.00  0.00    -0.459 OA
ATOM     11  C   LIG A   1      -8.972  -3.471 126.953  0.00  0.00    +0.023 A 
ATOM     12  C   LIG A   1      -8.458  -3.056 125.717  0.00  0.00    +0.022 A 
ATOM     13  C   LIG A   1      -9.147  -3.373 124.476  0.00  0.00    +0.019 A 
ATOM     14  C   LIG A   1      -8.637  -2.966 123.310  0.00  0.00    +0.092 A 
ENDROOT
BRANCH   5  15
ATOM     15  O   LIG A   1      -5.370  -1.254 126.619  0.00  0.00    -0.488 OA
ATOM     16  C   LIG A   1      -5.445   0.144 126.859  0.00  0.00    +0.277 C 
ENDBRANCH   5  15
TORSDOF 1
ENDMDL
MODEL 4
REMARK VINA RESULT:      -5.8     10.258     11.354
REMARK  Name = NuBBE_1069
REMARK  2 active torsions:
REMARK  status: ('A' for Active; 'I' for Inactive)
REMARK    1  A    between atoms: C_5  and  O_6
REMARK    2  A    between atoms: O_6  and  C_7
REMARK                            x       y       z     vdW  Elec       q    Type
REMARK                         _______ _______ _______ _____ _____    ______ ____
ROOT
ATOM      1  O   LIG A   1     -12.433   6.302 131.679  0.00  0.00    -0.245 OA
ATOM      2  C   LIG A   1     -11.233   6.463 131.486  0.00  0.00    +0.337 A 
ATOM      3  O   LIG A   1     -10.264   6.013 132.367  0.00  0.00    -0.418 OA
ATOM      4  C   LIG A   1      -8.877   6.206 132.130  0.00  0.00    +0.184 A 
ATOM      5  C   LIG A   1      -7.985   5.707 133.096  0.00  0.00    +0.206 A 
ATOM      6  C   LIG A   1      -6.626   5.917 132.816  0.00  0.00    +0.180 A 
ATOM      7  C   LIG A   1      -6.163   6.573 131.674  0.00  0.00    +0.025 A 
ATOM      8  C   LIG A   1      -4.744   6.577 131.767  0.00  0.00    +0.050 A 
ATOM      9  C   LIG A   1      -4.430   5.934 132.939  0.00  0.00    +0.196 A 
ATOM     10  O   LIG A   1      -5.557   5.532 133.577  0.00  0.00    -0.459 OA
ATOM     11  C   LIG A   1      -7.093   7.059 130.735  0.00  0.00    +0.023 A 
ATOM     12  C   LIG A   1      -8.460   6.869 130.972  0.00  0.00    +0.022 A 
ATOM     13  C   LIG A   1      -9.458   7.352 130.031  0.00  0.00    +0.019 A 
ATOM     14  C   LIG A   1     -10.756   7.158 130.279  0.00  0.00    +0.092 A 
ENDROOT
BRANCH   5  15
ATOM     15  O   LIG A   1      -8.544   5.070 134.190  0.00  0.00    -0.488 OA
ATOM     16  C   LIG A   1      -8.643   3.655 134.119  0.00  0.00    +0.277 C 
ENDBRANCH   5  15
TORSDOF 1
ENDMDL
MODEL 5
REMARK VINA RESULT:      -5.8      9.079     10.115
REMARK  Name = NuBBE_1069
REMARK  2 active torsions:
REMARK  status: ('A' for Active; 'I' for Inactive)
REMARK    1  A    between atoms: C_5  and  O_6
REMARK    2  A    between atoms: O_6  and  C_7
REMARK                            x       y       z     vdW  Elec       q    Type
REMARK                         _______ _______ _______ _____ _____    ______ ____
ROOT
ATOM      1  O   LIG A   1      -7.147   3.893 127.295  0.00  0.00    -0.245 OA
ATOM      2  C   LIG A   1      -7.996   4.216 128.119  0.00  0.00    +0.337 A 
ATOM      3  O   LIG A   1      -8.739   5.380 128.014  0.00  0.00    -0.418 OA
ATOM      4  C   LIG A   1      -9.720   5.742 128.976  0.00  0.00    +0.184 A 
ATOM      5  C   LIG A   1     -10.411   6.948 128.766  0.00  0.00    +0.206 A 
ATOM      6  C   LIG A   1     -11.373   7.260 129.739  0.00  0.00    +0.180 A 
ATOM      7  C   LIG A   1     -11.642   6.456 130.848  0.00  0.00    +0.025 A 
ATOM      8  C   LIG A   1     -12.667   7.118 131.578  0.00  0.00    +0.050 A 
ATOM      9  C   LIG A   1     -12.958   8.266 130.884  0.00  0.00    +0.196 A 
ATOM     10  O   LIG A   1     -12.184   8.360 129.775  0.00  0.00    -0.459 OA
ATOM     11  C   LIG A   1     -10.922   5.257 131.020  0.00  0.00    +0.023 A 
ATOM     12  C   LIG A   1      -9.955   4.905 130.070  0.00  0.00    +0.022 A 
ATOM     13  C   LIG A   1      -9.188   3.676 130.205  0.00  0.00    +0.019 A 
ATOM     14  C   LIG A   1      -8.271   3.361 129.286  0.00  0.00    +0.092 A 
ENDROOT
BRANCH   5  15
ATOM     15  O   LIG A   1     -10.072   7.672 127.636  0.00  0.00    -0.488 OA
ATOM     16  C   LIG A   1     -11.023   7.684 126.581  0.00  0.00    +0.277 C 
ENDBRANCH   5  15
TORSDOF 1
ENDMDL
MODEL 6
REMARK VINA RESULT:      -5.7      7.889      8.913
REMARK  Name = NuBBE_1069
REMARK  2 active torsions:
REMARK  status: ('A' for Active; 'I' for Inactive)
REMARK    1  A    between atoms: C_5  and  O_6
REMARK    2  A    between atoms: O_6  and  C_7
REMARK                            x       y       z     vdW  Elec       q    Type
REMARK                         _______ _______ _______ _____ _____    ______ ____
ROOT
ATOM      1  O   LIG A   1      -7.936   1.426 133.169  0.00  0.00    -0.245 OA
ATOM      2  C   LIG A   1      -8.374   2.516 132.821  0.00  0.00    +0.337 A 
ATOM      3  O   LIG A   1      -8.513   2.879 131.491  0.00  0.00    -0.418 OA
ATOM      4  C   LIG A   1      -9.023   4.146 131.101  0.00  0.00    +0.184 A 
ATOM      5  C   LIG A   1      -9.118   4.404 129.722  0.00  0.00    +0.206 A 
ATOM      6  C   LIG A   1      -9.632   5.666 129.387  0.00  0.00    +0.180 A 
ATOM      7  C   LIG A   1     -10.024   6.619 130.329  0.00  0.00    +0.025 A 
ATOM      8  C   LIG A   1     -10.479   7.744 129.589  0.00  0.00    +0.050 A 
ATOM      9  C   LIG A   1     -10.342   7.417 128.262  0.00  0.00    +0.196 A 
ATOM     10  O   LIG A   1      -9.833   6.168 128.131  0.00  0.00    -0.459 OA
ATOM     11  C   LIG A   1      -9.907   6.319 131.700  0.00  0.00    +0.023 A 
ATOM     12  C   LIG A   1      -9.403   5.069 132.081  0.00  0.00    +0.022 A 
ATOM     13  C   LIG A   1      -9.266   4.713 133.485  0.00  0.00    +0.019 A 
ATOM     14  C   LIG A   1      -8.782   3.514 133.823  0.00  0.00    +0.092 A 
ENDROOT
BRANCH   5  15
ATOM     15  O   LIG A   1      -8.706   3.394 128.870  0.00  0.00    -0.488 OA
ATOM     16  C   LIG A   1      -7.474   3.599 128.194  0.00  0.00    +0.277 C 
ENDBRANCH   5  15
TORSDOF 1
ENDMDL
MODEL 7
REMARK VINA RESULT:      -5.6      5.536      6.947
REMARK  Name = NuBBE_1069
REMARK  2 active torsions:
REMARK  status: ('A' for Active; 'I' for Inactive)
REMARK    1  A    between atoms: C_5  and  O_6
REMARK    2  A    between atoms: O_6  and  C_7
REMARK                            x       y       z     vdW  Elec       q    Type
REMARK                         _______ _______ _______ _____ _____    ______ ____
ROOT
ATOM      1  O   LIG A   1      -8.619   3.044 128.168  0.00  0.00    -0.245 OA
ATOM      2  C   LIG A   1      -7.882   3.301 127.223  0.00  0.00    +0.337 A 
ATOM      3  O   LIG A   1      -8.267   3.130 125.903  0.00  0.00    -0.418 OA
ATOM      4  C   LIG A   1      -7.403   3.430 124.817  0.00  0.00    +0.184 A 
ATOM      5  C   LIG A   1      -7.903   3.216 123.520  0.00  0.00    +0.206 A 
ATOM      6  C   LIG A   1      -7.015   3.532 122.480  0.00  0.00    +0.180 A 
ATOM      7  C   LIG A   1      -5.723   4.020 122.686  0.00  0.00    +0.025 A 
ATOM      8  C   LIG A   1      -5.161   4.209 121.394  0.00  0.00    +0.050 A 
ATOM      9  C   LIG A   1      -6.125   3.833 120.492  0.00  0.00    +0.196 A 
ATOM     10  O   LIG A   1      -7.245   3.424 121.137  0.00  0.00    -0.459 OA
ATOM     11  C   LIG A   1      -5.263   4.216 124.003  0.00  0.00    +0.023 A 
ATOM     12  C   LIG A   1      -6.118   3.917 125.071  0.00  0.00    +0.022 A 
ATOM     13  C   LIG A   1      -5.687   4.105 126.448  0.00  0.00    +0.019 A 
ATOM     14  C   LIG A   1      -6.520   3.813 127.451  0.00  0.00    +0.092 A 
ENDROOT
BRANCH   5  15
ATOM     15  O   LIG A   1      -9.196   2.732 123.423  0.00  0.00    -0.488 OA
ATOM     16  C   LIG A   1      -9.337   1.374 123.032  0.00  0.00    +0.277 C 
ENDBRANCH   5  15
TORSDOF 1
ENDMDL
MODEL 8
REMARK VINA RESULT:      -5.5      1.282      2.001
REMARK  Name = NuBBE_1069
REMARK  2 active torsions:
REMARK  status: ('A' for Active; 'I' for Inactive)
REMARK    1  A    between atoms: C_5  and  O_6
REMARK    2  A    between atoms: O_6  and  C_7
REMARK                            x       y       z     vdW  Elec       q    Type
REMARK                         _______ _______ _______ _____ _____    ______ ____
ROOT
ATOM      1  O   LIG A   1      -3.701  -2.359 130.812  0.00  0.00    -0.245 OA
ATOM      2  C   LIG A   1      -4.744  -2.583 130.208  0.00  0.00    +0.337 A 
ATOM      3  O   LIG A   1      -4.960  -2.171 128.904  0.00  0.00    -0.418 OA
ATOM      4  C   LIG A   1      -6.174  -2.437 128.216  0.00  0.00    +0.184 A 
ATOM      5  C   LIG A   1      -6.280  -1.968 126.895  0.00  0.00    +0.206 A 
ATOM      6  C   LIG A   1      -7.496  -2.260 126.256  0.00  0.00    +0.180 A 
ATOM      7  C   LIG A   1      -8.542  -2.957 126.862  0.00  0.00    +0.025 A 
ATOM      8  C   LIG A   1      -9.577  -3.040 125.892  0.00  0.00    +0.050 A 
ATOM      9  C   LIG A   1      -9.110  -2.401 124.770  0.00  0.00    +0.196 A 
ATOM     10  O   LIG A   1      -7.857  -1.928 124.980  0.00  0.00    -0.459 OA
ATOM     11  C   LIG A   1      -8.393  -3.405 128.189  0.00  0.00    +0.023 A 
ATOM     12  C   LIG A   1      -7.195  -3.139 128.864  0.00  0.00    +0.022 A 
ATOM     13  C   LIG A   1      -6.994  -3.583 130.235  0.00  0.00    +0.019 A 
ATOM     14  C   LIG A   1      -5.842  -3.318 130.858  0.00  0.00    +0.092 A 
ENDROOT
BRANCH   5  15
ATOM     15  O   LIG A   1      -5.188  -1.290 126.385  0.00  0.00    -0.488 OA
ATOM     16  C   LIG A   1      -5.328   0.115 126.233  0.00  0.00    +0.277 C 
ENDBRANCH   5  15
TORSDOF 1
ENDMDL
MODEL 9
REMARK VINA RESULT:      -5.2      7.931      9.582
REMARK  Name = NuBBE_1069
REMARK  2 active torsions:
REMARK  status: ('A' for Active; 'I' for Inactive)
REMARK    1  A    between atoms: C_5  and  O_6
REMARK    2  A    between atoms: O_6  and  C_7
REMARK                            x       y       z     vdW  Elec       q    Type
REMARK                         _______ _______ _______ _____ _____    ______ ____
ROOT
ATOM      1  O   LIG A   1      -3.861   4.900 128.986  0.00  0.00    -0.245 OA
ATOM      2  C   LIG A   1      -4.881   5.315 129.524  0.00  0.00    +0.337 A 
ATOM      3  O   LIG A   1      -6.143   4.844 129.203  0.00  0.00    -0.418 OA
ATOM      4  C   LIG A   1      -7.317   5.334 129.835  0.00  0.00    +0.184 A 
ATOM      5  C   LIG A   1      -8.545   4.782 129.427  0.00  0.00    +0.206 A 
ATOM      6  C   LIG A   1      -9.675   5.294 130.083  0.00  0.00    +0.180 A 
ATOM      7  C   LIG A   1      -9.618   6.281 131.068  0.00  0.00    +0.025 A 
ATOM      8  C   LIG A   1     -10.961   6.517 131.471  0.00  0.00    +0.050 A 
ATOM      9  C   LIG A   1     -11.744   5.673 130.722  0.00  0.00    +0.196 A 
ATOM     10  O   LIG A   1     -10.978   4.933 129.884  0.00  0.00    -0.459 OA
ATOM     11  C   LIG A   1      -8.367   6.809 131.443  0.00  0.00    +0.023 A 
ATOM     12  C   LIG A   1      -7.211   6.324 130.816  0.00  0.00    +0.022 A 
ATOM     13  C   LIG A   1      -5.897   6.837 131.171  0.00  0.00    +0.019 A 
ATOM     14  C   LIG A   1      -4.809   6.359 130.560  0.00  0.00    +0.092 A 
ENDROOT
BRANCH   5  15
ATOM     15  O   LIG A   1      -8.493   3.808 128.445  0.00  0.00    -0.488 OA
ATOM     16  C   LIG A   1      -8.638   2.463 128.879  0.00  0.00    +0.277 C 
ENDBRANCH   5  15
TORSDOF 1
ENDMDL
