MODEL 1
REMARK VINA RESULT:      -8.6      0.000      0.000
REMARK  Name = NuBBE_510
REMARK  14 active torsions:
REMARK  status: ('A' for Active; 'I' for Inactive)
REMARK    1  A    between atoms: C_3  and  C_5
REMARK    2  A    between atoms: C_5  and  C_6
REMARK    3  A    between atoms: C_9  and  O_10
REMARK    4  A    between atoms: C_11  and  O_12
REMARK    5  A    between atoms: C_17  and  C_18
REMARK    6  A    between atoms: C_17  and  C_37
REMARK    7  A    between atoms: C_19  and  O_21
REMARK    8  A    between atoms: O_21  and  C_22
REMARK    9  A    between atoms: C_22  and  C_23
REMARK   10  A    between atoms: C_25  and  O_26
REMARK   11  A    between atoms: C_28  and  O_29
REMARK   12  A    between atoms: C_32  and  O_34
REMARK   13  A    between atoms: C_39  and  O_40
REMARK   14  A    between atoms: C_41  and  O_42
REMARK                            x       y       z     vdW  Elec       q    Type
REMARK                         _______ _______ _______ _____ _____    ______ ____
ROOT
ATOM      1  O   LIG A   1      -9.186   2.490 128.438  0.00  0.00    -0.251 OA
ATOM      2  C   LIG A   1      -8.091   2.341 128.972  0.00  0.00    +0.311 C 
ATOM      3  C   LIG A   1      -7.624   1.011 129.508  0.00  0.00    +0.102 C 
ATOM      4  C   LIG A   1      -6.901   1.153 130.839  0.00  0.00    +0.019 C 
ATOM      5  C   LIG A   1      -5.985   2.365 130.926  0.00  0.00    +0.057 C 
ATOM      6  O   LIG A   1      -7.150   3.313 128.985  0.00  0.00    -0.450 OA
ATOM      7  C   LIG A   1      -6.525   3.658 130.254  0.00  0.00    +0.168 C 
ENDROOT
BRANCH   7   8
ATOM      8  C   LIG A   1      -7.615   4.423 131.024  0.00  0.00    +0.002 A 
ATOM      9  C   LIG A   1      -8.209   3.857 132.175  0.00  0.00    +0.056 A 
ATOM     10  C   LIG A   1      -9.120   4.586 132.941  0.00  0.00    +0.159 A 
ATOM     11  C   LIG A   1      -9.448   5.887 132.588  0.00  0.00    +0.158 A 
ATOM     12  C   LIG A   1      -8.889   6.470 131.468  0.00  0.00    +0.049 A 
ATOM     13  C   LIG A   1      -7.978   5.743 130.696  0.00  0.00    +0.011 A 
BRANCH  10  14
ATOM     14  O   LIG A   1      -9.696   4.070 134.069  0.00  0.00    -0.503 OA
ATOM     15  H   LIG A   1      -9.598   4.727 134.781  0.00  0.00    +0.292 HD
ENDBRANCH  10  14
BRANCH  11  16
ATOM     16  O   LIG A   1     -10.304   6.618 133.360  0.00  0.00    -0.503 OA
ATOM     17  H   LIG A   1      -9.738   6.981 134.069  0.00  0.00    +0.292 HD
ENDBRANCH  11  16
ENDBRANCH   7   8
BRANCH   7  18
ATOM     18  C   LIG A   1      -5.262   4.522 129.901  0.00  0.00    +0.210 C 
ATOM     19  C   LIG A   1      -4.537   4.298 128.554  0.00  0.00    +0.240 C 
ATOM     20  C   LIG A   1      -3.066   4.192 128.966  0.00  0.00    +0.183 C 
ATOM     21  C   LIG A   1      -3.031   4.930 130.286  0.00  0.00    +0.195 C 
ATOM     22  O   LIG A   1      -4.241   4.528 130.933  0.00  0.00    -0.366 OA
BRANCH  20  23
ATOM     23  O   LIG A   1      -2.178   4.761 128.016  0.00  0.00    -0.386 OA
ATOM     24  H   LIG A   1      -1.279   4.467 128.250  0.00  0.00    +0.210 HD
ENDBRANCH  20  23
BRANCH  19  25
ATOM     25  O   LIG A   1      -4.900   3.104 127.828  0.00  0.00    -0.452 OA
BRANCH  25  26
ATOM     26  C   LIG A   1      -4.673   3.070 126.499  0.00  0.00    +0.340 C 
ATOM     27  O   LIG A   1      -3.564   2.971 125.956  0.00  0.00    -0.245 OA
BRANCH  26  28
ATOM     28  C   LIG A   1      -5.945   3.123 125.731  0.00  0.00    +0.066 A 
ATOM     29  C   LIG A   1      -6.194   2.168 124.732  0.00  0.00    +0.060 A 
ATOM     30  C   LIG A   1      -7.411   2.184 124.052  0.00  0.00    +0.121 A 
ATOM     31  C   LIG A   1      -8.380   3.146 124.319  0.00  0.00    +0.090 A 
ATOM     32  C   LIG A   1      -8.108   4.117 125.270  0.00  0.00    +0.121 A 
ATOM     33  C   LIG A   1      -6.917   4.101 125.987  0.00  0.00    +0.060 A 
BRANCH  30  34
ATOM     34  O   LIG A   1      -7.711   1.259 123.094  0.00  0.00    -0.507 OA
ATOM     35  H   LIG A   1      -7.640   1.678 122.218  0.00  0.00    +0.292 HD
ENDBRANCH  30  34
BRANCH  32  36
ATOM     36  O   LIG A   1      -8.992   5.117 125.540  0.00  0.00    -0.507 OA
ATOM     37  H   LIG A   1      -8.542   5.975 125.462  0.00  0.00    +0.292 HD
ENDBRANCH  32  36
ENDBRANCH  26  28
ENDBRANCH  25  26
ENDBRANCH  19  25
ENDBRANCH   7  18
BRANCH   3  38
ATOM     38  C   LIG A   1      -6.888   0.192 128.429  0.00  0.00    +0.050 C 
BRANCH  38  39
ATOM     39  C   LIG A   1      -7.726  -0.701 127.546  0.00  0.00    -0.043 A 
ATOM     40  C   LIG A   1      -7.888  -2.066 127.840  0.00  0.00    +0.007 A 
ATOM     41  C   LIG A   1      -8.596  -2.910 126.977  0.00  0.00    +0.049 A 
ATOM     42  C   LIG A   1      -9.192  -2.373 125.844  0.00  0.00    +0.158 A 
ATOM     43  C   LIG A   1      -9.093  -1.011 125.579  0.00  0.00    +0.159 A 
ATOM     44  C   LIG A   1      -8.356  -0.176 126.407  0.00  0.00    +0.052 A 
BRANCH  42  45
ATOM     45  O   LIG A   1      -9.892  -3.145 124.959  0.00  0.00    -0.503 OA
ATOM     46  H   LIG A   1     -10.817  -2.845 124.958  0.00  0.00    +0.292 HD
ENDBRANCH  42  45
BRANCH  43  47
ATOM     47  O   LIG A   1      -9.728  -0.481 124.493  0.00  0.00    -0.503 OA
ATOM     48  H   LIG A   1      -9.038  -0.434 123.802  0.00  0.00    +0.292 HD
ENDBRANCH  43  47
ENDBRANCH  38  39
ENDBRANCH   3  38
TORSDOF 14
ENDMDL
MODEL 2
REMARK VINA RESULT:      -8.5      2.815      5.581
REMARK  Name = NuBBE_510
REMARK  14 active torsions:
REMARK  status: ('A' for Active; 'I' for Inactive)
REMARK    1  A    between atoms: C_3  and  C_5
REMARK    2  A    between atoms: C_5  and  C_6
REMARK    3  A    between atoms: C_9  and  O_10
REMARK    4  A    between atoms: C_11  and  O_12
REMARK    5  A    between atoms: C_17  and  C_18
REMARK    6  A    between atoms: C_17  and  C_37
REMARK    7  A    between atoms: C_19  and  O_21
REMARK    8  A    between atoms: O_21  and  C_22
REMARK    9  A    between atoms: C_22  and  C_23
REMARK   10  A    between atoms: C_25  and  O_26
REMARK   11  A    between atoms: C_28  and  O_29
REMARK   12  A    between atoms: C_32  and  O_34
REMARK   13  A    between atoms: C_39  and  O_40
REMARK   14  A    between atoms: C_41  and  O_42
REMARK                            x       y       z     vdW  Elec       q    Type
REMARK                         _______ _______ _______ _____ _____    ______ ____
ROOT
ATOM      1  O   LIG A   1      -8.261   4.755 126.705  0.00  0.00    -0.251 OA
ATOM      2  C   LIG A   1      -7.166   4.277 126.983  0.00  0.00    +0.311 C 
ATOM      3  C   LIG A   1      -6.452   3.304 126.079  0.00  0.00    +0.102 C 
ATOM      4  C   LIG A   1      -5.790   2.178 126.859  0.00  0.00    +0.019 C 
ATOM      5  C   LIG A   1      -5.133   2.621 128.159  0.00  0.00    +0.057 C 
ATOM      6  O   LIG A   1      -6.437   4.698 128.042  0.00  0.00    -0.450 OA
ATOM      7  C   LIG A   1      -5.909   3.701 128.963  0.00  0.00    +0.168 C 
ENDROOT
BRANCH   7   8
ATOM      8  C   LIG A   1      -7.140   3.214 129.748  0.00  0.00    +0.002 A 
ATOM      9  C   LIG A   1      -6.985   2.601 131.012  0.00  0.00    +0.056 A 
ATOM     10  C   LIG A   1      -8.098   2.254 131.779  0.00  0.00    +0.159 A 
ATOM     11  C   LIG A   1      -9.379   2.516 131.313  0.00  0.00    +0.158 A 
ATOM     12  C   LIG A   1      -9.566   3.111 130.081  0.00  0.00    +0.049 A 
ATOM     13  C   LIG A   1      -8.455   3.458 129.308  0.00  0.00    +0.011 A 
BRANCH  10  14
ATOM     14  O   LIG A   1      -7.979   1.677 133.013  0.00  0.00    -0.503 OA
ATOM     15  H   LIG A   1      -7.046   1.742 133.284  0.00  0.00    +0.292 HD
ENDBRANCH  10  14
BRANCH  11  16
ATOM     16  O   LIG A   1     -10.468   2.219 132.080  0.00  0.00    -0.503 OA
ATOM     17  H   LIG A   1     -11.059   1.725 131.478  0.00  0.00    +0.292 HD
ENDBRANCH  11  16
ENDBRANCH   7   8
BRANCH   7  18
ATOM     18  C   LIG A   1      -4.838   4.439 129.843  0.00  0.00    +0.210 C 
ATOM     19  C   LIG A   1      -5.268   5.632 130.727  0.00  0.00    +0.240 C 
ATOM     20  C   LIG A   1      -4.222   6.701 130.398  0.00  0.00    +0.183 C 
ATOM     21  C   LIG A   1      -3.050   5.885 129.901  0.00  0.00    +0.195 C 
ATOM     22  O   LIG A   1      -3.659   4.861 129.109  0.00  0.00    -0.366 OA
BRANCH  20  23
ATOM     23  O   LIG A   1      -3.874   7.502 131.517  0.00  0.00    -0.386 OA
ATOM     24  H   LIG A   1      -3.106   7.082 131.944  0.00  0.00    +0.210 HD
ENDBRANCH  20  23
BRANCH  19  25
ATOM     25  O   LIG A   1      -6.580   6.175 130.468  0.00  0.00    -0.452 OA
BRANCH  25  26
ATOM     26  C   LIG A   1      -7.431   6.313 131.504  0.00  0.00    +0.340 C 
ATOM     27  O   LIG A   1      -7.139   6.194 132.702  0.00  0.00    -0.245 OA
BRANCH  26  28
ATOM     28  C   LIG A   1      -8.796   6.676 131.040  0.00  0.00    +0.066 A 
ATOM     29  C   LIG A   1      -8.951   7.460 129.885  0.00  0.00    +0.060 A 
ATOM     30  C   LIG A   1     -10.231   7.754 129.418  0.00  0.00    +0.121 A 
ATOM     31  C   LIG A   1     -11.367   7.310 130.087  0.00  0.00    +0.090 A 
ATOM     32  C   LIG A   1     -11.209   6.579 131.254  0.00  0.00    +0.121 A 
ATOM     33  C   LIG A   1      -9.943   6.244 131.721  0.00  0.00    +0.060 A 
BRANCH  30  34
ATOM     34  O   LIG A   1     -10.433   8.487 128.284  0.00  0.00    -0.507 OA
ATOM     35  H   LIG A   1      -9.603   8.515 127.776  0.00  0.00    +0.292 HD
ENDBRANCH  30  34
BRANCH  32  36
ATOM     36  O   LIG A   1     -12.280   6.161 131.984  0.00  0.00    -0.507 OA
ATOM     37  H   LIG A   1     -12.769   5.488 131.482  0.00  0.00    +0.292 HD
ENDBRANCH  32  36
ENDBRANCH  26  28
ENDBRANCH  25  26
ENDBRANCH  19  25
ENDBRANCH   7  18
BRANCH   3  38
ATOM     38  C   LIG A   1      -5.554   4.032 125.059  0.00  0.00    +0.050 C 
BRANCH  38  39
ATOM     39  C   LIG A   1      -5.951   3.951 123.605  0.00  0.00    -0.043 A 
ATOM     40  C   LIG A   1      -5.053   4.314 122.587  0.00  0.00    +0.007 A 
ATOM     41  C   LIG A   1      -5.449   4.318 121.244  0.00  0.00    +0.049 A 
ATOM     42  C   LIG A   1      -6.732   3.903 120.916  0.00  0.00    +0.158 A 
ATOM     43  C   LIG A   1      -7.607   3.478 121.911  0.00  0.00    +0.159 A 
ATOM     44  C   LIG A   1      -7.235   3.513 123.248  0.00  0.00    +0.052 A 
BRANCH  42  45
ATOM     45  O   LIG A   1      -7.180   3.889 119.625  0.00  0.00    -0.503 OA
ATOM     46  H   LIG A   1      -8.120   4.138 119.625  0.00  0.00    +0.292 HD
ENDBRANCH  42  45
BRANCH  43  47
ATOM     47  O   LIG A   1      -8.848   3.018 121.576  0.00  0.00    -0.503 OA
ATOM     48  H   LIG A   1      -9.284   2.841 122.432  0.00  0.00    +0.292 HD
ENDBRANCH  43  47
ENDBRANCH  38  39
ENDBRANCH   3  38
TORSDOF 14
ENDMDL
MODEL 3
REMARK VINA RESULT:      -8.5      2.762      6.542
REMARK  Name = NuBBE_510
REMARK  14 active torsions:
REMARK  status: ('A' for Active; 'I' for Inactive)
REMARK    1  A    between atoms: C_3  and  C_5
REMARK    2  A    between atoms: C_5  and  C_6
REMARK    3  A    between atoms: C_9  and  O_10
REMARK    4  A    between atoms: C_11  and  O_12
REMARK    5  A    between atoms: C_17  and  C_18
REMARK    6  A    between atoms: C_17  and  C_37
REMARK    7  A    between atoms: C_19  and  O_21
REMARK    8  A    between atoms: O_21  and  C_22
REMARK    9  A    between atoms: C_22  and  C_23
REMARK   10  A    between atoms: C_25  and  O_26
REMARK   11  A    between atoms: C_28  and  O_29
REMARK   12  A    between atoms: C_32  and  O_34
REMARK   13  A    between atoms: C_39  and  O_40
REMARK   14  A    between atoms: C_41  and  O_42
REMARK                            x       y       z     vdW  Elec       q    Type
REMARK                         _______ _______ _______ _____ _____    ______ ____
ROOT
ATOM      1  O   LIG A   1      -8.245   3.992 133.598  0.00  0.00    -0.251 OA
ATOM      2  C   LIG A   1      -8.343   4.125 132.383  0.00  0.00    +0.311 C 
ATOM      3  C   LIG A   1      -9.573   4.699 131.725  0.00  0.00    +0.102 C 
ATOM      4  C   LIG A   1      -9.945   3.949 130.455  0.00  0.00    +0.019 C 
ATOM      5  C   LIG A   1      -8.755   3.538 129.600  0.00  0.00    +0.057 C 
ATOM      6  O   LIG A   1      -7.302   3.917 131.543  0.00  0.00    -0.450 OA
ATOM      7  C   LIG A   1      -7.505   3.055 130.386  0.00  0.00    +0.168 C 
ENDROOT
BRANCH   7   8
ATOM      8  C   LIG A   1      -7.576   1.634 130.975  0.00  0.00    +0.002 A 
ATOM      9  C   LIG A   1      -6.498   1.120 131.731  0.00  0.00    +0.056 A 
ATOM     10  C   LIG A   1      -6.595  -0.123 132.358  0.00  0.00    +0.159 A 
ATOM     11  C   LIG A   1      -7.760  -0.870 132.255  0.00  0.00    +0.158 A 
ATOM     12  C   LIG A   1      -8.830  -0.399 131.521  0.00  0.00    +0.049 A 
ATOM     13  C   LIG A   1      -8.737   0.845 130.890  0.00  0.00    +0.011 A 
BRANCH  10  14
ATOM     14  O   LIG A   1      -5.576  -0.638 133.111  0.00  0.00    -0.503 OA
ATOM     15  H   LIG A   1      -5.472  -1.577 132.872  0.00  0.00    +0.292 HD
ENDBRANCH  10  14
BRANCH  11  16
ATOM     16  O   LIG A   1      -7.874  -2.065 132.904  0.00  0.00    -0.503 OA
ATOM     17  H   LIG A   1      -7.033  -2.525 132.712  0.00  0.00    +0.292 HD
ENDBRANCH  11  16
ENDBRANCH   7   8
BRANCH   7  18
ATOM     18  C   LIG A   1      -6.277   3.297 129.438  0.00  0.00    +0.210 C 
ATOM     19  C   LIG A   1      -6.040   2.349 128.240  0.00  0.00    +0.240 C 
ATOM     20  C   LIG A   1      -4.555   1.997 128.365  0.00  0.00    +0.183 C 
ATOM     21  C   LIG A   1      -3.998   3.161 129.155  0.00  0.00    +0.195 C 
ATOM     22  O   LIG A   1      -5.009   3.423 130.133  0.00  0.00    -0.366 OA
BRANCH  20  23
ATOM     23  O   LIG A   1      -3.910   1.851 127.110  0.00  0.00    -0.386 OA
ATOM     24  H   LIG A   1      -4.149   2.626 126.570  0.00  0.00    +0.210 HD
ENDBRANCH  20  23
BRANCH  19  25
ATOM     25  O   LIG A   1      -6.805   1.125 128.237  0.00  0.00    -0.452 OA
BRANCH  25  26
ATOM     26  C   LIG A   1      -7.493   0.803 127.123  0.00  0.00    +0.340 C 
ATOM     27  O   LIG A   1      -7.727   1.561 126.172  0.00  0.00    -0.245 OA
BRANCH  26  28
ATOM     28  C   LIG A   1      -7.919  -0.622 127.143  0.00  0.00    +0.066 A 
ATOM     29  C   LIG A   1      -7.511  -1.455 128.197  0.00  0.00    +0.060 A 
ATOM     30  C   LIG A   1      -7.956  -2.775 128.244  0.00  0.00    +0.121 A 
ATOM     31  C   LIG A   1      -8.778  -3.300 127.251  0.00  0.00    +0.090 A 
ATOM     32  C   LIG A   1      -9.136  -2.488 126.187  0.00  0.00    +0.121 A 
ATOM     33  C   LIG A   1      -8.733  -1.158 126.135  0.00  0.00    +0.060 A 
BRANCH  30  34
ATOM     34  O   LIG A   1      -7.611  -3.614 129.264  0.00  0.00    -0.507 OA
ATOM     35  H   LIG A   1      -7.325  -3.082 130.027  0.00  0.00    +0.292 HD
ENDBRANCH  30  34
BRANCH  32  36
ATOM     36  O   LIG A   1      -9.893  -2.957 125.157  0.00  0.00    -0.507 OA
ATOM     37  H   LIG A   1     -10.761  -3.235 125.495  0.00  0.00    +0.292 HD
ENDBRANCH  32  36
ENDBRANCH  26  28
ENDBRANCH  25  26
ENDBRANCH  19  25
ENDBRANCH   7  18
BRANCH   3  38
ATOM     38  C   LIG A   1      -9.483   6.233 131.597  0.00  0.00    +0.050 C 
BRANCH  38  39
ATOM     39  C   LIG A   1     -10.542   6.921 130.769  0.00  0.00    -0.043 A 
ATOM     40  C   LIG A   1     -11.889   6.923 131.172  0.00  0.00    +0.007 A 
ATOM     41  C   LIG A   1     -12.881   7.490 130.363  0.00  0.00    +0.049 A 
ATOM     42  C   LIG A   1     -12.516   8.106 129.175  0.00  0.00    +0.158 A 
ATOM     43  C   LIG A   1     -11.177   8.167 128.800  0.00  0.00    +0.159 A 
ATOM     44  C   LIG A   1     -10.192   7.569 129.575  0.00  0.00    +0.052 A 
BRANCH  42  45
ATOM     45  O   LIG A   1     -13.437   8.673 128.339  0.00  0.00    -0.503 OA
ATOM     46  H   LIG A   1     -13.101   8.613 127.428  0.00  0.00    +0.292 HD
ENDBRANCH  42  45
BRANCH  43  47
ATOM     47  O   LIG A   1     -10.819   8.823 127.657  0.00  0.00    -0.503 OA
ATOM     48  H   LIG A   1     -10.259   8.185 127.172  0.00  0.00    +0.292 HD
ENDBRANCH  43  47
ENDBRANCH  38  39
ENDBRANCH   3  38
TORSDOF 14
ENDMDL
MODEL 4
REMARK VINA RESULT:      -8.4      2.876      5.939
REMARK  Name = NuBBE_510
REMARK  14 active torsions:
REMARK  status: ('A' for Active; 'I' for Inactive)
REMARK    1  A    between atoms: C_3  and  C_5
REMARK    2  A    between atoms: C_5  and  C_6
REMARK    3  A    between atoms: C_9  and  O_10
REMARK    4  A    between atoms: C_11  and  O_12
REMARK    5  A    between atoms: C_17  and  C_18
REMARK    6  A    between atoms: C_17  and  C_37
REMARK    7  A    between atoms: C_19  and  O_21
REMARK    8  A    between atoms: O_21  and  C_22
REMARK    9  A    between atoms: C_22  and  C_23
REMARK   10  A    between atoms: C_25  and  O_26
REMARK   11  A    between atoms: C_28  and  O_29
REMARK   12  A    between atoms: C_32  and  O_34
REMARK   13  A    between atoms: C_39  and  O_40
REMARK   14  A    between atoms: C_41  and  O_42
REMARK                            x       y       z     vdW  Elec       q    Type
REMARK                         _______ _______ _______ _____ _____    ______ ____
ROOT
ATOM      1  O   LIG A   1      -7.619   4.905 126.108  0.00  0.00    -0.251 OA
ATOM      2  C   LIG A   1      -6.502   4.422 126.262  0.00  0.00    +0.311 C 
ATOM      3  C   LIG A   1      -5.913   3.416 125.304  0.00  0.00    +0.102 C 
ATOM      4  C   LIG A   1      -5.168   2.305 126.028  0.00  0.00    +0.019 C 
ATOM      5  C   LIG A   1      -4.352   2.775 127.224  0.00  0.00    +0.057 C 
ATOM      6  O   LIG A   1      -5.643   4.864 127.211  0.00  0.00    -0.450 OA
ATOM      7  C   LIG A   1      -5.014   3.885 128.087  0.00  0.00    +0.168 C 
ENDROOT
BRANCH   7   8
ATOM      8  C   LIG A   1      -6.142   3.434 129.032  0.00  0.00    +0.002 A 
ATOM      9  C   LIG A   1      -7.477   3.827 128.789  0.00  0.00    +0.056 A 
ATOM     10  C   LIG A   1      -8.520   3.337 129.576  0.00  0.00    +0.159 A 
ATOM     11  C   LIG A   1      -8.260   2.444 130.606  0.00  0.00    +0.158 A 
ATOM     12  C   LIG A   1      -6.967   2.042 130.873  0.00  0.00    +0.049 A 
ATOM     13  C   LIG A   1      -5.918   2.532 130.089  0.00  0.00    +0.011 A 
BRANCH  10  14
ATOM     14  O   LIG A   1      -9.824   3.685 129.353  0.00  0.00    -0.503 OA
ATOM     15  H   LIG A   1     -10.361   3.310 130.074  0.00  0.00    +0.292 HD
ENDBRANCH  10  14
BRANCH  11  16
ATOM     16  O   LIG A   1      -9.283   1.928 131.348  0.00  0.00    -0.503 OA
ATOM     17  H   LIG A   1      -9.541   1.116 130.871  0.00  0.00    +0.292 HD
ENDBRANCH  11  16
ENDBRANCH   7   8
BRANCH   7  18
ATOM     18  C   LIG A   1      -3.836   4.634 128.806  0.00  0.00    +0.210 C 
ATOM     19  C   LIG A   1      -4.147   5.628 129.948  0.00  0.00    +0.240 C 
ATOM     20  C   LIG A   1      -3.325   6.862 129.568  0.00  0.00    +0.183 C 
ATOM     21  C   LIG A   1      -2.238   6.286 128.688  0.00  0.00    +0.195 C 
ATOM     22  O   LIG A   1      -2.922   5.307 127.900  0.00  0.00    -0.366 OA
BRANCH  20  23
ATOM     23  O   LIG A   1      -2.791   7.544 130.692  0.00  0.00    -0.386 OA
ATOM     24  H   LIG A   1      -1.977   7.992 130.398  0.00  0.00    +0.210 HD
ENDBRANCH  20  23
BRANCH  19  25
ATOM     25  O   LIG A   1      -5.530   6.020 130.089  0.00  0.00    -0.452 OA
BRANCH  25  26
ATOM     26  C   LIG A   1      -5.972   6.376 131.312  0.00  0.00    +0.340 C 
ATOM     27  O   LIG A   1      -5.263   6.724 132.266  0.00  0.00    -0.245 OA
BRANCH  26  28
ATOM     28  C   LIG A   1      -7.457   6.344 131.381  0.00  0.00    +0.066 A 
ATOM     29  C   LIG A   1      -8.091   5.576 132.371  0.00  0.00    +0.060 A 
ATOM     30  C   LIG A   1      -9.481   5.592 132.471  0.00  0.00    +0.121 A 
ATOM     31  C   LIG A   1     -10.264   6.332 131.590  0.00  0.00    +0.090 A 
ATOM     32  C   LIG A   1      -9.636   7.047 130.583  0.00  0.00    +0.121 A 
ATOM     33  C   LIG A   1      -8.249   7.076 130.485  0.00  0.00    +0.060 A 
BRANCH  30  34
ATOM     34  O   LIG A   1     -10.141   4.886 133.435  0.00  0.00    -0.507 OA
ATOM     35  H   LIG A   1      -9.492   4.379 133.954  0.00  0.00    +0.292 HD
ENDBRANCH  30  34
BRANCH  32  36
ATOM     36  O   LIG A   1     -10.348   7.748 129.657  0.00  0.00    -0.507 OA
ATOM     37  H   LIG A   1     -11.225   7.345 129.552  0.00  0.00    +0.292 HD
ENDBRANCH  32  36
ENDBRANCH  26  28
ENDBRANCH  25  26
ENDBRANCH  19  25
ENDBRANCH   7  18
BRANCH   3  38
ATOM     38  C   LIG A   1      -5.143   4.106 124.162  0.00  0.00    +0.050 C 
BRANCH  38  39
ATOM     39  C   LIG A   1      -5.760   4.061 122.784  0.00  0.00    -0.043 A 
ATOM     40  C   LIG A   1      -5.031   4.459 121.650  0.00  0.00    +0.007 A 
ATOM     41  C   LIG A   1      -5.631   4.496 120.386  0.00  0.00    +0.049 A 
ATOM     42  C   LIG A   1      -6.947   4.078 120.248  0.00  0.00    +0.158 A 
ATOM     43  C   LIG A   1      -7.656   3.620 121.354  0.00  0.00    +0.159 A 
ATOM     44  C   LIG A   1      -7.082   3.622 122.619  0.00  0.00    +0.052 A 
BRANCH  42  45
ATOM     45  O   LIG A   1      -7.590   4.095 119.042  0.00  0.00    -0.503 OA
ATOM     46  H   LIG A   1      -7.356   4.920 118.583  0.00  0.00    +0.292 HD
ENDBRANCH  42  45
BRANCH  43  47
ATOM     47  O   LIG A   1      -8.932   3.159 121.202  0.00  0.00    -0.503 OA
ATOM     48  H   LIG A   1      -9.260   3.038 122.115  0.00  0.00    +0.292 HD
ENDBRANCH  43  47
ENDBRANCH  38  39
ENDBRANCH   3  38
TORSDOF 14
ENDMDL
MODEL 5
REMARK VINA RESULT:      -8.4      2.542      6.818
REMARK  Name = NuBBE_510
REMARK  14 active torsions:
REMARK  status: ('A' for Active; 'I' for Inactive)
REMARK    1  A    between atoms: C_3  and  C_5
REMARK    2  A    between atoms: C_5  and  C_6
REMARK    3  A    between atoms: C_9  and  O_10
REMARK    4  A    between atoms: C_11  and  O_12
REMARK    5  A    between atoms: C_17  and  C_18
REMARK    6  A    between atoms: C_17  and  C_37
REMARK    7  A    between atoms: C_19  and  O_21
REMARK    8  A    between atoms: O_21  and  C_22
REMARK    9  A    between atoms: C_22  and  C_23
REMARK   10  A    between atoms: C_25  and  O_26
REMARK   11  A    between atoms: C_28  and  O_29
REMARK   12  A    between atoms: C_32  and  O_34
REMARK   13  A    between atoms: C_39  and  O_40
REMARK   14  A    between atoms: C_41  and  O_42
REMARK                            x       y       z     vdW  Elec       q    Type
REMARK                         _______ _______ _______ _____ _____    ______ ____
ROOT
ATOM      1  O   LIG A   1      -7.640   4.906 128.835  0.00  0.00    -0.251 OA
ATOM      2  C   LIG A   1      -7.238   5.035 129.987  0.00  0.00    +0.311 C 
ATOM      3  C   LIG A   1      -7.414   6.312 130.770  0.00  0.00    +0.102 C 
ATOM      4  C   LIG A   1      -6.176   6.658 131.585  0.00  0.00    +0.019 C 
ATOM      5  C   LIG A   1      -5.502   5.458 132.238  0.00  0.00    +0.057 C 
ATOM      6  O   LIG A   1      -6.746   3.999 130.705  0.00  0.00    -0.450 OA
ATOM      7  C   LIG A   1      -5.465   4.166 131.377  0.00  0.00    +0.168 C 
ENDROOT
BRANCH   7   8
ATOM      8  C   LIG A   1      -4.428   4.132 130.240  0.00  0.00    +0.002 A 
ATOM      9  C   LIG A   1      -4.394   3.046 129.336  0.00  0.00    +0.056 A 
ATOM     10  C   LIG A   1      -3.531   3.057 128.240  0.00  0.00    +0.159 A 
ATOM     11  C   LIG A   1      -2.697   4.143 128.016  0.00  0.00    +0.158 A 
ATOM     12  C   LIG A   1      -2.702   5.218 128.881  0.00  0.00    +0.049 A 
ATOM     13  C   LIG A   1      -3.563   5.212 129.982  0.00  0.00    +0.011 A 
BRANCH  10  14
ATOM     14  O   LIG A   1      -3.489   2.029 127.338  0.00  0.00    -0.503 OA
ATOM     15  H   LIG A   1      -4.341   1.559 127.382  0.00  0.00    +0.292 HD
ENDBRANCH  10  14
BRANCH  11  16
ATOM     16  O   LIG A   1      -1.884   4.176 126.920  0.00  0.00    -0.503 OA
ATOM     17  H   LIG A   1      -2.442   3.832 126.195  0.00  0.00    +0.292 HD
ENDBRANCH  11  16
ENDBRANCH   7   8
BRANCH   7  18
ATOM     18  C   LIG A   1      -5.344   2.973 132.392  0.00  0.00    +0.210 C 
ATOM     19  C   LIG A   1      -6.259   1.738 132.231  0.00  0.00    +0.240 C 
ATOM     20  C   LIG A   1      -6.807   1.527 133.645  0.00  0.00    +0.183 C 
ATOM     21  C   LIG A   1      -5.765   2.193 134.515  0.00  0.00    +0.195 C 
ATOM     22  O   LIG A   1      -5.416   3.373 133.786  0.00  0.00    -0.366 OA
BRANCH  20  23
ATOM     23  O   LIG A   1      -6.980   0.158 133.977  0.00  0.00    -0.386 OA
ATOM     24  H   LIG A   1      -6.594   0.026 134.862  0.00  0.00    +0.210 HD
ENDBRANCH  20  23
BRANCH  19  25
ATOM     25  O   LIG A   1      -7.371   1.885 131.322  0.00  0.00    -0.452 OA
BRANCH  25  26
ATOM     26  C   LIG A   1      -7.850   0.781 130.715  0.00  0.00    +0.340 C 
ATOM     27  O   LIG A   1      -8.492  -0.126 131.262  0.00  0.00    -0.245 OA
BRANCH  26  28
ATOM     28  C   LIG A   1      -7.553   0.792 129.258  0.00  0.00    +0.066 A 
ATOM     29  C   LIG A   1      -8.396   1.494 128.382  0.00  0.00    +0.060 A 
ATOM     30  C   LIG A   1      -8.085   1.551 127.024  0.00  0.00    +0.121 A 
ATOM     31  C   LIG A   1      -6.968   0.902 126.507  0.00  0.00    +0.090 A 
ATOM     32  C   LIG A   1      -6.167   0.168 127.369  0.00  0.00    +0.121 A 
ATOM     33  C   LIG A   1      -6.437   0.126 128.732  0.00  0.00    +0.060 A 
BRANCH  30  34
ATOM     34  O   LIG A   1      -8.857   2.244 126.137  0.00  0.00    -0.507 OA
ATOM     35  H   LIG A   1      -8.833   3.189 126.371  0.00  0.00    +0.292 HD
ENDBRANCH  30  34
BRANCH  32  36
ATOM     36  O   LIG A   1      -5.090  -0.533 126.917  0.00  0.00    -0.507 OA
ATOM     37  H   LIG A   1      -5.396  -1.329 126.451  0.00  0.00    +0.292 HD
ENDBRANCH  32  36
ENDBRANCH  26  28
ENDBRANCH  25  26
ENDBRANCH  19  25
ENDBRANCH   7  18
BRANCH   3  38
ATOM     38  C   LIG A   1      -8.749   6.326 131.540  0.00  0.00    +0.050 C 
BRANCH  38  39
ATOM     39  C   LIG A   1      -9.961   6.857 130.814  0.00  0.00    -0.043 A 
ATOM     40  C   LIG A   1     -11.260   6.588 131.279  0.00  0.00    +0.007 A 
ATOM     41  C   LIG A   1     -12.384   7.010 130.559  0.00  0.00    +0.049 A 
ATOM     42  C   LIG A   1     -12.206   7.754 129.401  0.00  0.00    +0.158 A 
ATOM     43  C   LIG A   1     -10.925   8.082 128.969  0.00  0.00    +0.159 A 
ATOM     44  C   LIG A   1      -9.805   7.629 129.653  0.00  0.00    +0.052 A 
BRANCH  42  45
ATOM     45  O   LIG A   1     -13.263   8.191 128.652  0.00  0.00    -0.503 OA
ATOM     46  H   LIG A   1     -13.995   8.409 129.254  0.00  0.00    +0.292 HD
ENDBRANCH  42  45
BRANCH  43  47
ATOM     47  O   LIG A   1     -10.759   8.861 127.860  0.00  0.00    -0.503 OA
ATOM     48  H   LIG A   1     -11.228   9.692 128.070  0.00  0.00    +0.292 HD
ENDBRANCH  43  47
ENDBRANCH  38  39
ENDBRANCH   3  38
TORSDOF 14
ENDMDL
MODEL 6
REMARK VINA RESULT:      -8.3      2.736      6.609
REMARK  Name = NuBBE_510
REMARK  14 active torsions:
REMARK  status: ('A' for Active; 'I' for Inactive)
REMARK    1  A    between atoms: C_3  and  C_5
REMARK    2  A    between atoms: C_5  and  C_6
REMARK    3  A    between atoms: C_9  and  O_10
REMARK    4  A    between atoms: C_11  and  O_12
REMARK    5  A    between atoms: C_17  and  C_18
REMARK    6  A    between atoms: C_17  and  C_37
REMARK    7  A    between atoms: C_19  and  O_21
REMARK    8  A    between atoms: O_21  and  C_22
REMARK    9  A    between atoms: C_22  and  C_23
REMARK   10  A    between atoms: C_25  and  O_26
REMARK   11  A    between atoms: C_28  and  O_29
REMARK   12  A    between atoms: C_32  and  O_34
REMARK   13  A    between atoms: C_39  and  O_40
REMARK   14  A    between atoms: C_41  and  O_42
REMARK                            x       y       z     vdW  Elec       q    Type
REMARK                         _______ _______ _______ _____ _____    ______ ____
ROOT
ATOM      1  O   LIG A   1      -3.900   3.895 125.851  0.00  0.00    -0.251 OA
ATOM      2  C   LIG A   1      -5.010   3.404 126.024  0.00  0.00    +0.311 C 
ATOM      3  C   LIG A   1      -6.214   3.807 125.210  0.00  0.00    +0.102 C 
ATOM      4  C   LIG A   1      -7.468   3.928 126.063  0.00  0.00    +0.019 C 
ATOM      5  C   LIG A   1      -7.605   2.849 127.129  0.00  0.00    +0.057 C 
ATOM      6  O   LIG A   1      -5.217   2.350 126.848  0.00  0.00    -0.450 OA
ATOM      7  C   LIG A   1      -6.284   2.440 127.836  0.00  0.00    +0.168 C 
ENDROOT
BRANCH   7   8
ATOM      8  C   LIG A   1      -5.744   3.419 128.895  0.00  0.00    +0.002 A 
ATOM      9  C   LIG A   1      -6.491   4.564 129.255  0.00  0.00    +0.056 A 
ATOM     10  C   LIG A   1      -6.063   5.399 130.288  0.00  0.00    +0.159 A 
ATOM     11  C   LIG A   1      -4.898   5.110 130.986  0.00  0.00    +0.158 A 
ATOM     12  C   LIG A   1      -4.144   4.002 130.657  0.00  0.00    +0.049 A 
ATOM     13  C   LIG A   1      -4.567   3.163 129.622  0.00  0.00    +0.011 A 
BRANCH  10  14
ATOM     14  O   LIG A   1      -6.773   6.503 130.671  0.00  0.00    -0.503 OA
ATOM     15  H   LIG A   1      -6.137   7.185 130.952  0.00  0.00    +0.292 HD
ENDBRANCH  10  14
BRANCH  11  16
ATOM     16  O   LIG A   1      -4.501   5.899 132.025  0.00  0.00    -0.503 OA
ATOM     17  H   LIG A   1      -5.267   6.484 132.190  0.00  0.00    +0.292 HD
ENDBRANCH  11  16
ENDBRANCH   7   8
BRANCH   7  18
ATOM     18  C   LIG A   1      -6.513   0.981 128.370  0.00  0.00    +0.210 C 
ATOM     19  C   LIG A   1      -7.392   0.755 129.621  0.00  0.00    +0.240 C 
ATOM     20  C   LIG A   1      -6.533  -0.174 130.484  0.00  0.00    +0.183 C 
ATOM     21  C   LIG A   1      -5.627  -0.835 129.470  0.00  0.00    +0.195 C 
ATOM     22  O   LIG A   1      -5.289   0.227 128.572  0.00  0.00    -0.366 OA
BRANCH  20  23
ATOM     23  O   LIG A   1      -7.298  -1.124 131.210  0.00  0.00    -0.386 OA
ATOM     24  H   LIG A   1      -7.643  -0.672 132.002  0.00  0.00    +0.210 HD
ENDBRANCH  20  23
BRANCH  19  25
ATOM     25  O   LIG A   1      -7.714   1.933 130.392  0.00  0.00    -0.452 OA
BRANCH  25  26
ATOM     26  C   LIG A   1      -8.843   1.925 131.129  0.00  0.00    +0.340 C 
ATOM     27  O   LIG A   1      -9.333   0.936 131.692  0.00  0.00    -0.245 OA
BRANCH  26  28
ATOM     28  C   LIG A   1      -9.432   3.286 131.232  0.00  0.00    +0.066 A 
ATOM     29  C   LIG A   1     -10.318   3.737 130.240  0.00  0.00    +0.060 A 
ATOM     30  C   LIG A   1     -10.913   4.991 130.365  0.00  0.00    +0.121 A 
ATOM     31  C   LIG A   1     -10.629   5.825 131.442  0.00  0.00    +0.090 A 
ATOM     32  C   LIG A   1      -9.716   5.396 132.393  0.00  0.00    +0.121 A 
ATOM     33  C   LIG A   1      -9.136   4.135 132.308  0.00  0.00    +0.060 A 
BRANCH  30  34
ATOM     34  O   LIG A   1     -11.803   5.460 129.443  0.00  0.00    -0.507 OA
ATOM     35  H   LIG A   1     -12.304   6.197 129.835  0.00  0.00    +0.292 HD
ENDBRANCH  30  34
BRANCH  32  36
ATOM     36  O   LIG A   1      -9.355   6.186 133.442  0.00  0.00    -0.507 OA
ATOM     37  H   LIG A   1     -10.135   6.664 133.769  0.00  0.00    +0.292 HD
ENDBRANCH  32  36
ENDBRANCH  26  28
ENDBRANCH  25  26
ENDBRANCH  19  25
ENDBRANCH   7  18
BRANCH   3  38
ATOM     38  C   LIG A   1      -6.350   2.950 123.936  0.00  0.00    +0.050 C 
BRANCH  38  39
ATOM     39  C   LIG A   1      -6.119   3.637 122.611  0.00  0.00    -0.043 A 
ATOM     40  C   LIG A   1      -6.915   3.339 121.492  0.00  0.00    +0.007 A 
ATOM     41  C   LIG A   1      -6.647   3.915 120.245  0.00  0.00    +0.049 A 
ATOM     42  C   LIG A   1      -5.613   4.833 120.131  0.00  0.00    +0.158 A 
ATOM     43  C   LIG A   1      -4.861   5.184 121.248  0.00  0.00    +0.159 A 
ATOM     44  C   LIG A   1      -5.093   4.585 122.479  0.00  0.00    +0.052 A 
BRANCH  42  45
ATOM     45  O   LIG A   1      -5.298   5.426 118.940  0.00  0.00    -0.503 OA
ATOM     46  H   LIG A   1      -5.787   6.264 118.877  0.00  0.00    +0.292 HD
ENDBRANCH  42  45
BRANCH  43  47
ATOM     47  O   LIG A   1      -3.883   6.130 121.141  0.00  0.00    -0.503 OA
ATOM     48  H   LIG A   1      -3.724   6.424 122.059  0.00  0.00    +0.292 HD
ENDBRANCH  43  47
ENDBRANCH  38  39
ENDBRANCH   3  38
TORSDOF 14
ENDMDL
MODEL 7
REMARK VINA RESULT:      -8.3      3.089      8.434
REMARK  Name = NuBBE_510
REMARK  14 active torsions:
REMARK  status: ('A' for Active; 'I' for Inactive)
REMARK    1  A    between atoms: C_3  and  C_5
REMARK    2  A    between atoms: C_5  and  C_6
REMARK    3  A    between atoms: C_9  and  O_10
REMARK    4  A    between atoms: C_11  and  O_12
REMARK    5  A    between atoms: C_17  and  C_18
REMARK    6  A    between atoms: C_17  and  C_37
REMARK    7  A    between atoms: C_19  and  O_21
REMARK    8  A    between atoms: O_21  and  C_22
REMARK    9  A    between atoms: C_22  and  C_23
REMARK   10  A    between atoms: C_25  and  O_26
REMARK   11  A    between atoms: C_28  and  O_29
REMARK   12  A    between atoms: C_32  and  O_34
REMARK   13  A    between atoms: C_39  and  O_40
REMARK   14  A    between atoms: C_41  and  O_42
REMARK                            x       y       z     vdW  Elec       q    Type
REMARK                         _______ _______ _______ _____ _____    ______ ____
ROOT
ATOM      1  O   LIG A   1      -5.087   6.403 129.294  0.00  0.00    -0.251 OA
ATOM      2  C   LIG A   1      -5.150   5.270 129.761  0.00  0.00    +0.311 C 
ATOM      3  C   LIG A   1      -3.939   4.538 130.283  0.00  0.00    +0.102 C 
ATOM      4  C   LIG A   1      -3.944   3.069 129.888  0.00  0.00    +0.019 C 
ATOM      5  C   LIG A   1      -5.314   2.408 129.959  0.00  0.00    +0.057 C 
ATOM      6  O   LIG A   1      -6.327   4.644 129.992  0.00  0.00    -0.450 OA
ATOM      7  C   LIG A   1      -6.504   3.289 129.488  0.00  0.00    +0.168 C 
ENDROOT
BRANCH   7   8
ATOM      8  C   LIG A   1      -6.664   3.463 127.967  0.00  0.00    +0.002 A 
ATOM      9  C   LIG A   1      -7.732   4.227 127.443  0.00  0.00    +0.056 A 
ATOM     10  C   LIG A   1      -7.825   4.480 126.074  0.00  0.00    +0.159 A 
ATOM     11  C   LIG A   1      -6.860   3.991 125.205  0.00  0.00    +0.158 A 
ATOM     12  C   LIG A   1      -5.806   3.239 125.682  0.00  0.00    +0.049 A 
ATOM     13  C   LIG A   1      -5.709   2.980 127.052  0.00  0.00    +0.011 A 
BRANCH  10  14
ATOM     14  O   LIG A   1      -8.836   5.231 125.542  0.00  0.00    -0.503 OA
ATOM     15  H   LIG A   1      -8.892   6.060 126.050  0.00  0.00    +0.292 HD
ENDBRANCH  10  14
BRANCH  11  16
ATOM     16  O   LIG A   1      -6.924   4.275 123.871  0.00  0.00    -0.503 OA
ATOM     17  H   LIG A   1      -6.144   3.824 123.492  0.00  0.00    +0.292 HD
ENDBRANCH  11  16
ENDBRANCH   7   8
BRANCH   7  18
ATOM     18  C   LIG A   1      -7.777   2.716 130.206  0.00  0.00    +0.210 C 
ATOM     19  C   LIG A   1      -8.535   3.592 131.229  0.00  0.00    +0.240 C 
ATOM     20  C   LIG A   1      -8.710   2.654 132.426  0.00  0.00    +0.183 C 
ATOM     21  C   LIG A   1      -8.618   1.282 131.796  0.00  0.00    +0.195 C 
ATOM     22  O   LIG A   1      -7.573   1.421 130.829  0.00  0.00    -0.366 OA
BRANCH  20  23
ATOM     23  O   LIG A   1      -9.940   2.843 133.108  0.00  0.00    -0.386 OA
ATOM     24  H   LIG A   1     -10.302   3.700 132.817  0.00  0.00    +0.210 HD
ENDBRANCH  20  23
BRANCH  19  25
ATOM     25  O   LIG A   1      -7.852   4.784 131.674  0.00  0.00    -0.452 OA
BRANCH  25  26
ATOM     26  C   LIG A   1      -8.543   5.682 132.405  0.00  0.00    +0.340 C 
ATOM     27  O   LIG A   1      -8.340   5.956 133.596  0.00  0.00    -0.245 OA
BRANCH  26  28
ATOM     28  C   LIG A   1      -9.583   6.361 131.588  0.00  0.00    +0.066 A 
ATOM     29  C   LIG A   1      -9.214   7.026 130.407  0.00  0.00    +0.060 A 
ATOM     30  C   LIG A   1     -10.196   7.614 129.612  0.00  0.00    +0.121 A 
ATOM     31  C   LIG A   1     -11.539   7.583 129.975  0.00  0.00    +0.090 A 
ATOM     32  C   LIG A   1     -11.892   6.970 131.167  0.00  0.00    +0.121 A 
ATOM     33  C   LIG A   1     -10.935   6.346 131.959  0.00  0.00    +0.060 A 
BRANCH  30  34
ATOM     34  O   LIG A   1      -9.891   8.246 128.441  0.00  0.00    -0.507 OA
ATOM     35  H   LIG A   1     -10.479   9.014 128.335  0.00  0.00    +0.292 HD
ENDBRANCH  30  34
BRANCH  32  36
ATOM     36  O   LIG A   1     -13.181   6.952 131.605  0.00  0.00    -0.507 OA
ATOM     37  H   LIG A   1     -13.635   6.174 131.240  0.00  0.00    +0.292 HD
ENDBRANCH  32  36
ENDBRANCH  26  28
ENDBRANCH  25  26
ENDBRANCH  19  25
ENDBRANCH   7  18
BRANCH   3  38
ATOM     38  C   LIG A   1      -3.701   4.830 131.777  0.00  0.00    +0.050 C 
BRANCH  38  39
ATOM     39  C   LIG A   1      -2.690   5.898 132.122  0.00  0.00    -0.043 A 
ATOM     40  C   LIG A   1      -1.347   5.571 132.372  0.00  0.00    +0.007 A 
ATOM     41  C   LIG A   1      -0.430   6.550 132.772  0.00  0.00    +0.049 A 
ATOM     42  C   LIG A   1      -0.847   7.870 132.867  0.00  0.00    +0.158 A 
ATOM     43  C   LIG A   1      -2.159   8.214 132.557  0.00  0.00    +0.159 A 
ATOM     44  C   LIG A   1      -3.085   7.242 132.202  0.00  0.00    +0.052 A 
BRANCH  42  45
ATOM     45  O   LIG A   1      -0.002   8.871 133.257  0.00  0.00    -0.503 OA
ATOM     46  H   LIG A   1      -0.464   9.423 133.911  0.00  0.00    +0.292 HD
ENDBRANCH  42  45
BRANCH  43  47
ATOM     47  O   LIG A   1      -2.549   9.522 132.598  0.00  0.00    -0.503 OA
ATOM     48  H   LIG A   1      -1.734  10.015 132.817  0.00  0.00    +0.292 HD
ENDBRANCH  43  47
ENDBRANCH  38  39
ENDBRANCH   3  38
TORSDOF 14
ENDMDL
MODEL 8
REMARK VINA RESULT:      -8.3      4.233      7.478
REMARK  Name = NuBBE_510
REMARK  14 active torsions:
REMARK  status: ('A' for Active; 'I' for Inactive)
REMARK    1  A    between atoms: C_3  and  C_5
REMARK    2  A    between atoms: C_5  and  C_6
REMARK    3  A    between atoms: C_9  and  O_10
REMARK    4  A    between atoms: C_11  and  O_12
REMARK    5  A    between atoms: C_17  and  C_18
REMARK    6  A    between atoms: C_17  and  C_37
REMARK    7  A    between atoms: C_19  and  O_21
REMARK    8  A    between atoms: O_21  and  C_22
REMARK    9  A    between atoms: C_22  and  C_23
REMARK   10  A    between atoms: C_25  and  O_26
REMARK   11  A    between atoms: C_28  and  O_29
REMARK   12  A    between atoms: C_32  and  O_34
REMARK   13  A    between atoms: C_39  and  O_40
REMARK   14  A    between atoms: C_41  and  O_42
REMARK                            x       y       z     vdW  Elec       q    Type
REMARK                         _______ _______ _______ _____ _____    ______ ____
ROOT
ATOM      1  O   LIG A   1      -9.457   2.906 131.244  0.00  0.00    -0.251 OA
ATOM      2  C   LIG A   1      -8.782   3.872 131.584  0.00  0.00    +0.311 C 
ATOM      3  C   LIG A   1      -8.935   5.233 130.953  0.00  0.00    +0.102 C 
ATOM      4  C   LIG A   1      -7.593   5.909 130.718  0.00  0.00    +0.019 C 
ATOM      5  C   LIG A   1      -6.586   5.708 131.843  0.00  0.00    +0.057 C 
ATOM      6  O   LIG A   1      -7.956   3.839 132.655  0.00  0.00    -0.450 OA
ATOM      7  C   LIG A   1      -6.582   4.295 132.488  0.00  0.00    +0.168 C 
ENDROOT
BRANCH   7   8
ATOM      8  C   LIG A   1      -5.903   3.176 131.677  0.00  0.00    +0.002 A 
ATOM      9  C   LIG A   1      -5.267   3.469 130.450  0.00  0.00    +0.056 A 
ATOM     10  C   LIG A   1      -4.557   2.484 129.761  0.00  0.00    +0.159 A 
ATOM     11  C   LIG A   1      -4.457   1.201 130.280  0.00  0.00    +0.158 A 
ATOM     12  C   LIG A   1      -5.069   0.881 131.475  0.00  0.00    +0.049 A 
ATOM     13  C   LIG A   1      -5.783   1.863 132.168  0.00  0.00    +0.011 A 
BRANCH  10  14
ATOM     14  O   LIG A   1      -3.916   2.742 128.581  0.00  0.00    -0.503 OA
ATOM     15  H   LIG A   1      -4.534   3.228 128.005  0.00  0.00    +0.292 HD
ENDBRANCH  10  14
BRANCH  11  16
ATOM     16  O   LIG A   1      -3.726   0.249 129.632  0.00  0.00    -0.503 OA
ATOM     17  H   LIG A   1      -2.976   0.742 129.245  0.00  0.00    +0.292 HD
ENDBRANCH  11  16
ENDBRANCH   7   8
BRANCH   7  18
ATOM     18  C   LIG A   1      -6.002   4.482 133.935  0.00  0.00    +0.210 C 
ATOM     19  C   LIG A   1      -4.533   4.927 134.117  0.00  0.00    +0.240 C 
ATOM     20  C   LIG A   1      -3.995   3.932 135.148  0.00  0.00    +0.183 C 
ATOM     21  C   LIG A   1      -5.248   3.472 135.859  0.00  0.00    +0.195 C 
ATOM     22  O   LIG A   1      -6.207   3.339 134.807  0.00  0.00    -0.366 OA
BRANCH  20  23
ATOM     23  O   LIG A   1      -3.059   4.511 136.045  0.00  0.00    -0.386 OA
ATOM     24  H   LIG A   1      -2.727   5.326 135.628  0.00  0.00    +0.210 HD
ENDBRANCH  20  23
BRANCH  19  25
ATOM     25  O   LIG A   1      -3.701   4.866 132.939  0.00  0.00    -0.452 OA
BRANCH  25  26
ATOM     26  C   LIG A   1      -2.871   5.899 132.687  0.00  0.00    +0.340 C 
ATOM     27  O   LIG A   1      -2.056   6.383 133.484  0.00  0.00    -0.245 OA
BRANCH  26  28
ATOM     28  C   LIG A   1      -3.017   6.382 131.289  0.00  0.00    +0.066 A 
ATOM     29  C   LIG A   1      -3.634   7.619 131.042  0.00  0.00    +0.060 A 
ATOM     30  C   LIG A   1      -3.720   8.098 129.735  0.00  0.00    +0.121 A 
ATOM     31  C   LIG A   1      -3.232   7.363 128.659  0.00  0.00    +0.090 A 
ATOM     32  C   LIG A   1      -2.670   6.120 128.904  0.00  0.00    +0.121 A 
ATOM     33  C   LIG A   1      -2.541   5.637 130.201  0.00  0.00    +0.060 A 
BRANCH  30  34
ATOM     34  O   LIG A   1      -4.284   9.307 129.448  0.00  0.00    -0.507 OA
ATOM     35  H   LIG A   1      -3.591   9.908 129.122  0.00  0.00    +0.292 HD
ENDBRANCH  30  34
BRANCH  32  36
ATOM     36  O   LIG A   1      -2.222   5.329 127.890  0.00  0.00    -0.507 OA
ATOM     37  H   LIG A   1      -1.782   4.546 128.261  0.00  0.00    +0.292 HD
ENDBRANCH  32  36
ENDBRANCH  26  28
ENDBRANCH  25  26
ENDBRANCH  19  25
ENDBRANCH   7  18
BRANCH   3  38
ATOM     38  C   LIG A   1      -9.994   6.081 131.684  0.00  0.00    +0.050 C 
BRANCH  38  39
ATOM     39  C   LIG A   1     -10.949   6.882 130.832  0.00  0.00    -0.043 A 
ATOM     40  C   LIG A   1     -12.315   6.960 131.152  0.00  0.00    +0.007 A 
ATOM     41  C   LIG A   1     -13.214   7.634 130.317  0.00  0.00    +0.049 A 
ATOM     42  C   LIG A   1     -12.732   8.280 129.187  0.00  0.00    +0.158 A 
ATOM     43  C   LIG A   1     -11.371   8.265 128.898  0.00  0.00    +0.159 A 
ATOM     44  C   LIG A   1     -10.481   7.562 129.698  0.00  0.00    +0.052 A 
BRANCH  42  45
ATOM     45  O   LIG A   1     -13.558   8.951 128.329  0.00  0.00    -0.503 OA
ATOM     46  H   LIG A   1     -13.593   8.458 127.491  0.00  0.00    +0.292 HD
ENDBRANCH  42  45
BRANCH  43  47
ATOM     47  O   LIG A   1     -10.897   8.950 127.816  0.00  0.00    -0.503 OA
ATOM     48  H   LIG A   1      -9.995   8.601 127.680  0.00  0.00    +0.292 HD
ENDBRANCH  43  47
ENDBRANCH  38  39
ENDBRANCH   3  38
TORSDOF 14
ENDMDL
MODEL 9
REMARK VINA RESULT:      -8.3      4.183      7.762
REMARK  Name = NuBBE_510
REMARK  14 active torsions:
REMARK  status: ('A' for Active; 'I' for Inactive)
REMARK    1  A    between atoms: C_3  and  C_5
REMARK    2  A    between atoms: C_5  and  C_6
REMARK    3  A    between atoms: C_9  and  O_10
REMARK    4  A    between atoms: C_11  and  O_12
REMARK    5  A    between atoms: C_17  and  C_18
REMARK    6  A    between atoms: C_17  and  C_37
REMARK    7  A    between atoms: C_19  and  O_21
REMARK    8  A    between atoms: O_21  and  C_22
REMARK    9  A    between atoms: C_22  and  C_23
REMARK   10  A    between atoms: C_25  and  O_26
REMARK   11  A    between atoms: C_28  and  O_29
REMARK   12  A    between atoms: C_32  and  O_34
REMARK   13  A    between atoms: C_39  and  O_40
REMARK   14  A    between atoms: C_41  and  O_42
REMARK                            x       y       z     vdW  Elec       q    Type
REMARK                         _______ _______ _______ _____ _____    ______ ____
ROOT
ATOM      1  O   LIG A   1      -7.291   4.105 129.526  0.00  0.00    -0.251 OA
ATOM      2  C   LIG A   1      -6.829   4.899 130.339  0.00  0.00    +0.311 C 
ATOM      3  C   LIG A   1      -7.320   6.321 130.455  0.00  0.00    +0.102 C 
ATOM      4  C   LIG A   1      -6.178   7.304 130.666  0.00  0.00    +0.019 C 
ATOM      5  C   LIG A   1      -5.087   6.804 131.602  0.00  0.00    +0.057 C 
ATOM      6  O   LIG A   1      -5.954   4.527 131.302  0.00  0.00    -0.450 OA
ATOM      7  C   LIG A   1      -4.729   5.299 131.463  0.00  0.00    +0.168 C 
ENDROOT
BRANCH   7   8
ATOM      8  C   LIG A   1      -3.867   4.911 130.248  0.00  0.00    +0.002 A 
ATOM      9  C   LIG A   1      -3.902   3.592 129.740  0.00  0.00    +0.056 A 
ATOM     10  C   LIG A   1      -3.209   3.258 128.576  0.00  0.00    +0.159 A 
ATOM     11  C   LIG A   1      -2.481   4.222 127.893  0.00  0.00    +0.158 A 
ATOM     12  C   LIG A   1      -2.423   5.518 128.364  0.00  0.00    +0.049 A 
ATOM     13  C   LIG A   1      -3.114   5.858 129.530  0.00  0.00    +0.011 A 
BRANCH  10  14
ATOM     14  O   LIG A   1      -3.238   1.996 128.050  0.00  0.00    -0.503 OA
ATOM     15  H   LIG A   1      -2.933   1.378 128.739  0.00  0.00    +0.292 HD
ENDBRANCH  10  14
BRANCH  11  16
ATOM     16  O   LIG A   1      -1.839   3.908 126.730  0.00  0.00    -0.503 OA
ATOM     17  H   LIG A   1      -0.956   3.603 127.017  0.00  0.00    +0.292 HD
ENDBRANCH  11  16
ENDBRANCH   7   8
BRANCH   7  18
ATOM     18  C   LIG A   1      -4.119   4.870 132.846  0.00  0.00    +0.210 C 
ATOM     19  C   LIG A   1      -5.049   4.692 134.068  0.00  0.00    +0.240 C 
ATOM     20  C   LIG A   1      -4.331   5.479 135.167  0.00  0.00    +0.183 C 
ATOM     21  C   LIG A   1      -2.895   5.488 134.693  0.00  0.00    +0.195 C 
ATOM     22  O   LIG A   1      -3.004   5.691 133.281  0.00  0.00    -0.366 OA
BRANCH  20  23
ATOM     23  O   LIG A   1      -4.462   4.889 136.451  0.00  0.00    -0.386 OA
ATOM     24  H   LIG A   1      -5.160   4.212 136.387  0.00  0.00    +0.210 HD
ENDBRANCH  20  23
BRANCH  19  25
ATOM     25  O   LIG A   1      -6.389   5.212 133.928  0.00  0.00    -0.452 OA
BRANCH  25  26
ATOM     26  C   LIG A   1      -7.393   4.571 134.558  0.00  0.00    +0.340 C 
ATOM     27  O   LIG A   1      -7.905   4.908 135.634  0.00  0.00    -0.245 OA
BRANCH  26  28
ATOM     28  C   LIG A   1      -7.864   3.399 133.774  0.00  0.00    +0.066 A 
ATOM     29  C   LIG A   1      -9.106   3.453 133.121  0.00  0.00    +0.060 A 
ATOM     30  C   LIG A   1      -9.521   2.376 132.339  0.00  0.00    +0.121 A 
ATOM     31  C   LIG A   1      -8.744   1.229 132.212  0.00  0.00    +0.090 A 
ATOM     32  C   LIG A   1      -7.543   1.160 132.900  0.00  0.00    +0.121 A 
ATOM     33  C   LIG A   1      -7.091   2.235 133.657  0.00  0.00    +0.060 A 
BRANCH  30  34
ATOM     34  O   LIG A   1     -10.706   2.393 131.661  0.00  0.00    -0.507 OA
ATOM     35  H   LIG A   1     -11.362   2.886 132.186  0.00  0.00    +0.292 HD
ENDBRANCH  30  34
BRANCH  32  36
ATOM     36  O   LIG A   1      -6.762   0.045 132.860  0.00  0.00    -0.507 OA
ATOM     37  H   LIG A   1      -5.903   0.266 132.462  0.00  0.00    +0.292 HD
ENDBRANCH  32  36
ENDBRANCH  26  28
ENDBRANCH  25  26
ENDBRANCH  19  25
ENDBRANCH   7  18
BRANCH   3  38
ATOM     38  C   LIG A   1      -8.495   6.435 131.445  0.00  0.00    +0.050 C 
BRANCH  38  39
ATOM     39  C   LIG A   1      -9.835   6.848 130.885  0.00  0.00    -0.043 A 
ATOM     40  C   LIG A   1     -11.033   6.456 131.507  0.00  0.00    +0.007 A 
ATOM     41  C   LIG A   1     -12.274   6.770 130.941  0.00  0.00    +0.049 A 
ATOM     42  C   LIG A   1     -12.316   7.526 129.778  0.00  0.00    +0.158 A 
ATOM     43  C   LIG A   1     -11.138   7.975 129.191  0.00  0.00    +0.159 A 
ATOM     44  C   LIG A   1      -9.901   7.631 129.723  0.00  0.00    +0.052 A 
BRANCH  42  45
ATOM     45  O   LIG A   1     -13.496   7.860 129.174  0.00  0.00    -0.503 OA
ATOM     46  H   LIG A   1     -13.317   8.042 128.235  0.00  0.00    +0.292 HD
ENDBRANCH  42  45
BRANCH  43  47
ATOM     47  O   LIG A   1     -11.188   8.765 128.079  0.00  0.00    -0.503 OA
ATOM     48  H   LIG A   1     -10.851   9.632 128.378  0.00  0.00    +0.292 HD
ENDBRANCH  43  47
ENDBRANCH  38  39
ENDBRANCH   3  38
TORSDOF 14
ENDMDL
