MODEL 1
REMARK VINA RESULT:      -8.3      0.000      0.000
REMARK  Name = NuBBE_1251
REMARK  11 active torsions:
REMARK  status: ('A' for Active; 'I' for Inactive)
REMARK    1  A    between atoms: C_5  and  O_6
REMARK    2  A    between atoms: C_7  and  O_40
REMARK    3  A    between atoms: C_14  and  O_15
REMARK    4  A    between atoms: C_16  and  O_17
REMARK    5  A    between atoms: O_17  and  C_18
REMARK    6  A    between atoms: C_21  and  C_35
REMARK    7  A    between atoms: C_23  and  O_34
REMARK    8  A    between atoms: C_25  and  O_30
REMARK    9  A    between atoms: C_27  and  O_29
REMARK   10  A    between atoms: O_30  and  C_31
REMARK   11  A    between atoms: C_31  and  C_32
REMARK                            x       y       z     vdW  Elec       q    Type
REMARK                         _______ _______ _______ _____ _____    ______ ____
ROOT
ATOM      1  O   LIG A   1      -9.345   2.017 122.210  0.00  0.00    -0.244 OA
ATOM      2  C   LIG A   1      -8.962   1.882 123.364  0.00  0.00    +0.345 A 
ATOM      3  C   LIG A   1      -8.836   0.530 123.976  0.00  0.00    +0.074 A 
ATOM      4  C   LIG A   1      -9.095  -0.633 123.227  0.00  0.00    +0.065 A 
ATOM      5  C   LIG A   1      -8.948  -1.881 123.834  0.00  0.00    +0.163 A 
ATOM      6  C   LIG A   1      -8.557  -1.984 125.166  0.00  0.00    +0.202 A 
ATOM      7  C   LIG A   1      -8.337  -0.830 125.900  0.00  0.00    +0.185 A 
ATOM      8  O   LIG A   1      -8.000  -0.954 127.264  0.00  0.00    -0.418 OA
ATOM      9  C   LIG A   1      -8.465   0.426 125.315  0.00  0.00    +0.047 A 
ATOM     10  C   LIG A   1      -8.228   1.594 126.107  0.00  0.00    +0.047 A 
ATOM     11  C   LIG A   1      -8.273   2.860 125.540  0.00  0.00    +0.185 A 
ATOM     12  O   LIG A   1      -8.609   2.982 124.165  0.00  0.00    -0.418 OA
ATOM     13  C   LIG A   1      -8.006   4.010 126.303  0.00  0.00    +0.203 A 
ATOM     14  C   LIG A   1      -7.735   3.888 127.679  0.00  0.00    +0.170 A 
ATOM     15  C   LIG A   1      -7.757   2.607 128.239  0.00  0.00    +0.065 A 
ATOM     16  C   LIG A   1      -7.960   1.472 127.459  0.00  0.00    +0.074 A 
ATOM     17  C   LIG A   1      -7.855   0.141 128.101  0.00  0.00    +0.345 A 
ATOM     18  O   LIG A   1      -7.616   0.029 129.297  0.00  0.00    -0.244 OA
ENDROOT
BRANCH   5  19
ATOM     19  O   LIG A   1      -9.182  -3.050 123.163  0.00  0.00    -0.503 OA
ATOM     20  H   LIG A   1      -8.446  -3.665 123.329  0.00  0.00    +0.292 HD
ENDBRANCH   5  19
BRANCH  13  21
ATOM     21  O   LIG A   1      -8.015   5.241 125.708  0.00  0.00    -0.501 OA
ATOM     22  H   LIG A   1      -8.090   5.918 126.404  0.00  0.00    +0.292 HD
ENDBRANCH  13  21
BRANCH   6  23
ATOM     23  O   LIG A   1      -8.405  -3.210 125.746  0.00  0.00    -0.501 OA
ATOM     24  H   LIG A   1      -9.139  -3.756 125.404  0.00  0.00    +0.292 HD
ENDBRANCH   6  23
BRANCH  14  25
ATOM     25  O   LIG A   1      -7.456   5.017 128.423  0.00  0.00    -0.457 OA
BRANCH  25  26
ATOM     26  C   LIG A   1      -8.494   5.457 129.340  0.00  0.00    +0.341 C 
ATOM     27  O   LIG A   1      -8.569   4.551 130.450  0.00  0.00    -0.334 OA
ATOM     28  C   LIG A   1      -9.557   4.842 131.440  0.00  0.00    +0.151 C 
ATOM     29  C   LIG A   1     -10.960   4.953 130.809  0.00  0.00    +0.186 C 
ATOM     30  C   LIG A   1     -10.977   5.919 129.614  0.00  0.00    +0.242 C 
ATOM     31  C   LIG A   1      -9.858   5.557 128.614  0.00  0.00    +0.226 C 
ATOM     32  C   LIG A   1      -9.162   6.025 132.325  0.00  0.00    +0.040 C 
BRANCH  31  33
ATOM     33  O   LIG A   1      -9.833   6.541 127.566  0.00  0.00    -0.382 OA
ATOM     34  H   LIG A   1      -9.727   6.068 126.722  0.00  0.00    +0.210 HD
ENDBRANCH  31  33
BRANCH  29  35
ATOM     35  O   LIG A   1     -11.377   3.666 130.336  0.00  0.00    -0.386 OA
ATOM     36  H   LIG A   1     -11.056   3.552 129.425  0.00  0.00    +0.210 HD
ENDBRANCH  29  35
BRANCH  30  37
ATOM     37  O   LIG A   1     -10.762   7.270 130.092  0.00  0.00    -0.456 OA
BRANCH  37  38
ATOM     38  C   LIG A   1     -11.662   8.210 129.674  0.00  0.00    +0.304 C 
ATOM     39  C   LIG A   1     -12.819   8.252 130.632  0.00  0.00    +0.136 C 
ATOM     40  O   LIG A   1     -11.612   8.826 128.631  0.00  0.00    -0.251 OA
ENDBRANCH  37  38
ENDBRANCH  30  37
ENDBRANCH  25  26
ENDBRANCH  14  25
TORSDOF 9
ENDMDL
MODEL 2
REMARK VINA RESULT:      -8.3      2.141      3.996
REMARK  Name = NuBBE_1251
REMARK  11 active torsions:
REMARK  status: ('A' for Active; 'I' for Inactive)
REMARK    1  A    between atoms: C_5  and  O_6
REMARK    2  A    between atoms: C_7  and  O_40
REMARK    3  A    between atoms: C_14  and  O_15
REMARK    4  A    between atoms: C_16  and  O_17
REMARK    5  A    between atoms: O_17  and  C_18
REMARK    6  A    between atoms: C_21  and  C_35
REMARK    7  A    between atoms: C_23  and  O_34
REMARK    8  A    between atoms: C_25  and  O_30
REMARK    9  A    between atoms: C_27  and  O_29
REMARK   10  A    between atoms: O_30  and  C_31
REMARK   11  A    between atoms: C_31  and  C_32
REMARK                            x       y       z     vdW  Elec       q    Type
REMARK                         _______ _______ _______ _____ _____    ______ ____
ROOT
ATOM      1  O   LIG A   1      -4.950  -3.112 128.638  0.00  0.00    -0.244 OA
ATOM      2  C   LIG A   1      -5.704  -2.185 128.375  0.00  0.00    +0.345 A 
ATOM      3  C   LIG A   1      -5.974  -1.795 126.963  0.00  0.00    +0.074 A 
ATOM      4  C   LIG A   1      -5.419  -2.518 125.891  0.00  0.00    +0.065 A 
ATOM      5  C   LIG A   1      -5.711  -2.130 124.583  0.00  0.00    +0.163 A 
ATOM      6  C   LIG A   1      -6.537  -1.037 124.332  0.00  0.00    +0.202 A 
ATOM      7  C   LIG A   1      -7.051  -0.316 125.397  0.00  0.00    +0.185 A 
ATOM      8  O   LIG A   1      -7.836   0.823 125.122  0.00  0.00    -0.418 OA
ATOM      9  C   LIG A   1      -6.783  -0.689 126.711  0.00  0.00    +0.047 A 
ATOM     10  C   LIG A   1      -7.334   0.082 127.784  0.00  0.00    +0.047 A 
ATOM     11  C   LIG A   1      -7.151  -0.304 129.104  0.00  0.00    +0.185 A 
ATOM     12  O   LIG A   1      -6.364  -1.453 129.378  0.00  0.00    -0.418 OA
ATOM     13  C   LIG A   1      -7.719   0.428 130.161  0.00  0.00    +0.203 A 
ATOM     14  C   LIG A   1      -8.447   1.601 129.888  0.00  0.00    +0.170 A 
ATOM     15  C   LIG A   1      -8.564   2.001 128.553  0.00  0.00    +0.065 A 
ATOM     16  C   LIG A   1      -8.051   1.234 127.512  0.00  0.00    +0.074 A 
ATOM     17  C   LIG A   1      -8.313   1.661 126.118  0.00  0.00    +0.345 A 
ATOM     18  O   LIG A   1      -8.948   2.680 125.874  0.00  0.00    -0.244 OA
ENDROOT
BRANCH   5  19
ATOM     19  O   LIG A   1      -5.206  -2.788 123.497  0.00  0.00    -0.503 OA
ATOM     20  H   LIG A   1      -5.075  -2.153 122.771  0.00  0.00    +0.292 HD
ENDBRANCH   5  19
BRANCH  13  21
ATOM     21  O   LIG A   1      -7.559   0.000 131.451  0.00  0.00    -0.501 OA
ATOM     22  H   LIG A   1      -7.599  -0.973 131.459  0.00  0.00    +0.292 HD
ENDBRANCH  13  21
BRANCH   6  23
ATOM     23  O   LIG A   1      -6.826  -0.673 123.049  0.00  0.00    -0.501 OA
ATOM     24  H   LIG A   1      -6.123  -0.048 122.787  0.00  0.00    +0.292 HD
ENDBRANCH   6  23
BRANCH  14  25
ATOM     25  O   LIG A   1      -9.018   2.309 130.926  0.00  0.00    -0.457 OA
BRANCH  25  26
ATOM     26  C   LIG A   1      -9.005   3.756 130.803  0.00  0.00    +0.341 C 
ATOM     27  O   LIG A   1      -8.163   4.316 131.822  0.00  0.00    -0.334 OA
ATOM     28  C   LIG A   1      -8.055   5.740 131.843  0.00  0.00    +0.151 C 
ATOM     29  C   LIG A   1      -9.444   6.402 131.944  0.00  0.00    +0.186 C 
ATOM     30  C   LIG A   1     -10.412   5.869 130.876  0.00  0.00    +0.242 C 
ATOM     31  C   LIG A   1     -10.441   4.326 130.898  0.00  0.00    +0.226 C 
ATOM     32  C   LIG A   1      -7.177   6.273 130.708  0.00  0.00    +0.040 C 
BRANCH  31  33
ATOM     33  O   LIG A   1     -11.271   3.860 129.819  0.00  0.00    -0.382 OA
ATOM     34  H   LIG A   1     -10.765   3.187 129.330  0.00  0.00    +0.210 HD
ENDBRANCH  31  33
BRANCH  29  35
ATOM     35  O   LIG A   1     -10.015   6.124 133.228  0.00  0.00    -0.386 OA
ATOM     36  H   LIG A   1     -10.121   5.161 133.319  0.00  0.00    +0.210 HD
ENDBRANCH  29  35
BRANCH  30  37
ATOM     37  O   LIG A   1      -9.970   6.314 129.569  0.00  0.00    -0.456 OA
BRANCH  37  38
ATOM     38  C   LIG A   1     -10.911   6.921 128.785  0.00  0.00    +0.304 C 
ATOM     39  C   LIG A   1     -10.482   8.331 128.494  0.00  0.00    +0.136 C 
ATOM     40  O   LIG A   1     -11.986   6.454 128.477  0.00  0.00    -0.251 OA
ENDBRANCH  37  38
ENDBRANCH  30  37
ENDBRANCH  25  26
ENDBRANCH  14  25
TORSDOF 9
ENDMDL
MODEL 3
REMARK VINA RESULT:      -8.3      2.826      4.601
REMARK  Name = NuBBE_1251
REMARK  11 active torsions:
REMARK  status: ('A' for Active; 'I' for Inactive)
REMARK    1  A    between atoms: C_5  and  O_6
REMARK    2  A    between atoms: C_7  and  O_40
REMARK    3  A    between atoms: C_14  and  O_15
REMARK    4  A    between atoms: C_16  and  O_17
REMARK    5  A    between atoms: O_17  and  C_18
REMARK    6  A    between atoms: C_21  and  C_35
REMARK    7  A    between atoms: C_23  and  O_34
REMARK    8  A    between atoms: C_25  and  O_30
REMARK    9  A    between atoms: C_27  and  O_29
REMARK   10  A    between atoms: O_30  and  C_31
REMARK   11  A    between atoms: C_31  and  C_32
REMARK                            x       y       z     vdW  Elec       q    Type
REMARK                         _______ _______ _______ _____ _____    ______ ____
ROOT
ATOM      1  O   LIG A   1      -9.657   1.974 122.177  0.00  0.00    -0.244 OA
ATOM      2  C   LIG A   1      -8.836   2.290 123.027  0.00  0.00    +0.345 A 
ATOM      3  C   LIG A   1      -7.611   3.055 122.662  0.00  0.00    +0.074 A 
ATOM      4  C   LIG A   1      -7.393   3.489 121.342  0.00  0.00    +0.065 A 
ATOM      5  C   LIG A   1      -6.241   4.219 121.045  0.00  0.00    +0.163 A 
ATOM      6  C   LIG A   1      -5.309   4.513 122.037  0.00  0.00    +0.202 A 
ATOM      7  C   LIG A   1      -5.521   4.052 123.326  0.00  0.00    +0.185 A 
ATOM      8  O   LIG A   1      -4.538   4.309 124.303  0.00  0.00    -0.418 OA
ATOM      9  C   LIG A   1      -6.668   3.332 123.649  0.00  0.00    +0.047 A 
ATOM     10  C   LIG A   1      -6.851   2.874 124.993  0.00  0.00    +0.047 A 
ATOM     11  C   LIG A   1      -8.016   2.219 125.369  0.00  0.00    +0.185 A 
ATOM     12  O   LIG A   1      -9.006   1.966 124.385  0.00  0.00    -0.418 OA
ATOM     13  C   LIG A   1      -8.218   1.799 126.695  0.00  0.00    +0.203 A 
ATOM     14  C   LIG A   1      -7.207   1.998 127.654  0.00  0.00    +0.170 A 
ATOM     15  C   LIG A   1      -6.018   2.604 127.235  0.00  0.00    +0.065 A 
ATOM     16  C   LIG A   1      -5.856   3.072 125.934  0.00  0.00    +0.074 A 
ATOM     17  C   LIG A   1      -4.616   3.807 125.593  0.00  0.00    +0.345 A 
ATOM     18  O   LIG A   1      -3.734   3.985 126.424  0.00  0.00    -0.244 OA
ENDROOT
BRANCH   5  19
ATOM     19  O   LIG A   1      -5.968   4.671 119.784  0.00  0.00    -0.503 OA
ATOM     20  H   LIG A   1      -6.559   4.225 119.151  0.00  0.00    +0.292 HD
ENDBRANCH   5  19
BRANCH  13  21
ATOM     21  O   LIG A   1      -9.393   1.194 127.048  0.00  0.00    -0.501 OA
ATOM     22  H   LIG A   1      -9.335   0.932 127.984  0.00  0.00    +0.292 HD
ENDBRANCH  13  21
BRANCH   6  23
ATOM     23  O   LIG A   1      -4.192   5.237 121.739  0.00  0.00    -0.501 OA
ATOM     24  H   LIG A   1      -4.383   5.677 120.888  0.00  0.00    +0.292 HD
ENDBRANCH   6  23
BRANCH  14  25
ATOM     25  O   LIG A   1      -7.414   1.599 128.959  0.00  0.00    -0.457 OA
BRANCH  25  26
ATOM     26  C   LIG A   1      -7.460   2.654 129.956  0.00  0.00    +0.341 C 
ATOM     27  O   LIG A   1      -6.570   2.335 131.035  0.00  0.00    -0.334 OA
ATOM     28  C   LIG A   1      -6.511   3.275 132.108  0.00  0.00    +0.151 C 
ATOM     29  C   LIG A   1      -7.912   3.536 132.697  0.00  0.00    +0.186 C 
ATOM     30  C   LIG A   1      -8.933   3.901 131.608  0.00  0.00    +0.242 C 
ATOM     31  C   LIG A   1      -8.906   2.855 130.472  0.00  0.00    +0.226 C 
ATOM     32  C   LIG A   1      -5.734   4.539 131.732  0.00  0.00    +0.040 C 
BRANCH  31  33
ATOM     33  O   LIG A   1      -9.791   3.283 129.423  0.00  0.00    -0.382 OA
ATOM     34  H   LIG A   1      -9.267   3.809 128.794  0.00  0.00    +0.210 HD
ENDBRANCH  31  33
BRANCH  29  35
ATOM     35  O   LIG A   1      -8.383   2.354 133.357  0.00  0.00    -0.386 OA
ATOM     36  H   LIG A   1      -7.654   1.711 133.398  0.00  0.00    +0.210 HD
ENDBRANCH  29  35
BRANCH  30  37
ATOM     37  O   LIG A   1      -8.598   5.200 131.059  0.00  0.00    -0.456 OA
BRANCH  37  38
ATOM     38  C   LIG A   1      -9.432   6.231 131.394  0.00  0.00    +0.304 C 
ATOM     39  C   LIG A   1      -9.587   7.149 130.214  0.00  0.00    +0.136 C 
ATOM     40  O   LIG A   1      -9.878   6.454 132.499  0.00  0.00    -0.251 OA
ENDBRANCH  37  38
ENDBRANCH  30  37
ENDBRANCH  25  26
ENDBRANCH  14  25
TORSDOF 9
ENDMDL
MODEL 4
REMARK VINA RESULT:      -8.2      3.532      4.897
REMARK  Name = NuBBE_1251
REMARK  11 active torsions:
REMARK  status: ('A' for Active; 'I' for Inactive)
REMARK    1  A    between atoms: C_5  and  O_6
REMARK    2  A    between atoms: C_7  and  O_40
REMARK    3  A    between atoms: C_14  and  O_15
REMARK    4  A    between atoms: C_16  and  O_17
REMARK    5  A    between atoms: O_17  and  C_18
REMARK    6  A    between atoms: C_21  and  C_35
REMARK    7  A    between atoms: C_23  and  O_34
REMARK    8  A    between atoms: C_25  and  O_30
REMARK    9  A    between atoms: C_27  and  O_29
REMARK   10  A    between atoms: O_30  and  C_31
REMARK   11  A    between atoms: C_31  and  C_32
REMARK                            x       y       z     vdW  Elec       q    Type
REMARK                         _______ _______ _______ _____ _____    ______ ____
ROOT
ATOM      1  O   LIG A   1      -9.345   2.478 122.105  0.00  0.00    -0.244 OA
ATOM      2  C   LIG A   1      -8.527   2.275 122.993  0.00  0.00    +0.345 A 
ATOM      3  C   LIG A   1      -8.386   0.927 123.611  0.00  0.00    +0.074 A 
ATOM      4  C   LIG A   1      -9.146  -0.165 123.152  0.00  0.00    +0.065 A 
ATOM      5  C   LIG A   1      -8.970  -1.415 123.747  0.00  0.00    +0.163 A 
ATOM      6  C   LIG A   1      -8.062  -1.588 124.788  0.00  0.00    +0.202 A 
ATOM      7  C   LIG A   1      -7.344  -0.497 125.250  0.00  0.00    +0.185 A 
ATOM      8  O   LIG A   1      -6.472  -0.679 126.344  0.00  0.00    -0.418 OA
ATOM      9  C   LIG A   1      -7.492   0.758 124.666  0.00  0.00    +0.047 A 
ATOM     10  C   LIG A   1      -6.731   1.860 125.172  0.00  0.00    +0.047 A 
ATOM     11  C   LIG A   1      -6.797   3.107 124.567  0.00  0.00    +0.185 A 
ATOM     12  O   LIG A   1      -7.672   3.287 123.463  0.00  0.00    -0.418 OA
ATOM     13  C   LIG A   1      -6.025   4.185 125.036  0.00  0.00    +0.203 A 
ATOM     14  C   LIG A   1      -5.206   4.018 126.168  0.00  0.00    +0.170 A 
ATOM     15  C   LIG A   1      -5.206   2.768 126.796  0.00  0.00    +0.065 A 
ATOM     16  C   LIG A   1      -5.925   1.693 126.284  0.00  0.00    +0.074 A 
ATOM     17  C   LIG A   1      -5.786   0.370 126.936  0.00  0.00    +0.345 A 
ATOM     18  O   LIG A   1      -5.073   0.218 127.921  0.00  0.00    -0.244 OA
ENDROOT
BRANCH   5  19
ATOM     19  O   LIG A   1      -9.675  -2.517 123.350  0.00  0.00    -0.503 OA
ATOM     20  H   LIG A   1     -10.423  -2.654 123.959  0.00  0.00    +0.292 HD
ENDBRANCH   5  19
BRANCH  13  21
ATOM     21  O   LIG A   1      -6.077   5.391 124.394  0.00  0.00    -0.501 OA
ATOM     22  H   LIG A   1      -7.007   5.677 124.352  0.00  0.00    +0.292 HD
ENDBRANCH  13  21
BRANCH   6  23
ATOM     23  O   LIG A   1      -7.889  -2.817 125.355  0.00  0.00    -0.501 OA
ATOM     24  H   LIG A   1      -8.789  -3.170 125.496  0.00  0.00    +0.292 HD
ENDBRANCH   6  23
BRANCH  14  25
ATOM     25  O   LIG A   1      -4.437   5.072 126.617  0.00  0.00    -0.457 OA
BRANCH  25  26
ATOM     26  C   LIG A   1      -4.307   5.208 128.057  0.00  0.00    +0.341 C 
ATOM     27  O   LIG A   1      -5.607   5.365 128.645  0.00  0.00    -0.334 OA
ATOM     28  C   LIG A   1      -5.646   5.524 130.063  0.00  0.00    +0.151 C 
ATOM     29  C   LIG A   1      -4.764   6.704 130.516  0.00  0.00    +0.186 C 
ATOM     30  C   LIG A   1      -3.341   6.611 129.942  0.00  0.00    +0.242 C 
ATOM     31  C   LIG A   1      -3.391   6.404 128.413  0.00  0.00    +0.226 C 
ATOM     32  C   LIG A   1      -5.380   4.211 130.803  0.00  0.00    +0.040 C 
BRANCH  31  33
ATOM     33  O   LIG A   1      -2.051   6.212 127.925  0.00  0.00    -0.382 OA
ATOM     34  H   LIG A   1      -1.456   6.732 128.494  0.00  0.00    +0.210 HD
ENDBRANCH  31  33
BRANCH  29  35
ATOM     35  O   LIG A   1      -5.338   7.935 130.058  0.00  0.00    -0.386 OA
ATOM     36  H   LIG A   1      -6.051   7.729 129.428  0.00  0.00    +0.210 HD
ENDBRANCH  29  35
BRANCH  30  37
ATOM     37  O   LIG A   1      -2.658   5.485 130.548  0.00  0.00    -0.456 OA
BRANCH  37  38
ATOM     38  C   LIG A   1      -1.832   5.772 131.598  0.00  0.00    +0.304 C 
ATOM     39  C   LIG A   1      -1.845   4.626 132.570  0.00  0.00    +0.136 C 
ATOM     40  O   LIG A   1      -1.275   6.831 131.794  0.00  0.00    -0.251 OA
ENDBRANCH  37  38
ENDBRANCH  30  37
ENDBRANCH  25  26
ENDBRANCH  14  25
TORSDOF 9
ENDMDL
MODEL 5
REMARK VINA RESULT:      -8.1      4.758      8.286
REMARK  Name = NuBBE_1251
REMARK  11 active torsions:
REMARK  status: ('A' for Active; 'I' for Inactive)
REMARK    1  A    between atoms: C_5  and  O_6
REMARK    2  A    between atoms: C_7  and  O_40
REMARK    3  A    between atoms: C_14  and  O_15
REMARK    4  A    between atoms: C_16  and  O_17
REMARK    5  A    between atoms: O_17  and  C_18
REMARK    6  A    between atoms: C_21  and  C_35
REMARK    7  A    between atoms: C_23  and  O_34
REMARK    8  A    between atoms: C_25  and  O_30
REMARK    9  A    between atoms: C_27  and  O_29
REMARK   10  A    between atoms: O_30  and  C_31
REMARK   11  A    between atoms: C_31  and  C_32
REMARK                            x       y       z     vdW  Elec       q    Type
REMARK                         _______ _______ _______ _____ _____    ______ ____
ROOT
ATOM      1  O   LIG A   1     -13.261   7.595 132.111  0.00  0.00    -0.244 OA
ATOM      2  C   LIG A   1     -12.213   7.185 131.631  0.00  0.00    +0.345 A 
ATOM      3  C   LIG A   1     -12.029   7.097 130.156  0.00  0.00    +0.074 A 
ATOM      4  C   LIG A   1     -13.031   7.538 129.272  0.00  0.00    +0.065 A 
ATOM      5  C   LIG A   1     -12.811   7.454 127.896  0.00  0.00    +0.163 A 
ATOM      6  C   LIG A   1     -11.620   6.935 127.395  0.00  0.00    +0.202 A 
ATOM      7  C   LIG A   1     -10.656   6.475 128.277  0.00  0.00    +0.185 A 
ATOM      8  O   LIG A   1      -9.483   5.899 127.750  0.00  0.00    -0.418 OA
ATOM      9  C   LIG A   1     -10.846   6.559 129.654  0.00  0.00    +0.047 A 
ATOM     10  C   LIG A   1      -9.826   6.073 130.532  0.00  0.00    +0.047 A 
ATOM     11  C   LIG A   1      -9.948   6.208 131.908  0.00  0.00    +0.185 A 
ATOM     12  O   LIG A   1     -11.128   6.793 132.436  0.00  0.00    -0.418 OA
ATOM     13  C   LIG A   1      -8.933   5.766 132.774  0.00  0.00    +0.203 A 
ATOM     14  C   LIG A   1      -7.792   5.131 132.250  0.00  0.00    +0.170 A 
ATOM     15  C   LIG A   1      -7.723   4.952 130.864  0.00  0.00    +0.065 A 
ATOM     16  C   LIG A   1      -8.704   5.451 130.013  0.00  0.00    +0.074 A 
ATOM     17  C   LIG A   1      -8.506   5.325 128.550  0.00  0.00    +0.345 A 
ATOM     18  O   LIG A   1      -7.514   4.775 128.088  0.00  0.00    -0.244 OA
ENDROOT
BRANCH   5  19
ATOM     19  O   LIG A   1     -13.742   7.866 126.983  0.00  0.00    -0.503 OA
ATOM     20  H   LIG A   1     -13.905   8.818 127.101  0.00  0.00    +0.292 HD
ENDBRANCH   5  19
BRANCH  13  21
ATOM     21  O   LIG A   1      -9.060   5.951 134.124  0.00  0.00    -0.501 OA
ATOM     22  H   LIG A   1      -9.829   6.526 134.283  0.00  0.00    +0.292 HD
ENDBRANCH  13  21
BRANCH   6  23
ATOM     23  O   LIG A   1     -11.411   6.869 126.049  0.00  0.00    -0.501 OA
ATOM     24  H   LIG A   1     -10.760   6.153 125.918  0.00  0.00    +0.292 HD
ENDBRANCH   6  23
BRANCH  14  25
ATOM     25  O   LIG A   1      -6.789   4.713 133.101  0.00  0.00    -0.457 OA
BRANCH  25  26
ATOM     26  C   LIG A   1      -5.526   4.350 132.481  0.00  0.00    +0.341 C 
ATOM     27  O   LIG A   1      -5.296   2.944 132.650  0.00  0.00    -0.334 OA
ATOM     28  C   LIG A   1      -4.080   2.431 132.103  0.00  0.00    +0.151 C 
ATOM     29  C   LIG A   1      -2.857   3.193 132.653  0.00  0.00    +0.186 C 
ATOM     30  C   LIG A   1      -3.013   4.714 132.499  0.00  0.00    +0.242 C 
ATOM     31  C   LIG A   1      -4.365   5.178 133.082  0.00  0.00    +0.226 C 
ATOM     32  C   LIG A   1      -4.130   2.323 130.578  0.00  0.00    +0.040 C 
BRANCH  31  33
ATOM     33  O   LIG A   1      -4.525   6.584 132.826  0.00  0.00    -0.382 OA
ATOM     34  H   LIG A   1      -5.461   6.737 132.608  0.00  0.00    +0.210 HD
ENDBRANCH  31  33
BRANCH  29  35
ATOM     35  O   LIG A   1      -2.703   2.909 134.049  0.00  0.00    -0.386 OA
ATOM     36  H   LIG A   1      -3.573   2.984 134.478  0.00  0.00    +0.210 HD
ENDBRANCH  29  35
BRANCH  30  37
ATOM     37  O   LIG A   1      -2.964   5.057 131.092  0.00  0.00    -0.456 OA
BRANCH  37  38
ATOM     38  C   LIG A   1      -2.209   6.147 130.760  0.00  0.00    +0.304 C 
ATOM     39  C   LIG A   1      -2.138   6.268 129.264  0.00  0.00    +0.136 C 
ATOM     40  O   LIG A   1      -1.581   6.837 131.534  0.00  0.00    -0.251 OA
ENDBRANCH  37  38
ENDBRANCH  30  37
ENDBRANCH  25  26
ENDBRANCH  14  25
TORSDOF 9
ENDMDL
MODEL 6
REMARK VINA RESULT:      -8.1      2.027      8.144
REMARK  Name = NuBBE_1251
REMARK  11 active torsions:
REMARK  status: ('A' for Active; 'I' for Inactive)
REMARK    1  A    between atoms: C_5  and  O_6
REMARK    2  A    between atoms: C_7  and  O_40
REMARK    3  A    between atoms: C_14  and  O_15
REMARK    4  A    between atoms: C_16  and  O_17
REMARK    5  A    between atoms: O_17  and  C_18
REMARK    6  A    between atoms: C_21  and  C_35
REMARK    7  A    between atoms: C_23  and  O_34
REMARK    8  A    between atoms: C_25  and  O_30
REMARK    9  A    between atoms: C_27  and  O_29
REMARK   10  A    between atoms: O_30  and  C_31
REMARK   11  A    between atoms: C_31  and  C_32
REMARK                            x       y       z     vdW  Elec       q    Type
REMARK                         _______ _______ _______ _____ _____    ______ ____
ROOT
ATOM      1  O   LIG A   1     -10.061   7.201 127.772  0.00  0.00    -0.244 OA
ATOM      2  C   LIG A   1      -9.517   6.172 128.150  0.00  0.00    +0.345 A 
ATOM      3  C   LIG A   1      -9.583   5.750 129.576  0.00  0.00    +0.074 A 
ATOM      4  C   LIG A   1     -10.322   6.488 130.518  0.00  0.00    +0.065 A 
ATOM      5  C   LIG A   1     -10.373   6.049 131.842  0.00  0.00    +0.163 A 
ATOM      6  C   LIG A   1      -9.697   4.897 132.237  0.00  0.00    +0.202 A 
ATOM      7  C   LIG A   1      -8.947   4.198 131.305  0.00  0.00    +0.185 A 
ATOM      8  O   LIG A   1      -8.222   3.068 131.737  0.00  0.00    -0.418 OA
ATOM      9  C   LIG A   1      -8.890   4.609 129.977  0.00  0.00    +0.047 A 
ATOM     10  C   LIG A   1      -8.105   3.858 129.045  0.00  0.00    +0.047 A 
ATOM     11  C   LIG A   1      -8.084   4.195 127.698  0.00  0.00    +0.185 A 
ATOM     12  O   LIG A   1      -8.819   5.330 127.266  0.00  0.00    -0.418 OA
ATOM     13  C   LIG A   1      -7.344   3.440 126.771  0.00  0.00    +0.203 A 
ATOM     14  C   LIG A   1      -6.568   2.353 127.215  0.00  0.00    +0.170 A 
ATOM     15  C   LIG A   1      -6.557   2.074 128.585  0.00  0.00    +0.065 A 
ATOM     16  C   LIG A   1      -7.344   2.789 129.483  0.00  0.00    +0.074 A 
ATOM     17  C   LIG A   1      -7.370   2.362 130.902  0.00  0.00    +0.345 A 
ATOM     18  O   LIG A   1      -6.698   1.415 131.293  0.00  0.00    -0.244 OA
ENDROOT
BRANCH   5  19
ATOM     19  O   LIG A   1     -11.073   6.719 132.807  0.00  0.00    -0.503 OA
ATOM     20  H   LIG A   1     -11.750   6.126 133.179  0.00  0.00    +0.292 HD
ENDBRANCH   5  19
BRANCH  13  21
ATOM     21  O   LIG A   1      -7.377   3.768 125.444  0.00  0.00    -0.501 OA
ATOM     22  H   LIG A   1      -6.607   3.360 125.008  0.00  0.00    +0.292 HD
ENDBRANCH  13  21
BRANCH   6  23
ATOM     23  O   LIG A   1      -9.763   4.470 133.530  0.00  0.00    -0.501 OA
ATOM     24  H   LIG A   1      -9.286   5.142 134.055  0.00  0.00    +0.292 HD
ENDBRANCH   6  23
BRANCH  14  25
ATOM     25  O   LIG A   1      -5.856   1.604 126.301  0.00  0.00    -0.457 OA
BRANCH  25  26
ATOM     26  C   LIG A   1      -6.408   0.303 125.963  0.00  0.00    +0.341 C 
ATOM     27  O   LIG A   1      -5.573  -0.729 126.508  0.00  0.00    -0.334 OA
ATOM     28  C   LIG A   1      -5.978  -2.074 126.249  0.00  0.00    +0.151 C 
ATOM     29  C   LIG A   1      -6.136  -2.327 124.736  0.00  0.00    +0.186 C 
ATOM     30  C   LIG A   1      -7.031  -1.270 124.069  0.00  0.00    +0.242 C 
ATOM     31  C   LIG A   1      -6.547   0.151 124.429  0.00  0.00    +0.226 C 
ATOM     32  C   LIG A   1      -7.185  -2.490 127.093  0.00  0.00    +0.040 C 
BRANCH  31  33
ATOM     33  O   LIG A   1      -7.467   1.110 123.879  0.00  0.00    -0.382 OA
ATOM     34  H   LIG A   1      -7.967   1.494 124.621  0.00  0.00    +0.210 HD
ENDBRANCH  31  33
BRANCH  29  35
ATOM     35  O   LIG A   1      -4.851  -2.271 124.104  0.00  0.00    -0.386 OA
ATOM     36  H   LIG A   1      -4.172  -2.498 124.763  0.00  0.00    +0.210 HD
ENDBRANCH  29  35
BRANCH  30  37
ATOM     37  O   LIG A   1      -8.392  -1.437 124.538  0.00  0.00    -0.456 OA
BRANCH  37  38
ATOM     38  C   LIG A   1      -9.337  -1.683 123.581  0.00  0.00    +0.304 C 
ATOM     39  C   LIG A   1      -9.531  -3.167 123.443  0.00  0.00    +0.136 C 
ATOM     40  O   LIG A   1      -9.848  -0.854 122.858  0.00  0.00    -0.251 OA
ENDBRANCH  37  38
ENDBRANCH  30  37
ENDBRANCH  25  26
ENDBRANCH  14  25
TORSDOF 9
ENDMDL
MODEL 7
REMARK VINA RESULT:      -7.9      3.013      8.714
REMARK  Name = NuBBE_1251
REMARK  11 active torsions:
REMARK  status: ('A' for Active; 'I' for Inactive)
REMARK    1  A    between atoms: C_5  and  O_6
REMARK    2  A    between atoms: C_7  and  O_40
REMARK    3  A    between atoms: C_14  and  O_15
REMARK    4  A    between atoms: C_16  and  O_17
REMARK    5  A    between atoms: O_17  and  C_18
REMARK    6  A    between atoms: C_21  and  C_35
REMARK    7  A    between atoms: C_23  and  O_34
REMARK    8  A    between atoms: C_25  and  O_30
REMARK    9  A    between atoms: C_27  and  O_29
REMARK   10  A    between atoms: O_30  and  C_31
REMARK   11  A    between atoms: C_31  and  C_32
REMARK                            x       y       z     vdW  Elec       q    Type
REMARK                         _______ _______ _______ _____ _____    ______ ____
ROOT
ATOM      1  O   LIG A   1      -7.236   6.092 132.555  0.00  0.00    -0.244 OA
ATOM      2  C   LIG A   1      -6.911   5.533 131.516  0.00  0.00    +0.345 A 
ATOM      3  C   LIG A   1      -5.586   5.793 130.888  0.00  0.00    +0.074 A 
ATOM      4  C   LIG A   1      -4.646   6.641 131.501  0.00  0.00    +0.065 A 
ATOM      5  C   LIG A   1      -3.409   6.844 130.889  0.00  0.00    +0.163 A 
ATOM      6  C   LIG A   1      -3.102   6.225 129.680  0.00  0.00    +0.202 A 
ATOM      7  C   LIG A   1      -4.049   5.417 129.072  0.00  0.00    +0.185 A 
ATOM      8  O   LIG A   1      -3.742   4.846 127.820  0.00  0.00    -0.418 OA
ATOM      9  C   LIG A   1      -5.286   5.190 129.669  0.00  0.00    +0.047 A 
ATOM     10  C   LIG A   1      -6.237   4.348 129.008  0.00  0.00    +0.047 A 
ATOM     11  C   LIG A   1      -7.450   4.039 129.608  0.00  0.00    +0.185 A 
ATOM     12  O   LIG A   1      -7.755   4.611 130.871  0.00  0.00    -0.418 OA
ATOM     13  C   LIG A   1      -8.374   3.184 128.982  0.00  0.00    +0.203 A 
ATOM     14  C   LIG A   1      -8.094   2.668 127.703  0.00  0.00    +0.170 A 
ATOM     15  C   LIG A   1      -6.893   3.046 127.094  0.00  0.00    +0.065 A 
ATOM     16  C   LIG A   1      -5.959   3.841 127.751  0.00  0.00    +0.074 A 
ATOM     17  C   LIG A   1      -4.660   4.105 127.091  0.00  0.00    +0.345 A 
ATOM     18  O   LIG A   1      -4.410   3.656 125.978  0.00  0.00    -0.244 OA
ENDROOT
BRANCH   5  19
ATOM     19  O   LIG A   1      -2.450   7.655 131.431  0.00  0.00    -0.503 OA
ATOM     20  H   LIG A   1      -1.580   7.228 131.335  0.00  0.00    +0.292 HD
ENDBRANCH   5  19
BRANCH  13  21
ATOM     21  O   LIG A   1      -9.543   2.861 129.615  0.00  0.00    -0.501 OA
ATOM     22  H   LIG A   1      -9.537   1.905 129.801  0.00  0.00    +0.292 HD
ENDBRANCH  13  21
BRANCH   6  23
ATOM     23  O   LIG A   1      -1.885   6.420 129.095  0.00  0.00    -0.501 OA
ATOM     24  H   LIG A   1      -1.264   5.843 129.580  0.00  0.00    +0.292 HD
ENDBRANCH   6  23
BRANCH  14  25
ATOM     25  O   LIG A   1      -8.995   1.816 127.097  0.00  0.00    -0.457 OA
BRANCH  25  26
ATOM     26  C   LIG A   1      -8.736   1.487 125.705  0.00  0.00    +0.341 C 
ATOM     27  O   LIG A   1      -9.352   2.468 124.857  0.00  0.00    -0.334 OA
ATOM     28  C   LIG A   1      -9.198   2.275 123.451  0.00  0.00    +0.151 C 
ATOM     29  C   LIG A   1      -9.696   0.881 123.022  0.00  0.00    +0.186 C 
ATOM     30  C   LIG A   1      -9.073  -0.238 123.872  0.00  0.00    +0.242 C 
ATOM     31  C   LIG A   1      -9.252   0.066 125.375  0.00  0.00    +0.226 C 
ATOM     32  C   LIG A   1      -7.788   2.623 122.968  0.00  0.00    +0.040 C 
BRANCH  31  33
ATOM     33  O   LIG A   1      -8.566  -0.941 126.139  0.00  0.00    -0.382 OA
ATOM     34  H   LIG A   1      -7.668  -0.612 126.317  0.00  0.00    +0.210 HD
ENDBRANCH  31  33
BRANCH  29  35
ATOM     35  O   LIG A   1     -11.118   0.809 123.181  0.00  0.00    -0.386 OA
ATOM     36  H   LIG A   1     -11.382   1.424 123.888  0.00  0.00    +0.210 HD
ENDBRANCH  29  35
BRANCH  30  37
ATOM     37  O   LIG A   1      -7.657  -0.328 123.575  0.00  0.00    -0.456 OA
BRANCH  37  38
ATOM     38  C   LIG A   1      -7.239  -1.477 122.965  0.00  0.00    +0.304 C 
ATOM     39  C   LIG A   1      -8.398  -2.425 122.838  0.00  0.00    +0.136 C 
ATOM     40  O   LIG A   1      -6.092  -1.755 122.684  0.00  0.00    -0.251 OA
ENDBRANCH  37  38
ENDBRANCH  30  37
ENDBRANCH  25  26
ENDBRANCH  14  25
TORSDOF 9
ENDMDL
MODEL 8
REMARK VINA RESULT:      -7.8      4.753      7.315
REMARK  Name = NuBBE_1251
REMARK  11 active torsions:
REMARK  status: ('A' for Active; 'I' for Inactive)
REMARK    1  A    between atoms: C_5  and  O_6
REMARK    2  A    between atoms: C_7  and  O_40
REMARK    3  A    between atoms: C_14  and  O_15
REMARK    4  A    between atoms: C_16  and  O_17
REMARK    5  A    between atoms: O_17  and  C_18
REMARK    6  A    between atoms: C_21  and  C_35
REMARK    7  A    between atoms: C_23  and  O_34
REMARK    8  A    between atoms: C_25  and  O_30
REMARK    9  A    between atoms: C_27  and  O_29
REMARK   10  A    between atoms: O_30  and  C_31
REMARK   11  A    between atoms: C_31  and  C_32
REMARK                            x       y       z     vdW  Elec       q    Type
REMARK                         _______ _______ _______ _____ _____    ______ ____
ROOT
ATOM      1  O   LIG A   1      -5.172   3.488 125.379  0.00  0.00    -0.244 OA
ATOM      2  C   LIG A   1      -5.773   2.428 125.500  0.00  0.00    +0.345 A 
ATOM      3  C   LIG A   1      -6.948   2.112 124.642  0.00  0.00    +0.074 A 
ATOM      4  C   LIG A   1      -7.366   2.995 123.628  0.00  0.00    +0.065 A 
ATOM      5  C   LIG A   1      -8.461   2.652 122.835  0.00  0.00    +0.163 A 
ATOM      6  C   LIG A   1      -9.145   1.457 123.041  0.00  0.00    +0.202 A 
ATOM      7  C   LIG A   1      -8.743   0.613 124.063  0.00  0.00    +0.185 A 
ATOM      8  O   LIG A   1      -9.484  -0.564 124.294  0.00  0.00    -0.418 OA
ATOM      9  C   LIG A   1      -7.645   0.926 124.861  0.00  0.00    +0.047 A 
ATOM     10  C   LIG A   1      -7.261   0.027 125.906  0.00  0.00    +0.047 A 
ATOM     11  C   LIG A   1      -6.129   0.269 126.672  0.00  0.00    +0.185 A 
ATOM     12  O   LIG A   1      -5.382   1.453 126.434  0.00  0.00    -0.418 OA
ATOM     13  C   LIG A   1      -5.725  -0.628 127.676  0.00  0.00    +0.203 A 
ATOM     14  C   LIG A   1      -6.503  -1.768 127.950  0.00  0.00    +0.170 A 
ATOM     15  C   LIG A   1      -7.672  -1.956 127.206  0.00  0.00    +0.065 A 
ATOM     16  C   LIG A   1      -8.027  -1.095 126.172  0.00  0.00    +0.074 A 
ATOM     17  C   LIG A   1      -9.217  -1.420 125.352  0.00  0.00    +0.345 A 
ATOM     18  O   LIG A   1      -9.896  -2.413 125.584  0.00  0.00    -0.244 OA
ENDROOT
BRANCH   5  19
ATOM     19  O   LIG A   1      -8.918   3.464 121.833  0.00  0.00    -0.503 OA
ATOM     20  H   LIG A   1      -8.264   3.479 121.112  0.00  0.00    +0.292 HD
ENDBRANCH   5  19
BRANCH  13  21
ATOM     21  O   LIG A   1      -4.581  -0.387 128.386  0.00  0.00    -0.501 OA
ATOM     22  H   LIG A   1      -4.829   0.008 129.242  0.00  0.00    +0.292 HD
ENDBRANCH  13  21
BRANCH   6  23
ATOM     23  O   LIG A   1     -10.208   1.127 122.252  0.00  0.00    -0.501 OA
ATOM     24  H   LIG A   1     -10.073   1.609 121.413  0.00  0.00    +0.292 HD
ENDBRANCH   6  23
BRANCH  14  25
ATOM     25  O   LIG A   1      -6.096  -2.656 128.925  0.00  0.00    -0.457 OA
BRANCH  25  26
ATOM     26  C   LIG A   1      -6.536  -2.372 130.280  0.00  0.00    +0.341 C 
ATOM     27  O   LIG A   1      -6.461  -0.959 130.523  0.00  0.00    -0.334 OA
ATOM     28  C   LIG A   1      -6.851  -0.519 131.824  0.00  0.00    +0.151 C 
ATOM     29  C   LIG A   1      -6.046  -1.244 132.922  0.00  0.00    +0.186 C 
ATOM     30  C   LIG A   1      -6.084  -2.770 132.747  0.00  0.00    +0.242 C 
ATOM     31  C   LIG A   1      -5.685  -3.157 131.307  0.00  0.00    +0.226 C 
ATOM     32  C   LIG A   1      -8.368  -0.555 132.019  0.00  0.00    +0.040 C 
BRANCH  31  33
ATOM     33  O   LIG A   1      -5.834  -4.578 131.148  0.00  0.00    -0.382 OA
ATOM     34  H   LIG A   1      -5.740  -4.983 132.028  0.00  0.00    +0.210 HD
ENDBRANCH  31  33
BRANCH  29  35
ATOM     35  O   LIG A   1      -4.675  -0.831 132.863  0.00  0.00    -0.386 OA
ATOM     36  H   LIG A   1      -4.169  -1.508 132.381  0.00  0.00    +0.210 HD
ENDBRANCH  29  35
BRANCH  30  37
ATOM     37  O   LIG A   1      -7.429  -3.245 133.007  0.00  0.00    -0.456 OA
BRANCH  37  38
ATOM     38  C   LIG A   1      -7.728  -3.530 134.310  0.00  0.00    +0.304 C 
ATOM     39  C   LIG A   1      -7.075  -4.825 134.700  0.00  0.00    +0.136 C 
ATOM     40  O   LIG A   1      -8.503  -2.914 135.011  0.00  0.00    -0.251 OA
ENDBRANCH  37  38
ENDBRANCH  30  37
ENDBRANCH  25  26
ENDBRANCH  14  25
TORSDOF 9
ENDMDL
MODEL 9
REMARK VINA RESULT:      -7.8      3.101      8.122
REMARK  Name = NuBBE_1251
REMARK  11 active torsions:
REMARK  status: ('A' for Active; 'I' for Inactive)
REMARK    1  A    between atoms: C_5  and  O_6
REMARK    2  A    between atoms: C_7  and  O_40
REMARK    3  A    between atoms: C_14  and  O_15
REMARK    4  A    between atoms: C_16  and  O_17
REMARK    5  A    between atoms: O_17  and  C_18
REMARK    6  A    between atoms: C_21  and  C_35
REMARK    7  A    between atoms: C_23  and  O_34
REMARK    8  A    between atoms: C_25  and  O_30
REMARK    9  A    between atoms: C_27  and  O_29
REMARK   10  A    between atoms: O_30  and  C_31
REMARK   11  A    between atoms: C_31  and  C_32
REMARK                            x       y       z     vdW  Elec       q    Type
REMARK                         _______ _______ _______ _____ _____    ______ ____
ROOT
ATOM      1  O   LIG A   1     -10.259   7.107 125.838  0.00  0.00    -0.244 OA
ATOM      2  C   LIG A   1     -10.071   6.693 126.974  0.00  0.00    +0.345 A 
ATOM      3  C   LIG A   1     -10.868   7.213 128.120  0.00  0.00    +0.074 A 
ATOM      4  C   LIG A   1     -11.899   8.150 127.922  0.00  0.00    +0.065 A 
ATOM      5  C   LIG A   1     -12.633   8.598 129.021  0.00  0.00    +0.163 A 
ATOM      6  C   LIG A   1     -12.350   8.135 130.303  0.00  0.00    +0.202 A 
ATOM      7  C   LIG A   1     -11.312   7.237 130.487  0.00  0.00    +0.185 A 
ATOM      8  O   LIG A   1     -11.004   6.825 131.800  0.00  0.00    -0.418 OA
ATOM      9  C   LIG A   1     -10.573   6.766 129.406  0.00  0.00    +0.047 A 
ATOM     10  C   LIG A   1      -9.507   5.838 129.638  0.00  0.00    +0.047 A 
ATOM     11  C   LIG A   1      -8.798   5.290 128.578  0.00  0.00    +0.185 A 
ATOM     12  O   LIG A   1      -9.114   5.703 127.257  0.00  0.00    -0.418 OA
ATOM     13  C   LIG A   1      -7.775   4.350 128.796  0.00  0.00    +0.203 A 
ATOM     14  C   LIG A   1      -7.425   3.991 130.111  0.00  0.00    +0.170 A 
ATOM     15  C   LIG A   1      -8.113   4.605 131.162  0.00  0.00    +0.065 A 
ATOM     16  C   LIG A   1      -9.166   5.485 130.932  0.00  0.00    +0.074 A 
ATOM     17  C   LIG A   1      -9.923   6.007 132.092  0.00  0.00    +0.345 A 
ATOM     18  O   LIG A   1      -9.624   5.695 133.239  0.00  0.00    -0.244 OA
ENDROOT
BRANCH   5  19
ATOM     19  O   LIG A   1     -13.648   9.507 128.898  0.00  0.00    -0.503 OA
ATOM     20  H   LIG A   1     -13.437  10.125 128.176  0.00  0.00    +0.292 HD
ENDBRANCH   5  19
BRANCH  13  21
ATOM     21  O   LIG A   1      -7.122   3.794 127.731  0.00  0.00    -0.501 OA
ATOM     22  H   LIG A   1      -6.695   4.508 127.226  0.00  0.00    +0.292 HD
ENDBRANCH  13  21
BRANCH   6  23
ATOM     23  O   LIG A   1     -13.082   8.571 131.369  0.00  0.00    -0.501 OA
ATOM     24  H   LIG A   1     -12.489   8.502 132.142  0.00  0.00    +0.292 HD
ENDBRANCH   6  23
BRANCH  14  25
ATOM     25  O   LIG A   1      -6.431   3.056 130.322  0.00  0.00    -0.457 OA
BRANCH  25  26
ATOM     26  C   LIG A   1      -6.861   1.672 130.432  0.00  0.00    +0.341 C 
ATOM     27  O   LIG A   1      -6.943   1.304 131.817  0.00  0.00    -0.334 OA
ATOM     28  C   LIG A   1      -7.343  -0.039 132.093  0.00  0.00    +0.151 C 
ATOM     29  C   LIG A   1      -6.426  -1.050 131.376  0.00  0.00    +0.186 C 
ATOM     30  C   LIG A   1      -6.290  -0.739 129.877  0.00  0.00    +0.242 C 
ATOM     31  C   LIG A   1      -5.893   0.738 129.667  0.00  0.00    +0.226 C 
ATOM     32  C   LIG A   1      -8.839  -0.260 131.859  0.00  0.00    +0.040 C 
BRANCH  31  33
ATOM     33  O   LIG A   1      -5.880   1.022 128.258  0.00  0.00    -0.382 OA
ATOM     34  H   LIG A   1      -5.133   1.622 128.087  0.00  0.00    +0.210 HD
ENDBRANCH  31  33
BRANCH  29  35
ATOM     35  O   LIG A   1      -5.114  -1.001 131.952  0.00  0.00    -0.386 OA
ATOM     36  H   LIG A   1      -4.668  -0.196 131.638  0.00  0.00    +0.210 HD
ENDBRANCH  29  35
BRANCH  30  37
ATOM     37  O   LIG A   1      -7.562  -0.982 129.224  0.00  0.00    -0.456 OA
BRANCH  37  38
ATOM     38  C   LIG A   1      -7.615  -2.059 128.385  0.00  0.00    +0.304 C 
ATOM     39  C   LIG A   1      -8.371  -3.174 129.052  0.00  0.00    +0.136 C 
ATOM     40  O   LIG A   1      -7.038  -2.162 127.323  0.00  0.00    -0.251 OA
ENDBRANCH  37  38
ENDBRANCH  30  37
ENDBRANCH  25  26
ENDBRANCH  14  25
TORSDOF 9
ENDMDL
