MODEL 1
REMARK VINA RESULT:      -9.4      0.000      0.000
REMARK  Name = NuBBE_1048
REMARK  11 active torsions:
REMARK  status: ('A' for Active; 'I' for Inactive)
REMARK    1  A    between atoms: C_5  and  C_38
REMARK    2  A    between atoms: C_7  and  C_8
REMARK    3  A    between atoms: C_7  and  C_9
REMARK    4  A    between atoms: C_13  and  C_37
REMARK    5  A    between atoms: C_19  and  C_20
REMARK    6  A    between atoms: C_23  and  C_25
REMARK    7  A    between atoms: C_25  and  C_35
REMARK    8  A    between atoms: C_27  and  C_31
REMARK    9  A    between atoms: C_31  and  O_32
REMARK   10  A    between atoms: C_31  and  C_33
REMARK   11  A    between atoms: C_31  and  C_34
REMARK                            x       y       z     vdW  Elec       q    Type
REMARK                         _______ _______ _______ _____ _____    ______ ____
ROOT
ATOM      1  O   LIG A   1      -9.733  -2.473 123.310  0.00  0.00    -0.297 OA
ATOM      2  C   LIG A   1      -9.010  -1.759 124.008  0.00  0.00    +0.139 C 
ATOM      3  C   LIG A   1      -9.329  -0.291 124.150  0.00  0.00    +0.075 C 
ATOM      4  C   LIG A   1      -9.175   0.195 125.585  0.00  0.00    +0.015 C 
ATOM      5  C   LIG A   1      -7.798  -0.138 126.242  0.00  0.00    -0.025 C 
ATOM      6  C   LIG A   1      -7.590  -1.691 126.089  0.00  0.00    +0.008 C 
ATOM      7  C   LIG A   1      -7.706  -2.274 124.640  0.00  0.00    +0.027 C 
ATOM      8  C   LIG A   1      -7.799  -3.821 124.703  0.00  0.00    +0.019 C 
ATOM      9  C   LIG A   1      -6.541  -1.930 123.702  0.00  0.00    +0.019 C 
ATOM     10  C   LIG A   1      -6.344  -2.162 126.867  0.00  0.00    +0.005 C 
ATOM     11  C   LIG A   1      -6.499  -1.874 128.365  0.00  0.00    +0.008 C 
ATOM     12  C   LIG A   1      -6.735  -0.376 128.721  0.00  0.00    -0.023 C 
ATOM     13  C   LIG A   1      -7.888   0.183 127.801  0.00  0.00    +0.002 C 
ATOM     14  C   LIG A   1      -8.154   1.663 128.135  0.00  0.00    +0.005 C 
ATOM     15  C   LIG A   1      -8.631   1.829 129.571  0.00  0.00    +0.005 C 
ATOM     16  C   LIG A   1      -7.749   1.193 130.644  0.00  0.00    +0.001 C 
ATOM     17  C   LIG A   1      -7.185  -0.216 130.271  0.00  0.00    -0.023 C 
ATOM     18  C   LIG A   1      -8.262  -1.266 130.668  0.00  0.00    +0.012 C 
ATOM     19  C   LIG A   1      -6.027  -0.354 131.286  0.00  0.00    +0.008 C 
ATOM     20  C   LIG A   1      -5.467   1.045 131.531  0.00  0.00    +0.007 C 
ATOM     21  C   LIG A   1      -6.547   2.056 131.100  0.00  0.00    +0.024 C 
ATOM     22  C   LIG A   1      -5.384   0.343 128.453  0.00  0.00    +0.012 C 
ATOM     23  C   LIG A   1      -6.716   0.712 125.537  0.00  0.00    +0.012 C 
ENDROOT
BRANCH  21  24
ATOM     24  C   LIG A   1      -6.852   3.120 132.203  0.00  0.00    +0.070 C 
ATOM     25  O   LIG A   1      -7.496   4.278 131.608  0.00  0.00    -0.367 OA
ATOM     26  C   LIG A   1      -8.463   4.771 132.564  0.00  0.00    +0.150 C 
ATOM     27  C   LIG A   1      -9.037   3.511 133.174  0.00  0.00    +0.037 C 
ATOM     28  C   LIG A   1      -7.803   2.641 133.320  0.00  0.00    +0.037 C 
ATOM     29  C   LIG A   1      -5.528   3.628 132.810  0.00  0.00    +0.042 C 
BRANCH  26  30
ATOM     30  C   LIG A   1      -9.452   5.762 131.909  0.00  0.00    +0.086 C 
ATOM     31  C   LIG A   1      -8.796   6.837 131.042  0.00  0.00    +0.043 C 
ATOM     32  C   LIG A   1     -10.515   5.020 131.097  0.00  0.00    +0.043 C 
BRANCH  30  33
ATOM     33  O   LIG A   1     -10.135   6.450 132.973  0.00  0.00    -0.387 OA
ATOM     34  H   LIG A   1     -11.025   6.651 132.621  0.00  0.00    +0.210 HD
ENDBRANCH  30  33
ENDBRANCH  26  30
ENDBRANCH  21  24
TORSDOF 3
ENDMDL
MODEL 2
REMARK VINA RESULT:      -9.2      4.049      8.200
REMARK  Name = NuBBE_1048
REMARK  11 active torsions:
REMARK  status: ('A' for Active; 'I' for Inactive)
REMARK    1  A    between atoms: C_5  and  C_38
REMARK    2  A    between atoms: C_7  and  C_8
REMARK    3  A    between atoms: C_7  and  C_9
REMARK    4  A    between atoms: C_13  and  C_37
REMARK    5  A    between atoms: C_19  and  C_20
REMARK    6  A    between atoms: C_23  and  C_25
REMARK    7  A    between atoms: C_25  and  C_35
REMARK    8  A    between atoms: C_27  and  C_31
REMARK    9  A    between atoms: C_31  and  O_32
REMARK   10  A    between atoms: C_31  and  C_33
REMARK   11  A    between atoms: C_31  and  C_34
REMARK                            x       y       z     vdW  Elec       q    Type
REMARK                         _______ _______ _______ _____ _____    ______ ____
ROOT
ATOM      1  O   LIG A   1      -5.959  -2.760 135.554  0.00  0.00    -0.297 OA
ATOM      2  C   LIG A   1      -5.801  -3.069 134.371  0.00  0.00    +0.139 C 
ATOM      3  C   LIG A   1      -6.785  -4.001 133.708  0.00  0.00    +0.075 C 
ATOM      4  C   LIG A   1      -7.157  -3.542 132.304  0.00  0.00    +0.015 C 
ATOM      5  C   LIG A   1      -5.939  -3.264 131.366  0.00  0.00    -0.025 C 
ATOM      6  C   LIG A   1      -5.009  -2.244 132.124  0.00  0.00    +0.008 C 
ATOM      7  C   LIG A   1      -4.557  -2.649 133.569  0.00  0.00    +0.027 C 
ATOM      8  C   LIG A   1      -3.933  -1.425 134.285  0.00  0.00    +0.019 C 
ATOM      9  C   LIG A   1      -3.529  -3.786 133.637  0.00  0.00    +0.019 C 
ATOM     10  C   LIG A   1      -3.865  -1.755 131.213  0.00  0.00    +0.005 C 
ATOM     11  C   LIG A   1      -4.424  -1.027 129.985  0.00  0.00    +0.008 C 
ATOM     12  C   LIG A   1      -5.393  -1.874 129.108  0.00  0.00    -0.023 C 
ATOM     13  C   LIG A   1      -6.469  -2.541 130.047  0.00  0.00    +0.002 C 
ATOM     14  C   LIG A   1      -7.451  -3.380 129.208  0.00  0.00    +0.005 C 
ATOM     15  C   LIG A   1      -8.220  -2.512 128.223  0.00  0.00    +0.005 C 
ATOM     16  C   LIG A   1      -7.370  -1.622 127.315  0.00  0.00    +0.001 C 
ATOM     17  C   LIG A   1      -6.157  -0.939 128.025  0.00  0.00    -0.023 C 
ATOM     18  C   LIG A   1      -6.678   0.377 128.669  0.00  0.00    +0.012 C 
ATOM     19  C   LIG A   1      -5.289  -0.534 126.812  0.00  0.00    +0.008 C 
ATOM     20  C   LIG A   1      -5.502  -1.587 125.726  0.00  0.00    +0.007 C 
ATOM     21  C   LIG A   1      -6.820  -2.318 126.045  0.00  0.00    +0.024 C 
ATOM     22  C   LIG A   1      -4.506  -2.938 128.403  0.00  0.00    +0.012 C 
ATOM     23  C   LIG A   1      -5.262  -4.617 131.052  0.00  0.00    +0.012 C 
ENDROOT
BRANCH  21  24
ATOM     24  C   LIG A   1      -7.792  -2.371 124.823  0.00  0.00    +0.070 C 
ATOM     25  O   LIG A   1      -8.716  -1.251 124.876  0.00  0.00    -0.367 OA
ATOM     26  C   LIG A   1      -8.955  -0.825 123.515  0.00  0.00    +0.150 C 
ATOM     27  C   LIG A   1      -7.604  -0.976 122.851  0.00  0.00    +0.037 C 
ATOM     28  C   LIG A   1      -7.105  -2.279 123.444  0.00  0.00    +0.037 C 
ATOM     29  C   LIG A   1      -8.655  -3.646 124.906  0.00  0.00    +0.042 C 
BRANCH  26  30
ATOM     30  C   LIG A   1      -9.623   0.567 123.468  0.00  0.00    +0.086 C 
ATOM     31  C   LIG A   1     -10.138   1.074 124.815  0.00  0.00    +0.043 C 
ATOM     32  C   LIG A   1      -8.686   1.605 122.848  0.00  0.00    +0.043 C 
BRANCH  30  33
ATOM     33  O   LIG A   1     -10.769   0.462 122.602  0.00  0.00    -0.387 OA
ATOM     34  H   LIG A   1     -10.584  -0.300 122.018  0.00  0.00    +0.210 HD
ENDBRANCH  30  33
ENDBRANCH  26  30
ENDBRANCH  21  24
TORSDOF 3
ENDMDL
MODEL 3
REMARK VINA RESULT:      -9.0      1.738      2.827
REMARK  Name = NuBBE_1048
REMARK  11 active torsions:
REMARK  status: ('A' for Active; 'I' for Inactive)
REMARK    1  A    between atoms: C_5  and  C_38
REMARK    2  A    between atoms: C_7  and  C_8
REMARK    3  A    between atoms: C_7  and  C_9
REMARK    4  A    between atoms: C_13  and  C_37
REMARK    5  A    between atoms: C_19  and  C_20
REMARK    6  A    between atoms: C_23  and  C_25
REMARK    7  A    between atoms: C_25  and  C_35
REMARK    8  A    between atoms: C_27  and  C_31
REMARK    9  A    between atoms: C_31  and  O_32
REMARK   10  A    between atoms: C_31  and  C_33
REMARK   11  A    between atoms: C_31  and  C_34
REMARK                            x       y       z     vdW  Elec       q    Type
REMARK                         _______ _______ _______ _____ _____    ______ ____
ROOT
ATOM      1  O   LIG A   1      -7.775  -4.111 124.387  0.00  0.00    -0.297 OA
ATOM      2  C   LIG A   1      -7.755  -2.893 124.575  0.00  0.00    +0.139 C 
ATOM      3  C   LIG A   1      -9.050  -2.155 124.811  0.00  0.00    +0.075 C 
ATOM      4  C   LIG A   1      -8.932  -1.131 125.933  0.00  0.00    +0.015 C 
ATOM      5  C   LIG A   1      -7.744  -0.129 125.779  0.00  0.00    -0.025 C 
ATOM      6  C   LIG A   1      -6.443  -0.997 125.596  0.00  0.00    +0.008 C 
ATOM      7  C   LIG A   1      -6.468  -2.061 124.445  0.00  0.00    +0.027 C 
ATOM      8  C   LIG A   1      -5.269  -3.031 124.603  0.00  0.00    +0.019 C 
ATOM      9  C   LIG A   1      -6.401  -1.487 123.024  0.00  0.00    +0.019 C 
ATOM     10  C   LIG A   1      -5.179  -0.114 125.619  0.00  0.00    +0.005 C 
ATOM     11  C   LIG A   1      -5.050   0.612 126.963  0.00  0.00    +0.008 C 
ATOM     12  C   LIG A   1      -6.262   1.517 127.337  0.00  0.00    -0.023 C 
ATOM     13  C   LIG A   1      -7.588   0.687 127.140  0.00  0.00    +0.002 C 
ATOM     14  C   LIG A   1      -8.808   1.550 127.512  0.00  0.00    +0.005 C 
ATOM     15  C   LIG A   1      -8.771   1.961 128.977  0.00  0.00    +0.005 C 
ATOM     16  C   LIG A   1      -7.481   2.632 129.448  0.00  0.00    +0.001 C 
ATOM     17  C   LIG A   1      -6.172   1.991 128.885  0.00  0.00    -0.023 C 
ATOM     18  C   LIG A   1      -5.791   0.813 129.826  0.00  0.00    +0.012 C 
ATOM     19  C   LIG A   1      -5.150   3.122 129.144  0.00  0.00    +0.008 C 
ATOM     20  C   LIG A   1      -5.893   4.449 129.008  0.00  0.00    +0.007 C 
ATOM     21  C   LIG A   1      -7.396   4.154 129.173  0.00  0.00    +0.024 C 
ATOM     22  C   LIG A   1      -6.197   2.734 126.373  0.00  0.00    +0.012 C 
ATOM     23  C   LIG A   1      -8.054   0.797 124.582  0.00  0.00    +0.012 C 
ENDROOT
BRANCH  21  24
ATOM     24  C   LIG A   1      -8.080   5.076 130.233  0.00  0.00    +0.070 C 
ATOM     25  O   LIG A   1      -8.522   4.284 131.367  0.00  0.00    -0.367 OA
ATOM     26  C   LIG A   1      -8.336   5.090 132.553  0.00  0.00    +0.150 C 
ATOM     27  C   LIG A   1      -7.038   5.821 132.289  0.00  0.00    +0.037 C 
ATOM     28  C   LIG A   1      -7.169   6.174 130.820  0.00  0.00    +0.037 C 
ATOM     29  C   LIG A   1      -9.351   5.705 129.625  0.00  0.00    +0.042 C 
BRANCH  26  30
ATOM     30  C   LIG A   1      -8.426   4.235 133.837  0.00  0.00    +0.086 C 
ATOM     31  C   LIG A   1      -7.779   2.854 133.730  0.00  0.00    +0.043 C 
ATOM     32  C   LIG A   1      -7.849   4.986 135.038  0.00  0.00    +0.043 C 
BRANCH  30  33
ATOM     33  O   LIG A   1      -9.823   4.015 134.108  0.00  0.00    -0.387 OA
ATOM     34  H   LIG A   1      -9.901   3.062 134.311  0.00  0.00    +0.210 HD
ENDBRANCH  30  33
ENDBRANCH  26  30
ENDBRANCH  21  24
TORSDOF 3
ENDMDL
MODEL 4
REMARK VINA RESULT:      -9.0      3.404      5.347
REMARK  Name = NuBBE_1048
REMARK  11 active torsions:
REMARK  status: ('A' for Active; 'I' for Inactive)
REMARK    1  A    between atoms: C_5  and  C_38
REMARK    2  A    between atoms: C_7  and  C_8
REMARK    3  A    between atoms: C_7  and  C_9
REMARK    4  A    between atoms: C_13  and  C_37
REMARK    5  A    between atoms: C_19  and  C_20
REMARK    6  A    between atoms: C_23  and  C_25
REMARK    7  A    between atoms: C_25  and  C_35
REMARK    8  A    between atoms: C_27  and  C_31
REMARK    9  A    between atoms: C_31  and  O_32
REMARK   10  A    between atoms: C_31  and  C_33
REMARK   11  A    between atoms: C_31  and  C_34
REMARK                            x       y       z     vdW  Elec       q    Type
REMARK                         _______ _______ _______ _____ _____    ______ ____
ROOT
ATOM      1  O   LIG A   1      -3.377  -3.621 132.250  0.00  0.00    -0.297 OA
ATOM      2  C   LIG A   1      -4.307  -2.893 131.898  0.00  0.00    +0.139 C 
ATOM      3  C   LIG A   1      -5.250  -2.335 132.937  0.00  0.00    +0.075 C 
ATOM      4  C   LIG A   1      -5.577  -0.869 132.689  0.00  0.00    +0.015 C 
ATOM      5  C   LIG A   1      -6.090  -0.550 131.248  0.00  0.00    -0.025 C 
ATOM      6  C   LIG A   1      -5.013  -1.121 130.250  0.00  0.00    +0.008 C 
ATOM      7  C   LIG A   1      -4.635  -2.632 130.418  0.00  0.00    +0.027 C 
ATOM      8  C   LIG A   1      -3.358  -2.946 129.597  0.00  0.00    +0.019 C 
ATOM      9  C   LIG A   1      -5.714  -3.629 129.975  0.00  0.00    +0.019 C 
ATOM     10  C   LIG A   1      -5.325  -0.700 128.799  0.00  0.00    +0.005 C 
ATOM     11  C   LIG A   1      -5.301   0.826 128.661  0.00  0.00    +0.008 C 
ATOM     12  C   LIG A   1      -6.296   1.582 129.592  0.00  0.00    -0.023 C 
ATOM     13  C   LIG A   1      -6.126   1.033 131.060  0.00  0.00    +0.002 C 
ATOM     14  C   LIG A   1      -7.089   1.768 132.010  0.00  0.00    +0.005 C 
ATOM     15  C   LIG A   1      -6.780   3.257 132.070  0.00  0.00    +0.005 C 
ATOM     16  C   LIG A   1      -6.709   3.977 130.723  0.00  0.00    +0.001 C 
ATOM     17  C   LIG A   1      -5.986   3.174 129.594  0.00  0.00    -0.023 C 
ATOM     18  C   LIG A   1      -4.463   3.464 129.723  0.00  0.00    +0.012 C 
ATOM     19  C   LIG A   1      -6.481   3.919 128.333  0.00  0.00    +0.008 C 
ATOM     20  C   LIG A   1      -7.896   4.416 128.622  0.00  0.00    +0.007 C 
ATOM     21  C   LIG A   1      -8.074   4.435 130.153  0.00  0.00    +0.024 C 
ATOM     22  C   LIG A   1      -7.713   1.288 129.028  0.00  0.00    +0.012 C 
ATOM     23  C   LIG A   1      -7.491  -1.183 131.090  0.00  0.00    +0.012 C 
ENDROOT
BRANCH  21  24
ATOM     24  C   LIG A   1      -8.609   5.804 130.681  0.00  0.00    +0.070 C 
ATOM     25  O   LIG A   1      -9.273   6.524 129.608  0.00  0.00    -0.367 OA
ATOM     26  C   LIG A   1     -10.392   7.229 130.192  0.00  0.00    +0.150 C 
ATOM     27  C   LIG A   1     -10.924   6.262 131.227  0.00  0.00    +0.037 C 
ATOM     28  C   LIG A   1      -9.646   5.699 131.818  0.00  0.00    +0.037 C 
ATOM     29  C   LIG A   1      -7.422   6.686 131.120  0.00  0.00    +0.042 C 
BRANCH  26  30
ATOM     30  C   LIG A   1     -11.375   7.727 129.108  0.00  0.00    +0.086 C 
ATOM     31  C   LIG A   1     -12.496   8.627 129.628  0.00  0.00    +0.043 C 
ATOM     32  C   LIG A   1     -10.629   8.431 127.973  0.00  0.00    +0.043 C 
BRANCH  30  33
ATOM     33  O   LIG A   1     -12.009   6.566 128.540  0.00  0.00    -0.387 OA
ATOM     34  H   LIG A   1     -12.075   6.749 127.581  0.00  0.00    +0.210 HD
ENDBRANCH  30  33
ENDBRANCH  26  30
ENDBRANCH  21  24
TORSDOF 3
ENDMDL
MODEL 5
REMARK VINA RESULT:      -8.8      5.208      8.422
REMARK  Name = NuBBE_1048
REMARK  11 active torsions:
REMARK  status: ('A' for Active; 'I' for Inactive)
REMARK    1  A    between atoms: C_5  and  C_38
REMARK    2  A    between atoms: C_7  and  C_8
REMARK    3  A    between atoms: C_7  and  C_9
REMARK    4  A    between atoms: C_13  and  C_37
REMARK    5  A    between atoms: C_19  and  C_20
REMARK    6  A    between atoms: C_23  and  C_25
REMARK    7  A    between atoms: C_25  and  C_35
REMARK    8  A    between atoms: C_27  and  C_31
REMARK    9  A    between atoms: C_31  and  O_32
REMARK   10  A    between atoms: C_31  and  C_33
REMARK   11  A    between atoms: C_31  and  C_34
REMARK                            x       y       z     vdW  Elec       q    Type
REMARK                         _______ _______ _______ _____ _____    ______ ____
ROOT
ATOM      1  O   LIG A   1     -10.012   1.165 132.084  0.00  0.00    -0.297 OA
ATOM      2  C   LIG A   1      -9.503   2.288 132.094  0.00  0.00    +0.139 C 
ATOM      3  C   LIG A   1      -9.329   3.014 133.406  0.00  0.00    +0.075 C 
ATOM      4  C   LIG A   1      -7.972   3.698 133.508  0.00  0.00    +0.015 C 
ATOM      5  C   LIG A   1      -7.621   4.633 132.307  0.00  0.00    -0.025 C 
ATOM      6  C   LIG A   1      -7.779   3.767 131.001  0.00  0.00    +0.008 C 
ATOM      7  C   LIG A   1      -9.156   3.047 130.802  0.00  0.00    +0.027 C 
ATOM      8  C   LIG A   1      -9.039   1.999 129.665  0.00  0.00    +0.019 C 
ATOM      9  C   LIG A   1     -10.331   3.968 130.449  0.00  0.00    +0.019 C 
ATOM     10  C   LIG A   1      -7.279   4.537 129.762  0.00  0.00    +0.005 C 
ATOM     11  C   LIG A   1      -5.790   4.876 129.900  0.00  0.00    +0.008 C 
ATOM     12  C   LIG A   1      -5.425   5.721 131.156  0.00  0.00    -0.023 C 
ATOM     13  C   LIG A   1      -6.086   5.052 132.421  0.00  0.00    +0.002 C 
ATOM     14  C   LIG A   1      -5.736   5.860 133.685  0.00  0.00    +0.005 C 
ATOM     15  C   LIG A   1      -4.236   5.868 133.939  0.00  0.00    +0.005 C 
ATOM     16  C   LIG A   1      -3.364   6.314 132.765  0.00  0.00    +0.001 C 
ATOM     17  C   LIG A   1      -3.819   5.767 131.373  0.00  0.00    -0.023 C 
ATOM     18  C   LIG A   1      -3.174   4.362 131.196  0.00  0.00    +0.012 C 
ATOM     19  C   LIG A   1      -3.075   6.727 130.416  0.00  0.00    +0.008 C 
ATOM     20  C   LIG A   1      -2.988   8.085 131.110  0.00  0.00    +0.007 C 
ATOM     21  C   LIG A   1      -3.198   7.847 132.617  0.00  0.00    +0.024 C 
ATOM     22  C   LIG A   1      -5.995   7.142 130.892  0.00  0.00    +0.012 C 
ATOM     23  C   LIG A   1      -8.561   5.858 132.366  0.00  0.00    +0.012 C 
ENDROOT
BRANCH  21  24
ATOM     24  C   LIG A   1      -2.080   8.498 133.493  0.00  0.00    +0.070 C 
ATOM     25  O   LIG A   1      -1.533   9.660 132.814  0.00  0.00    -0.367 OA
ATOM     26  C   LIG A   1      -1.225  10.644 133.827  0.00  0.00    +0.150 C 
ATOM     27  C   LIG A   1      -2.361  10.508 134.817  0.00  0.00    +0.037 C 
ATOM     28  C   LIG A   1      -2.550   9.004 134.873  0.00  0.00    +0.037 C 
ATOM     29  C   LIG A   1      -0.911   7.505 133.658  0.00  0.00    +0.042 C 
BRANCH  26  30
ATOM     30  C   LIG A   1      -0.983  12.038 133.206  0.00  0.00    +0.086 C 
ATOM     31  C   LIG A   1      -1.286  13.213 134.137  0.00  0.00    +0.043 C 
ATOM     32  C   LIG A   1       0.444  12.160 132.667  0.00  0.00    +0.043 C 
BRANCH  30  33
ATOM     33  O   LIG A   1      -1.871  12.165 132.080  0.00  0.00    -0.387 OA
ATOM     34  H   LIG A   1      -2.308  11.294 131.995  0.00  0.00    +0.210 HD
ENDBRANCH  30  33
ENDBRANCH  26  30
ENDBRANCH  21  24
TORSDOF 3
ENDMDL
MODEL 6
REMARK VINA RESULT:      -8.7      3.392      4.964
REMARK  Name = NuBBE_1048
REMARK  11 active torsions:
REMARK  status: ('A' for Active; 'I' for Inactive)
REMARK    1  A    between atoms: C_5  and  C_38
REMARK    2  A    between atoms: C_7  and  C_8
REMARK    3  A    between atoms: C_7  and  C_9
REMARK    4  A    between atoms: C_13  and  C_37
REMARK    5  A    between atoms: C_19  and  C_20
REMARK    6  A    between atoms: C_23  and  C_25
REMARK    7  A    between atoms: C_25  and  C_35
REMARK    8  A    between atoms: C_27  and  C_31
REMARK    9  A    between atoms: C_31  and  O_32
REMARK   10  A    between atoms: C_31  and  C_33
REMARK   11  A    between atoms: C_31  and  C_34
REMARK                            x       y       z     vdW  Elec       q    Type
REMARK                         _______ _______ _______ _____ _____    ______ ____
ROOT
ATOM      1  O   LIG A   1     -10.254  -0.007 122.731  0.00  0.00    -0.297 OA
ATOM      2  C   LIG A   1      -9.387  -0.000 123.607  0.00  0.00    +0.139 C 
ATOM      3  C   LIG A   1      -9.335   1.140 124.593  0.00  0.00    +0.075 C 
ATOM      4  C   LIG A   1      -9.086   0.659 126.017  0.00  0.00    +0.015 C 
ATOM      5  C   LIG A   1      -7.844  -0.273 126.182  0.00  0.00    -0.025 C 
ATOM      6  C   LIG A   1      -8.025  -1.452 125.153  0.00  0.00    +0.008 C 
ATOM      7  C   LIG A   1      -8.261  -1.047 123.658  0.00  0.00    +0.027 C 
ATOM      8  C   LIG A   1      -8.735  -2.281 122.849  0.00  0.00    +0.019 C 
ATOM      9  C   LIG A   1      -7.034  -0.476 122.935  0.00  0.00    +0.019 C 
ATOM     10  C   LIG A   1      -6.946  -2.535 125.356  0.00  0.00    +0.005 C 
ATOM     11  C   LIG A   1      -7.047  -3.144 126.760  0.00  0.00    +0.008 C 
ATOM     12  C   LIG A   1      -6.910  -2.121 127.927  0.00  0.00    -0.023 C 
ATOM     13  C   LIG A   1      -7.874  -0.906 127.646  0.00  0.00    +0.002 C 
ATOM     14  C   LIG A   1      -7.771   0.122 128.788  0.00  0.00    +0.005 C 
ATOM     15  C   LIG A   1      -8.212  -0.479 130.115  0.00  0.00    +0.005 C 
ATOM     16  C   LIG A   1      -7.530  -1.788 130.513  0.00  0.00    +0.001 C 
ATOM     17  C   LIG A   1      -7.328  -2.799 129.339  0.00  0.00    -0.023 C 
ATOM     18  C   LIG A   1      -8.638  -3.629 129.213  0.00  0.00    +0.012 C 
ATOM     19  C   LIG A   1      -6.255  -3.739 129.935  0.00  0.00    +0.008 C 
ATOM     20  C   LIG A   1      -5.370  -2.898 130.851  0.00  0.00    +0.007 C 
ATOM     21  C   LIG A   1      -6.159  -1.625 131.214  0.00  0.00    +0.024 C 
ATOM     22  C   LIG A   1      -5.419  -1.683 127.935  0.00  0.00    +0.012 C 
ATOM     23  C   LIG A   1      -6.575   0.577 125.945  0.00  0.00    +0.012 C 
ENDROOT
BRANCH  21  24
ATOM     24  C   LIG A   1      -6.207  -1.362 132.753  0.00  0.00    +0.070 C 
ATOM     25  O   LIG A   1      -7.311  -2.096 133.346  0.00  0.00    -0.367 OA
ATOM     26  C   LIG A   1      -6.880  -2.540 134.652  0.00  0.00    +0.150 C 
ATOM     27  C   LIG A   1      -5.429  -2.915 134.441  0.00  0.00    +0.037 C 
ATOM     28  C   LIG A   1      -4.947  -1.807 133.526  0.00  0.00    +0.037 C 
ATOM     29  C   LIG A   1      -6.493   0.132 133.012  0.00  0.00    +0.042 C 
BRANCH  26  30
ATOM     30  C   LIG A   1      -7.822  -3.626 135.220  0.00  0.00    +0.086 C 
ATOM     31  C   LIG A   1      -7.261  -5.047 135.170  0.00  0.00    +0.043 C 
ATOM     32  C   LIG A   1      -8.251  -3.288 136.649  0.00  0.00    +0.043 C 
BRANCH  30  33
ATOM     33  O   LIG A   1      -9.012  -3.624 134.410  0.00  0.00    -0.387 OA
ATOM     34  H   LIG A   1      -9.166  -4.560 134.173  0.00  0.00    +0.210 HD
ENDBRANCH  30  33
ENDBRANCH  26  30
ENDBRANCH  21  24
TORSDOF 3
ENDMDL
MODEL 7
REMARK VINA RESULT:      -8.5      3.797      5.365
REMARK  Name = NuBBE_1048
REMARK  11 active torsions:
REMARK  status: ('A' for Active; 'I' for Inactive)
REMARK    1  A    between atoms: C_5  and  C_38
REMARK    2  A    between atoms: C_7  and  C_8
REMARK    3  A    between atoms: C_7  and  C_9
REMARK    4  A    between atoms: C_13  and  C_37
REMARK    5  A    between atoms: C_19  and  C_20
REMARK    6  A    between atoms: C_23  and  C_25
REMARK    7  A    between atoms: C_25  and  C_35
REMARK    8  A    between atoms: C_27  and  C_31
REMARK    9  A    between atoms: C_31  and  O_32
REMARK   10  A    between atoms: C_31  and  C_33
REMARK   11  A    between atoms: C_31  and  C_34
REMARK                            x       y       z     vdW  Elec       q    Type
REMARK                         _______ _______ _______ _____ _____    ______ ____
ROOT
ATOM      1  O   LIG A   1     -10.478   0.583 122.998  0.00  0.00    -0.297 OA
ATOM      2  C   LIG A   1      -9.546   0.435 123.791  0.00  0.00    +0.139 C 
ATOM      3  C   LIG A   1      -9.277   1.495 124.830  0.00  0.00    +0.075 C 
ATOM      4  C   LIG A   1      -8.969   0.898 126.196  0.00  0.00    +0.015 C 
ATOM      5  C   LIG A   1      -7.837  -0.178 126.197  0.00  0.00    -0.025 C 
ATOM      6  C   LIG A   1      -8.242  -1.260 125.126  0.00  0.00    +0.008 C 
ATOM      7  C   LIG A   1      -8.551  -0.734 123.683  0.00  0.00    +0.027 C 
ATOM      8  C   LIG A   1      -9.235  -1.851 122.854  0.00  0.00    +0.019 C 
ATOM      9  C   LIG A   1      -7.330  -0.260 122.884  0.00  0.00    +0.019 C 
ATOM     10  C   LIG A   1      -7.286  -2.469 125.172  0.00  0.00    +0.005 C 
ATOM     11  C   LIG A   1      -7.340  -3.152 126.543  0.00  0.00    +0.008 C 
ATOM     12  C   LIG A   1      -6.986  -2.229 127.747  0.00  0.00    -0.023 C 
ATOM     13  C   LIG A   1      -7.819  -0.896 127.621  0.00  0.00    +0.002 C 
ATOM     14  C   LIG A   1      -7.500   0.036 128.804  0.00  0.00    +0.005 C 
ATOM     15  C   LIG A   1      -7.898  -0.595 130.130  0.00  0.00    +0.005 C 
ATOM     16  C   LIG A   1      -7.345  -1.996 130.393  0.00  0.00    +0.001 C 
ATOM     17  C   LIG A   1      -7.363  -2.945 129.152  0.00  0.00    -0.023 C 
ATOM     18  C   LIG A   1      -8.767  -3.612 129.100  0.00  0.00    +0.012 C 
ATOM     19  C   LIG A   1      -6.363  -4.038 129.597  0.00  0.00    +0.008 C 
ATOM     20  C   LIG A   1      -5.310  -3.363 130.474  0.00  0.00    +0.007 C 
ATOM     21  C   LIG A   1      -5.910  -2.035 130.975  0.00  0.00    +0.024 C 
ATOM     22  C   LIG A   1      -5.458  -1.965 127.645  0.00  0.00    +0.012 C 
ATOM     23  C   LIG A   1      -6.501   0.537 125.894  0.00  0.00    +0.012 C 
ENDROOT
BRANCH  21  24
ATOM     24  C   LIG A   1      -5.798  -1.869 132.524  0.00  0.00    +0.070 C 
ATOM     25  O   LIG A   1      -4.658  -2.619 133.021  0.00  0.00    -0.367 OA
ATOM     26  C   LIG A   1      -4.082  -1.857 134.107  0.00  0.00    +0.150 C 
ATOM     27  C   LIG A   1      -4.209  -0.422 133.644  0.00  0.00    +0.037 C 
ATOM     28  C   LIG A   1      -5.585  -0.418 133.006  0.00  0.00    +0.037 C 
ATOM     29  C   LIG A   1      -7.043  -2.479 133.199  0.00  0.00    +0.042 C 
BRANCH  26  30
ATOM     30  C   LIG A   1      -2.669  -2.367 134.469  0.00  0.00    +0.086 C 
ATOM     31  C   LIG A   1      -1.532  -1.413 134.100  0.00  0.00    +0.043 C 
ATOM     32  C   LIG A   1      -2.579  -2.731 135.952  0.00  0.00    +0.043 C 
BRANCH  30  33
ATOM     33  O   LIG A   1      -2.447  -3.578 133.723  0.00  0.00    -0.387 OA
ATOM     34  H   LIG A   1      -1.476  -3.689 133.690  0.00  0.00    +0.210 HD
ENDBRANCH  30  33
ENDBRANCH  26  30
ENDBRANCH  21  24
TORSDOF 3
ENDMDL
MODEL 8
REMARK VINA RESULT:      -8.4      1.852      8.141
REMARK  Name = NuBBE_1048
REMARK  11 active torsions:
REMARK  status: ('A' for Active; 'I' for Inactive)
REMARK    1  A    between atoms: C_5  and  C_38
REMARK    2  A    between atoms: C_7  and  C_8
REMARK    3  A    between atoms: C_7  and  C_9
REMARK    4  A    between atoms: C_13  and  C_37
REMARK    5  A    between atoms: C_19  and  C_20
REMARK    6  A    between atoms: C_23  and  C_25
REMARK    7  A    between atoms: C_25  and  C_35
REMARK    8  A    between atoms: C_27  and  C_31
REMARK    9  A    between atoms: C_31  and  O_32
REMARK   10  A    between atoms: C_31  and  C_33
REMARK   11  A    between atoms: C_31  and  C_34
REMARK                            x       y       z     vdW  Elec       q    Type
REMARK                         _______ _______ _______ _____ _____    ______ ____
ROOT
ATOM      1  O   LIG A   1      -5.534   6.105 133.555  0.00  0.00    -0.297 OA
ATOM      2  C   LIG A   1      -6.258   5.231 133.075  0.00  0.00    +0.139 C 
ATOM      3  C   LIG A   1      -6.870   5.436 131.711  0.00  0.00    +0.075 C 
ATOM      4  C   LIG A   1      -6.799   4.179 130.854  0.00  0.00    +0.015 C 
ATOM      5  C   LIG A   1      -7.376   2.895 131.531  0.00  0.00    -0.025 C 
ATOM      6  C   LIG A   1      -6.636   2.743 132.913  0.00  0.00    +0.008 C 
ATOM      7  C   LIG A   1      -6.680   3.983 133.870  0.00  0.00    +0.027 C 
ATOM      8  C   LIG A   1      -5.655   3.794 135.018  0.00  0.00    +0.019 C 
ATOM      9  C   LIG A   1      -8.042   4.258 134.521  0.00  0.00    +0.019 C 
ATOM     10  C   LIG A   1      -6.994   1.404 133.589  0.00  0.00    +0.005 C 
ATOM     11  C   LIG A   1      -6.560   0.223 132.714  0.00  0.00    +0.008 C 
ATOM     12  C   LIG A   1      -7.178   0.206 131.284  0.00  0.00    -0.023 C 
ATOM     13  C   LIG A   1      -6.988   1.632 130.638  0.00  0.00    +0.002 C 
ATOM     14  C   LIG A   1      -7.580   1.647 129.216  0.00  0.00    +0.005 C 
ATOM     15  C   LIG A   1      -6.860   0.664 128.306  0.00  0.00    +0.005 C 
ATOM     16  C   LIG A   1      -6.757  -0.770 128.823  0.00  0.00    +0.001 C 
ATOM     17  C   LIG A   1      -6.435  -0.890 130.348  0.00  0.00    -0.023 C 
ATOM     18  C   LIG A   1      -4.889  -0.824 130.501  0.00  0.00    +0.012 C 
ATOM     19  C   LIG A   1      -6.853  -2.352 130.628  0.00  0.00    +0.008 C 
ATOM     20  C   LIG A   1      -8.024  -2.677 129.703  0.00  0.00    +0.007 C 
ATOM     21  C   LIG A   1      -7.999  -1.656 128.550  0.00  0.00    +0.024 C 
ATOM     22  C   LIG A   1      -8.680  -0.145 131.474  0.00  0.00    +0.012 C 
ATOM     23  C   LIG A   1      -8.907   3.069 131.654  0.00  0.00    +0.012 C 
ENDROOT
BRANCH  21  24
ATOM     24  C   LIG A   1      -8.056  -2.332 127.143  0.00  0.00    +0.070 C 
ATOM     25  O   LIG A   1      -8.834  -1.512 126.231  0.00  0.00    -0.367 OA
ATOM     26  C   LIG A   1      -8.220  -1.619 124.926  0.00  0.00    +0.150 C 
ATOM     27  C   LIG A   1      -6.738  -1.648 125.229  0.00  0.00    +0.037 C 
ATOM     28  C   LIG A   1      -6.686  -2.529 126.462  0.00  0.00    +0.037 C 
ATOM     29  C   LIG A   1      -8.799  -3.680 127.250  0.00  0.00    +0.042 C 
BRANCH  26  30
ATOM     30  C   LIG A   1      -8.732  -0.520 123.968  0.00  0.00    +0.086 C 
ATOM     31  C   LIG A   1      -7.686   0.527 123.583  0.00  0.00    +0.043 C 
ATOM     32  C   LIG A   1      -9.341  -1.132 122.706  0.00  0.00    +0.043 C 
BRANCH  30  33
ATOM     33  O   LIG A   1      -9.788   0.183 124.649  0.00  0.00    -0.387 OA
ATOM     34  H   LIG A   1      -9.340   0.870 125.182  0.00  0.00    +0.210 HD
ENDBRANCH  30  33
ENDBRANCH  26  30
ENDBRANCH  21  24
TORSDOF 3
ENDMDL
MODEL 9
REMARK VINA RESULT:      -8.3      6.952     12.267
REMARK  Name = NuBBE_1048
REMARK  11 active torsions:
REMARK  status: ('A' for Active; 'I' for Inactive)
REMARK    1  A    between atoms: C_5  and  C_38
REMARK    2  A    between atoms: C_7  and  C_8
REMARK    3  A    between atoms: C_7  and  C_9
REMARK    4  A    between atoms: C_13  and  C_37
REMARK    5  A    between atoms: C_19  and  C_20
REMARK    6  A    between atoms: C_23  and  C_25
REMARK    7  A    between atoms: C_25  and  C_35
REMARK    8  A    between atoms: C_27  and  C_31
REMARK    9  A    between atoms: C_31  and  O_32
REMARK   10  A    between atoms: C_31  and  C_33
REMARK   11  A    between atoms: C_31  and  C_34
REMARK                            x       y       z     vdW  Elec       q    Type
REMARK                         _______ _______ _______ _____ _____    ______ ____
ROOT
ATOM      1  O   LIG A   1       2.153  13.508 133.168  0.00  0.00    -0.297 OA
ATOM      2  C   LIG A   1       1.113  12.905 133.437  0.00  0.00    +0.139 C 
ATOM      3  C   LIG A   1      -0.111  13.114 132.579  0.00  0.00    +0.075 C 
ATOM      4  C   LIG A   1      -0.834  11.808 132.278  0.00  0.00    +0.015 C 
ATOM      5  C   LIG A   1      -1.180  10.950 133.537  0.00  0.00    -0.025 C 
ATOM      6  C   LIG A   1       0.167  10.744 134.326  0.00  0.00    +0.008 C 
ATOM      7  C   LIG A   1       0.964  12.040 134.700  0.00  0.00    +0.027 C 
ATOM      8  C   LIG A   1       2.391  11.659 135.173  0.00  0.00    +0.019 C 
ATOM      9  C   LIG A   1       0.336  12.898 135.806  0.00  0.00    +0.019 C 
ATOM     10  C   LIG A   1      -0.021   9.753 135.493  0.00  0.00    +0.005 C 
ATOM     11  C   LIG A   1      -0.452   8.378 134.972  0.00  0.00    +0.008 C 
ATOM     12  C   LIG A   1      -1.769   8.377 134.140  0.00  0.00    -0.023 C 
ATOM     13  C   LIG A   1      -1.676   9.514 133.051  0.00  0.00    +0.002 C 
ATOM     14  C   LIG A   1      -2.961   9.534 132.202  0.00  0.00    +0.005 C 
ATOM     15  C   LIG A   1      -3.144   8.228 131.444  0.00  0.00    +0.005 C 
ATOM     16  C   LIG A   1      -3.084   6.954 132.287  0.00  0.00    +0.001 C 
ATOM     17  C   LIG A   1      -1.974   6.955 133.388  0.00  0.00    -0.023 C 
ATOM     18  C   LIG A   1      -0.659   6.462 132.720  0.00  0.00    +0.012 C 
ATOM     19  C   LIG A   1      -2.466   5.814 134.309  0.00  0.00    +0.008 C 
ATOM     20  C   LIG A   1      -3.992   5.813 134.259  0.00  0.00    +0.007 C 
ATOM     21  C   LIG A   1      -4.413   6.565 132.982  0.00  0.00    +0.024 C 
ATOM     22  C   LIG A   1      -2.914   8.644 135.156  0.00  0.00    +0.012 C 
ATOM     23  C   LIG A   1      -2.270  11.698 134.338  0.00  0.00    +0.012 C 
ENDROOT
BRANCH  21  24
ATOM     24  C   LIG A   1      -5.425   5.754 132.110  0.00  0.00    +0.070 C 
ATOM     25  O   LIG A   1      -6.245   4.910 132.961  0.00  0.00    -0.367 OA
ATOM     26  C   LIG A   1      -7.570   4.876 132.382  0.00  0.00    +0.150 C 
ATOM     27  C   LIG A   1      -7.776   6.286 131.876  0.00  0.00    +0.037 C 
ATOM     28  C   LIG A   1      -6.414   6.616 131.297  0.00  0.00    +0.037 C 
ATOM     29  C   LIG A   1      -4.652   4.802 131.175  0.00  0.00    +0.042 C 
BRANCH  26  30
ATOM     30  C   LIG A   1      -8.609   4.316 133.381  0.00  0.00    +0.086 C 
ATOM     31  C   LIG A   1      -8.947   2.838 133.187  0.00  0.00    +0.043 C 
ATOM     32  C   LIG A   1      -8.169   4.562 134.825  0.00  0.00    +0.043 C 
BRANCH  30  33
ATOM     33  O   LIG A   1      -9.832   5.049 133.181  0.00  0.00    -0.387 OA
ATOM     34  H   LIG A   1     -10.548   4.393 133.297  0.00  0.00    +0.210 HD
ENDBRANCH  30  33
ENDBRANCH  26  30
ENDBRANCH  21  24
TORSDOF 3
ENDMDL
