MODEL 1
REMARK VINA RESULT:      -6.6      0.000      0.000
REMARK  Name = NuBBE_1076
REMARK  7 active torsions:
REMARK  status: ('A' for Active; 'I' for Inactive)
REMARK    1  A    between atoms: C_1  and  N_2
REMARK    2  A    between atoms: C_7  and  O_8
REMARK    3  A    between atoms: C_10  and  O_11
REMARK    4  A    between atoms: O_11  and  C_12
REMARK    5  A    between atoms: C_13  and  O_14
REMARK    6  A    between atoms: O_14  and  C_15
REMARK    7  A    between atoms: C_21  and  O_22
REMARK                            x       y       z     vdW  Elec       q    Type
REMARK                         _______ _______ _______ _____ _____    ______ ____
ROOT
ATOM      1  C   LIG A   1      -7.963  -1.639 123.932  0.00  0.00    +0.149 C 
ATOM      2  N   LIG A   1      -8.000  -0.962 125.250  0.00  0.00    -0.337 N 
ATOM      3  C   LIG A   1      -7.175   0.207 125.296  0.00  0.00    +0.102 A 
ATOM      4  C   LIG A   1      -6.255   0.359 126.352  0.00  0.00    +0.091 A 
ATOM      5  C   LIG A   1      -6.148  -0.705 127.375  0.00  0.00    +0.201 A 
ATOM      6  O   LIG A   1      -5.259  -0.651 128.221  0.00  0.00    -0.286 OA
ATOM      7  C   LIG A   1      -5.432   1.489 126.428  0.00  0.00    +0.133 A 
ATOM      8  C   LIG A   1      -5.532   2.502 125.483  0.00  0.00    +0.095 A 
ATOM      9  C   LIG A   1      -6.460   2.405 124.443  0.00  0.00    +0.167 A 
ATOM     10  C   LIG A   1      -7.278   1.258 124.344  0.00  0.00    +0.186 A 
ATOM     11  C   LIG A   1      -8.070  -1.866 126.342  0.00  0.00    +0.095 A 
ATOM     12  C   LIG A   1      -7.142  -1.794 127.388  0.00  0.00    +0.050 A 
ATOM     13  C   LIG A   1      -7.153  -2.716 128.445  0.00  0.00    +0.014 A 
ATOM     14  C   LIG A   1      -8.128  -3.711 128.487  0.00  0.00    +0.004 A 
ATOM     15  C   LIG A   1      -9.105  -3.763 127.495  0.00  0.00    +0.047 A 
ATOM     16  C   LIG A   1      -9.081  -2.836 126.455  0.00  0.00    +0.141 A 
ENDROOT
BRANCH   7  17
ATOM     17  O   LIG A   1      -4.489   1.665 127.406  0.00  0.00    -0.506 OA
ATOM     18  H   LIG A   1      -4.458   0.841 127.945  0.00  0.00    +0.292 HD
ENDBRANCH   7  17
BRANCH   9  19
ATOM     19  O   LIG A   1      -6.565   3.358 123.462  0.00  0.00    -0.491 OA
ATOM     20  C   LIG A   1      -5.496   4.297 123.380  0.00  0.00    +0.277 C 
ENDBRANCH   9  19
BRANCH  10  21
ATOM     21  O   LIG A   1      -8.157   1.068 123.298  0.00  0.00    -0.489 OA
ATOM     22  C   LIG A   1      -9.403   1.745 123.437  0.00  0.00    +0.277 C 
ENDBRANCH  10  21
BRANCH  16  23
ATOM     23  O   LIG A   1     -10.131  -2.862 125.574  0.00  0.00    -0.505 OA
ATOM     24  H   LIG A   1      -9.997  -2.094 124.988  0.00  0.00    +0.292 HD
ENDBRANCH  16  23
TORSDOF 4
ENDMDL
MODEL 2
REMARK VINA RESULT:      -6.5      1.472      3.576
REMARK  Name = NuBBE_1076
REMARK  7 active torsions:
REMARK  status: ('A' for Active; 'I' for Inactive)
REMARK    1  A    between atoms: C_1  and  N_2
REMARK    2  A    between atoms: C_7  and  O_8
REMARK    3  A    between atoms: C_10  and  O_11
REMARK    4  A    between atoms: O_11  and  C_12
REMARK    5  A    between atoms: C_13  and  O_14
REMARK    6  A    between atoms: O_14  and  C_15
REMARK    7  A    between atoms: C_21  and  O_22
REMARK                            x       y       z     vdW  Elec       q    Type
REMARK                         _______ _______ _______ _____ _____    ______ ____
ROOT
ATOM      1  C   LIG A   1      -7.878   0.845 128.250  0.00  0.00    +0.149 C 
ATOM      2  N   LIG A   1      -7.535  -0.176 127.232  0.00  0.00    -0.337 N 
ATOM      3  C   LIG A   1      -7.818   0.255 125.897  0.00  0.00    +0.102 A 
ATOM      4  C   LIG A   1      -8.569  -0.581 125.048  0.00  0.00    +0.091 A 
ATOM      5  C   LIG A   1      -9.068  -1.875 125.566  0.00  0.00    +0.201 A 
ATOM      6  O   LIG A   1      -9.836  -2.550 124.885  0.00  0.00    -0.286 OA
ATOM      7  C   LIG A   1      -8.865  -0.191 123.737  0.00  0.00    +0.133 A 
ATOM      8  C   LIG A   1      -8.392   1.014 123.233  0.00  0.00    +0.095 A 
ATOM      9  C   LIG A   1      -7.611   1.853 124.032  0.00  0.00    +0.167 A 
ATOM     10  C   LIG A   1      -7.327   1.478 125.365  0.00  0.00    +0.186 A 
ATOM     11  C   LIG A   1      -7.805  -1.503 127.658  0.00  0.00    +0.095 A 
ATOM     12  C   LIG A   1      -8.596  -2.355 126.877  0.00  0.00    +0.050 A 
ATOM     13  C   LIG A   1      -8.928  -3.648 127.308  0.00  0.00    +0.014 A 
ATOM     14  C   LIG A   1      -8.435  -4.122 128.522  0.00  0.00    +0.004 A 
ATOM     15  C   LIG A   1      -7.590  -3.320 129.286  0.00  0.00    +0.047 A 
ATOM     16  C   LIG A   1      -7.267  -2.040 128.841  0.00  0.00    +0.141 A 
ENDROOT
BRANCH   7  17
ATOM     17  O   LIG A   1      -9.630  -0.944 122.885  0.00  0.00    -0.506 OA
ATOM     18  H   LIG A   1     -10.513  -1.067 123.303  0.00  0.00    +0.292 HD
ENDBRANCH   7  17
BRANCH   9  19
ATOM     19  O   LIG A   1      -7.159   3.071 123.594  0.00  0.00    -0.491 OA
ATOM     20  C   LIG A   1      -6.788   3.148 122.220  0.00  0.00    +0.277 C 
ENDBRANCH   9  19
BRANCH  10  21
ATOM     21  O   LIG A   1      -6.629   2.298 126.226  0.00  0.00    -0.489 OA
ATOM     22  C   LIG A   1      -5.211   2.229 126.096  0.00  0.00    +0.277 C 
ENDBRANCH  10  21
BRANCH  16  23
ATOM     23  O   LIG A   1      -6.342  -1.342 129.571  0.00  0.00    -0.505 OA
ATOM     24  H   LIG A   1      -6.356  -1.743 130.460  0.00  0.00    +0.292 HD
ENDBRANCH  16  23
TORSDOF 4
ENDMDL
MODEL 3
REMARK VINA RESULT:      -6.2      6.956      8.842
REMARK  Name = NuBBE_1076
REMARK  7 active torsions:
REMARK  status: ('A' for Active; 'I' for Inactive)
REMARK    1  A    between atoms: C_1  and  N_2
REMARK    2  A    between atoms: C_7  and  O_8
REMARK    3  A    between atoms: C_10  and  O_11
REMARK    4  A    between atoms: O_11  and  C_12
REMARK    5  A    between atoms: C_13  and  O_14
REMARK    6  A    between atoms: O_14  and  C_15
REMARK    7  A    between atoms: C_21  and  O_22
REMARK                            x       y       z     vdW  Elec       q    Type
REMARK                         _______ _______ _______ _____ _____    ______ ____
ROOT
ATOM      1  C   LIG A   1      -9.389   6.077 132.386  0.00  0.00    +0.149 C 
ATOM      2  N   LIG A   1      -9.916   5.437 131.157  0.00  0.00    -0.337 N 
ATOM      3  C   LIG A   1      -8.920   4.695 130.447  0.00  0.00    +0.102 A 
ATOM      4  C   LIG A   1      -8.748   4.919 129.067  0.00  0.00    +0.091 A 
ATOM      5  C   LIG A   1      -9.586   5.934 128.390  0.00  0.00    +0.201 A 
ATOM      6  O   LIG A   1      -9.355   6.237 127.222  0.00  0.00    -0.286 OA
ATOM      7  C   LIG A   1      -7.782   4.212 128.341  0.00  0.00    +0.133 A 
ATOM      8  C   LIG A   1      -6.997   3.247 128.960  0.00  0.00    +0.095 A 
ATOM      9  C   LIG A   1      -7.166   2.969 130.318  0.00  0.00    +0.167 A 
ATOM     10  C   LIG A   1      -8.121   3.694 131.065  0.00  0.00    +0.186 A 
ATOM     11  C   LIG A   1     -10.875   6.234 130.478  0.00  0.00    +0.095 A 
ATOM     12  C   LIG A   1     -10.718   6.535 129.120  0.00  0.00    +0.050 A 
ATOM     13  C   LIG A   1     -11.618   7.372 128.444  0.00  0.00    +0.014 A 
ATOM     14  C   LIG A   1     -12.720   7.894 129.120  0.00  0.00    +0.004 A 
ATOM     15  C   LIG A   1     -12.937   7.555 130.453  0.00  0.00    +0.047 A 
ATOM     16  C   LIG A   1     -12.035   6.719 131.108  0.00  0.00    +0.141 A 
ENDROOT
BRANCH   7  17
ATOM     17  O   LIG A   1      -7.542   4.424 127.009  0.00  0.00    -0.506 OA
ATOM     18  H   LIG A   1      -6.637   4.087 126.809  0.00  0.00    +0.292 HD
ENDBRANCH   7  17
BRANCH   9  19
ATOM     19  O   LIG A   1      -6.386   2.057 130.983  0.00  0.00    -0.491 OA
ATOM     20  C   LIG A   1      -6.609   0.686 130.663  0.00  0.00    +0.277 C 
ENDBRANCH   9  19
BRANCH  10  21
ATOM     21  O   LIG A   1      -8.280   3.521 132.424  0.00  0.00    -0.489 OA
ATOM     22  C   LIG A   1      -9.155   2.458 132.791  0.00  0.00    +0.277 C 
ENDBRANCH  10  21
BRANCH  16  23
ATOM     23  O   LIG A   1     -12.360   6.326 132.380  0.00  0.00    -0.505 OA
ATOM     24  H   LIG A   1     -11.521   6.335 132.877  0.00  0.00    +0.292 HD
ENDBRANCH  16  23
TORSDOF 4
ENDMDL
MODEL 4
REMARK VINA RESULT:      -6.1      1.123      1.274
REMARK  Name = NuBBE_1076
REMARK  7 active torsions:
REMARK  status: ('A' for Active; 'I' for Inactive)
REMARK    1  A    between atoms: C_1  and  N_2
REMARK    2  A    between atoms: C_7  and  O_8
REMARK    3  A    between atoms: C_10  and  O_11
REMARK    4  A    between atoms: O_11  and  C_12
REMARK    5  A    between atoms: C_13  and  O_14
REMARK    6  A    between atoms: O_14  and  C_15
REMARK    7  A    between atoms: C_21  and  O_22
REMARK                            x       y       z     vdW  Elec       q    Type
REMARK                         _______ _______ _______ _____ _____    ______ ____
ROOT
ATOM      1  C   LIG A   1      -7.100  -0.564 123.442  0.00  0.00    +0.149 C 
ATOM      2  N   LIG A   1      -7.423  -0.199 124.842  0.00  0.00    -0.337 N 
ATOM      3  C   LIG A   1      -6.561   0.819 125.362  0.00  0.00    +0.102 A 
ATOM      4  C   LIG A   1      -5.928   0.617 126.603  0.00  0.00    +0.091 A 
ATOM      5  C   LIG A   1      -6.151  -0.654 127.329  0.00  0.00    +0.201 A 
ATOM      6  O   LIG A   1      -5.502  -0.901 128.342  0.00  0.00    -0.286 OA
ATOM      7  C   LIG A   1      -5.078   1.590 127.141  0.00  0.00    +0.133 A 
ATOM      8  C   LIG A   1      -4.869   2.793 126.479  0.00  0.00    +0.095 A 
ATOM      9  C   LIG A   1      -5.511   3.046 125.263  0.00  0.00    +0.167 A 
ATOM     10  C   LIG A   1      -6.351   2.060 124.701  0.00  0.00    +0.186 A 
ATOM     11  C   LIG A   1      -7.825  -1.307 125.631  0.00  0.00    +0.095 A 
ATOM     12  C   LIG A   1      -7.186  -1.586 126.846  0.00  0.00    +0.050 A 
ATOM     13  C   LIG A   1      -7.523  -2.712 127.612  0.00  0.00    +0.014 A 
ATOM     14  C   LIG A   1      -8.541  -3.562 127.183  0.00  0.00    +0.004 A 
ATOM     15  C   LIG A   1      -9.238  -3.270 126.013  0.00  0.00    +0.047 A 
ATOM     16  C   LIG A   1      -8.893  -2.145 125.267  0.00  0.00    +0.141 A 
ENDROOT
BRANCH   7  17
ATOM     17  O   LIG A   1      -4.402   1.425 128.322  0.00  0.00    -0.506 OA
ATOM     18  H   LIG A   1      -5.029   1.039 128.976  0.00  0.00    +0.292 HD
ENDBRANCH   7  17
BRANCH   9  19
ATOM     19  O   LIG A   1      -5.303   4.199 124.551  0.00  0.00    -0.491 OA
ATOM     20  C   LIG A   1      -5.977   5.362 125.024  0.00  0.00    +0.277 C 
ENDBRANCH   9  19
BRANCH  10  21
ATOM     21  O   LIG A   1      -6.950   2.219 123.468  0.00  0.00    -0.489 OA
ATOM     22  C   LIG A   1      -8.194   2.913 123.495  0.00  0.00    +0.277 C 
ENDBRANCH  10  21
BRANCH  16  23
ATOM     23  O   LIG A   1      -9.687  -1.843 124.192  0.00  0.00    -0.505 OA
ATOM     24  H   LIG A   1     -10.589  -1.756 124.551  0.00  0.00    +0.292 HD
ENDBRANCH  16  23
TORSDOF 4
ENDMDL
MODEL 5
REMARK VINA RESULT:      -6.1      1.997      2.704
REMARK  Name = NuBBE_1076
REMARK  7 active torsions:
REMARK  status: ('A' for Active; 'I' for Inactive)
REMARK    1  A    between atoms: C_1  and  N_2
REMARK    2  A    between atoms: C_7  and  O_8
REMARK    3  A    between atoms: C_10  and  O_11
REMARK    4  A    between atoms: O_11  and  C_12
REMARK    5  A    between atoms: C_13  and  O_14
REMARK    6  A    between atoms: O_14  and  C_15
REMARK    7  A    between atoms: C_21  and  O_22
REMARK                            x       y       z     vdW  Elec       q    Type
REMARK                         _______ _______ _______ _____ _____    ______ ____
ROOT
ATOM      1  C   LIG A   1      -7.159   0.833 123.014  0.00  0.00    +0.149 C 
ATOM      2  N   LIG A   1      -7.551   0.316 124.347  0.00  0.00    -0.337 N 
ATOM      3  C   LIG A   1      -6.736   0.833 125.404  0.00  0.00    +0.102 A 
ATOM      4  C   LIG A   1      -6.154  -0.060 126.324  0.00  0.00    +0.091 A 
ATOM      5  C   LIG A   1      -6.381  -1.514 126.162  0.00  0.00    +0.201 A 
ATOM      6  O   LIG A   1      -5.772  -2.310 126.872  0.00  0.00    -0.286 OA
ATOM      7  C   LIG A   1      -5.350   0.410 127.369  0.00  0.00    +0.133 A 
ATOM      8  C   LIG A   1      -5.139   1.772 127.542  0.00  0.00    +0.095 A 
ATOM      9  C   LIG A   1      -5.731   2.692 126.673  0.00  0.00    +0.167 A 
ATOM     10  C   LIG A   1      -6.524   2.225 125.601  0.00  0.00    +0.186 A 
ATOM     11  C   LIG A   1      -7.963  -1.042 124.322  0.00  0.00    +0.095 A 
ATOM     12  C   LIG A   1      -7.373  -1.981 125.177  0.00  0.00    +0.050 A 
ATOM     13  C   LIG A   1      -7.719  -3.340 125.125  0.00  0.00    +0.014 A 
ATOM     14  C   LIG A   1      -8.698  -3.772 124.233  0.00  0.00    +0.004 A 
ATOM     15  C   LIG A   1      -9.349  -2.848 123.419  0.00  0.00    +0.047 A 
ATOM     16  C   LIG A   1      -8.996  -1.501 123.487  0.00  0.00    +0.141 A 
ENDROOT
BRANCH   7  17
ATOM     17  O   LIG A   1      -4.723  -0.417 128.264  0.00  0.00    -0.506 OA
ATOM     18  H   LIG A   1      -5.001  -1.341 128.064  0.00  0.00    +0.292 HD
ENDBRANCH   7  17
BRANCH   9  19
ATOM     19  O   LIG A   1      -5.517   4.042 126.776  0.00  0.00    -0.491 OA
ATOM     20  C   LIG A   1      -4.156   4.461 126.833  0.00  0.00    +0.277 C 
ENDBRANCH   9  19
BRANCH  10  21
ATOM     21  O   LIG A   1      -7.071   3.078 124.664  0.00  0.00    -0.489 OA
ATOM     22  C   LIG A   1      -8.305   3.676 125.051  0.00  0.00    +0.277 C 
ENDBRANCH  10  21
BRANCH  16  23
ATOM     23  O   LIG A   1      -9.748  -0.623 122.751  0.00  0.00    -0.505 OA
ATOM     24  H   LIG A   1     -10.312  -1.177 122.182  0.00  0.00    +0.292 HD
ENDBRANCH  16  23
TORSDOF 4
ENDMDL
MODEL 6
REMARK VINA RESULT:      -6.0      2.232      4.801
REMARK  Name = NuBBE_1076
REMARK  7 active torsions:
REMARK  status: ('A' for Active; 'I' for Inactive)
REMARK    1  A    between atoms: C_1  and  N_2
REMARK    2  A    between atoms: C_7  and  O_8
REMARK    3  A    between atoms: C_10  and  O_11
REMARK    4  A    between atoms: O_11  and  C_12
REMARK    5  A    between atoms: C_13  and  O_14
REMARK    6  A    between atoms: O_14  and  C_15
REMARK    7  A    between atoms: C_21  and  O_22
REMARK                            x       y       z     vdW  Elec       q    Type
REMARK                         _______ _______ _______ _____ _____    ______ ____
ROOT
ATOM      1  C   LIG A   1      -6.254   0.190 125.436  0.00  0.00    +0.149 C 
ATOM      2  N   LIG A   1      -7.535  -0.332 125.969  0.00  0.00    -0.337 N 
ATOM      3  C   LIG A   1      -7.490  -0.573 127.380  0.00  0.00    +0.102 A 
ATOM      4  C   LIG A   1      -7.915  -1.820 127.878  0.00  0.00    +0.091 A 
ATOM      5  C   LIG A   1      -8.375  -2.859 126.930  0.00  0.00    +0.201 A 
ATOM      6  O   LIG A   1      -8.617  -3.993 127.336  0.00  0.00    -0.286 OA
ATOM      7  C   LIG A   1      -7.884  -2.091 129.251  0.00  0.00    +0.133 A 
ATOM      8  C   LIG A   1      -7.469  -1.121 130.155  0.00  0.00    +0.095 A 
ATOM      9  C   LIG A   1      -7.077   0.141 129.702  0.00  0.00    +0.167 A 
ATOM     10  C   LIG A   1      -7.082   0.415 128.316  0.00  0.00    +0.186 A 
ATOM     11  C   LIG A   1      -8.188  -1.227 125.082  0.00  0.00    +0.095 A 
ATOM     12  C   LIG A   1      -8.577  -2.502 125.514  0.00  0.00    +0.050 A 
ATOM     13  C   LIG A   1      -9.166  -3.425 124.638  0.00  0.00    +0.014 A 
ATOM     14  C   LIG A   1      -9.409  -3.066 123.313  0.00  0.00    +0.004 A 
ATOM     15  C   LIG A   1      -9.094  -1.782 122.876  0.00  0.00    +0.047 A 
ATOM     16  C   LIG A   1      -8.514  -0.875 123.761  0.00  0.00    +0.141 A 
ENDROOT
BRANCH   7  17
ATOM     17  O   LIG A   1      -8.242  -3.301 129.785  0.00  0.00    -0.506 OA
ATOM     18  H   LIG A   1      -7.850  -3.359 130.687  0.00  0.00    +0.292 HD
ENDBRANCH   7  17
BRANCH   9  19
ATOM     19  O   LIG A   1      -6.618   1.116 130.550  0.00  0.00    -0.491 OA
ATOM     20  C   LIG A   1      -7.565   1.641 131.476  0.00  0.00    +0.277 C 
ENDBRANCH   9  19
BRANCH  10  21
ATOM     21  O   LIG A   1      -6.633   1.614 127.801  0.00  0.00    -0.489 OA
ATOM     22  C   LIG A   1      -7.599   2.661 127.801  0.00  0.00    +0.277 C 
ENDBRANCH  10  21
BRANCH  16  23
ATOM     23  O   LIG A   1      -8.334   0.406 123.311  0.00  0.00    -0.505 OA
ATOM     24  H   LIG A   1      -7.488   0.395 122.826  0.00  0.00    +0.292 HD
ENDBRANCH  16  23
TORSDOF 4
ENDMDL
MODEL 7
REMARK VINA RESULT:      -5.9      2.080      5.801
REMARK  Name = NuBBE_1076
REMARK  7 active torsions:
REMARK  status: ('A' for Active; 'I' for Inactive)
REMARK    1  A    between atoms: C_1  and  N_2
REMARK    2  A    between atoms: C_7  and  O_8
REMARK    3  A    between atoms: C_10  and  O_11
REMARK    4  A    between atoms: O_11  and  C_12
REMARK    5  A    between atoms: C_13  and  O_14
REMARK    6  A    between atoms: O_14  and  C_15
REMARK    7  A    between atoms: C_21  and  O_22
REMARK                            x       y       z     vdW  Elec       q    Type
REMARK                         _______ _______ _______ _____ _____    ______ ____
ROOT
ATOM      1  C   LIG A   1      -6.961   1.763 126.376  0.00  0.00    +0.149 C 
ATOM      2  N   LIG A   1      -8.176   0.915 126.330  0.00  0.00    -0.337 N 
ATOM      3  C   LIG A   1      -8.070  -0.251 127.154  0.00  0.00    +0.102 A 
ATOM      4  C   LIG A   1      -8.371  -1.512 126.604  0.00  0.00    +0.091 A 
ATOM      5  C   LIG A   1      -8.767  -1.603 125.180  0.00  0.00    +0.201 A 
ATOM      6  O   LIG A   1      -8.899  -2.705 124.653  0.00  0.00    -0.286 OA
ATOM      7  C   LIG A   1      -8.277  -2.673 127.380  0.00  0.00    +0.133 A 
ATOM      8  C   LIG A   1      -7.921  -2.602 128.721  0.00  0.00    +0.095 A 
ATOM      9  C   LIG A   1      -7.653  -1.365 129.312  0.00  0.00    +0.167 A 
ATOM     10  C   LIG A   1      -7.721  -0.189 128.530  0.00  0.00    +0.186 A 
ATOM     11  C   LIG A   1      -8.775   0.865 125.044  0.00  0.00    +0.095 A 
ATOM     12  C   LIG A   1      -9.040  -0.365 124.429  0.00  0.00    +0.050 A 
ATOM     13  C   LIG A   1      -9.572  -0.438 123.133  0.00  0.00    +0.014 A 
ATOM     14  C   LIG A   1      -9.884   0.734 122.445  0.00  0.00    +0.004 A 
ATOM     15  C   LIG A   1      -9.694   1.969 123.060  0.00  0.00    +0.047 A 
ATOM     16  C   LIG A   1      -9.168   2.022 124.350  0.00  0.00    +0.141 A 
ENDROOT
BRANCH   7  17
ATOM     17  O   LIG A   1      -8.514  -3.928 126.883  0.00  0.00    -0.506 OA
ATOM     18  H   LIG A   1      -8.290  -3.918 125.923  0.00  0.00    +0.292 HD
ENDBRANCH   7  17
BRANCH   9  19
ATOM     19  O   LIG A   1      -7.255  -1.247 130.619  0.00  0.00    -0.491 OA
ATOM     20  C   LIG A   1      -6.056  -1.930 130.976  0.00  0.00    +0.277 C 
ENDBRANCH   9  19
BRANCH  10  21
ATOM     21  O   LIG A   1      -7.393   1.051 129.036  0.00  0.00    -0.489 OA
ATOM     22  C   LIG A   1      -8.442   1.701 129.748  0.00  0.00    +0.277 C 
ENDBRANCH  10  21
BRANCH  16  23
ATOM     23  O   LIG A   1      -9.112   3.253 124.949  0.00  0.00    -0.505 OA
ATOM     24  H   LIG A   1      -9.893   3.295 125.532  0.00  0.00    +0.292 HD
ENDBRANCH  16  23
TORSDOF 4
ENDMDL
MODEL 8
REMARK VINA RESULT:      -5.8      1.947      4.325
REMARK  Name = NuBBE_1076
REMARK  7 active torsions:
REMARK  status: ('A' for Active; 'I' for Inactive)
REMARK    1  A    between atoms: C_1  and  N_2
REMARK    2  A    between atoms: C_7  and  O_8
REMARK    3  A    between atoms: C_10  and  O_11
REMARK    4  A    between atoms: O_11  and  C_12
REMARK    5  A    between atoms: C_13  and  O_14
REMARK    6  A    between atoms: O_14  and  C_15
REMARK    7  A    between atoms: C_21  and  O_22
REMARK                            x       y       z     vdW  Elec       q    Type
REMARK                         _______ _______ _______ _____ _____    ______ ____
ROOT
ATOM      1  C   LIG A   1      -6.301   0.695 129.248  0.00  0.00    +0.149 C 
ATOM      2  N   LIG A   1      -6.242  -0.483 128.349  0.00  0.00    -0.337 N 
ATOM      3  C   LIG A   1      -7.203  -0.421 127.290  0.00  0.00    +0.102 A 
ATOM      4  C   LIG A   1      -8.043  -1.527 127.058  0.00  0.00    +0.091 A 
ATOM      5  C   LIG A   1      -7.928  -2.717 127.930  0.00  0.00    +0.201 A 
ATOM      6  O   LIG A   1      -8.743  -3.631 127.828  0.00  0.00    -0.286 OA
ATOM      7  C   LIG A   1      -8.995  -1.501 126.032  0.00  0.00    +0.133 A 
ATOM      8  C   LIG A   1      -9.105  -0.397 125.196  0.00  0.00    +0.095 A 
ATOM      9  C   LIG A   1      -8.263   0.704 125.371  0.00  0.00    +0.167 A 
ATOM     10  C   LIG A   1      -7.315   0.697 126.419  0.00  0.00    +0.186 A 
ATOM     11  C   LIG A   1      -5.965  -1.696 129.032  0.00  0.00    +0.095 A 
ATOM     12  C   LIG A   1      -6.805  -2.806 128.881  0.00  0.00    +0.050 A 
ATOM     13  C   LIG A   1      -6.587  -3.993 129.596  0.00  0.00    +0.014 A 
ATOM     14  C   LIG A   1      -5.492  -4.097 130.452  0.00  0.00    +0.004 A 
ATOM     15  C   LIG A   1      -4.603  -3.031 130.569  0.00  0.00    +0.047 A 
ATOM     16  C   LIG A   1      -4.832  -1.860 129.848  0.00  0.00    +0.141 A 
ENDROOT
BRANCH   7  17
ATOM     17  O   LIG A   1      -9.868  -2.530 125.793  0.00  0.00    -0.506 OA
ATOM     18  H   LIG A   1     -10.330  -2.735 126.638  0.00  0.00    +0.292 HD
ENDBRANCH   7  17
BRANCH   9  19
ATOM     19  O   LIG A   1      -8.363   1.834 124.600  0.00  0.00    -0.491 OA
ATOM     20  C   LIG A   1      -9.455   1.877 123.685  0.00  0.00    +0.277 C 
ENDBRANCH   9  19
BRANCH  10  21
ATOM     21  O   LIG A   1      -6.510   1.783 126.690  0.00  0.00    -0.489 OA
ATOM     22  C   LIG A   1      -5.322   1.854 125.907  0.00  0.00    +0.277 C 
ENDBRANCH  10  21
BRANCH  16  23
ATOM     23  O   LIG A   1      -3.865  -0.891 129.911  0.00  0.00    -0.505 OA
ATOM     24  H   LIG A   1      -3.159  -1.190 129.309  0.00  0.00    +0.292 HD
ENDBRANCH  16  23
TORSDOF 4
ENDMDL
MODEL 9
REMARK VINA RESULT:      -5.8      5.304      7.014
REMARK  Name = NuBBE_1076
REMARK  7 active torsions:
REMARK  status: ('A' for Active; 'I' for Inactive)
REMARK    1  A    between atoms: C_1  and  N_2
REMARK    2  A    between atoms: C_7  and  O_8
REMARK    3  A    between atoms: C_10  and  O_11
REMARK    4  A    between atoms: O_11  and  C_12
REMARK    5  A    between atoms: C_13  and  O_14
REMARK    6  A    between atoms: O_14  and  C_15
REMARK    7  A    between atoms: C_21  and  O_22
REMARK                            x       y       z     vdW  Elec       q    Type
REMARK                         _______ _______ _______ _____ _____    ______ ____
ROOT
ATOM      1  C   LIG A   1      -6.660   2.615 129.198  0.00  0.00    +0.149 C 
ATOM      2  N   LIG A   1      -6.548   4.082 129.017  0.00  0.00    -0.337 N 
ATOM      3  C   LIG A   1      -5.222   4.499 128.678  0.00  0.00    +0.102 A 
ATOM      4  C   LIG A   1      -4.619   5.539 129.412  0.00  0.00    +0.091 A 
ATOM      5  C   LIG A   1      -5.364   6.160 130.531  0.00  0.00    +0.201 A 
ATOM      6  O   LIG A   1      -4.802   6.970 131.264  0.00  0.00    -0.286 OA
ATOM      7  C   LIG A   1      -3.323   5.972 129.109  0.00  0.00    +0.133 A 
ATOM      8  C   LIG A   1      -2.617   5.410 128.053  0.00  0.00    +0.095 A 
ATOM      9  C   LIG A   1      -3.197   4.402 127.277  0.00  0.00    +0.167 A 
ATOM     10  C   LIG A   1      -4.495   3.942 127.591  0.00  0.00    +0.186 A 
ATOM     11  C   LIG A   1      -7.351   4.821 129.925  0.00  0.00    +0.095 A 
ATOM     12  C   LIG A   1      -6.787   5.826 130.721  0.00  0.00    +0.050 A 
ATOM     13  C   LIG A   1      -7.548   6.525 131.669  0.00  0.00    +0.014 A 
ATOM     14  C   LIG A   1      -8.907   6.249 131.808  0.00  0.00    +0.004 A 
ATOM     15  C   LIG A   1      -9.507   5.302 130.982  0.00  0.00    +0.047 A 
ATOM     16  C   LIG A   1      -8.738   4.620 130.042  0.00  0.00    +0.141 A 
ENDROOT
BRANCH   7  17
ATOM     17  O   LIG A   1      -2.673   6.947 129.819  0.00  0.00    -0.506 OA
ATOM     18  H   LIG A   1      -2.867   6.803 130.775  0.00  0.00    +0.292 HD
ENDBRANCH   7  17
BRANCH   9  19
ATOM     19  O   LIG A   1      -2.524   3.786 126.254  0.00  0.00    -0.491 OA
ATOM     20  C   LIG A   1      -1.473   2.902 126.634  0.00  0.00    +0.277 C 
ENDBRANCH   9  19
BRANCH  10  21
ATOM     21  O   LIG A   1      -5.090   2.899 126.913  0.00  0.00    -0.489 OA
ATOM     22  C   LIG A   1      -5.693   3.260 125.674  0.00  0.00    +0.277 C 
ENDBRANCH  10  21
BRANCH  16  23
ATOM     23  O   LIG A   1      -9.402   3.787 129.179  0.00  0.00    -0.505 OA
ATOM     24  H   LIG A   1      -9.398   2.912 129.609  0.00  0.00    +0.292 HD
ENDBRANCH  16  23
TORSDOF 4
ENDMDL
