MODEL 1
REMARK VINA RESULT:      -6.8      0.000      0.000
REMARK  Name = NuBBE_1311
REMARK  14 active torsions:
REMARK  status: ('A' for Active; 'I' for Inactive)
REMARK    1  A    between atoms: C_3  and  O_4
REMARK    2  A    between atoms: O_4  and  C_5
REMARK    3  A    between atoms: C_6  and  C_7
REMARK    4  A    between atoms: C_9  and  O_10
REMARK    5  A    between atoms: O_10  and  C_11
REMARK    6  A    between atoms: C_12  and  O_13
REMARK    7  A    between atoms: O_13  and  C_14
REMARK    8  A    between atoms: C_15  and  O_16
REMARK    9  A    between atoms: O_16  and  C_17
REMARK   10  A    between atoms: C_22  and  O_23
REMARK   11  A    between atoms: C_24  and  O_25
REMARK   12  A    between atoms: O_25  and  C_26
REMARK   13  A    between atoms: C_28  and  O_29
REMARK   14  A    between atoms: O_29  and  C_30
REMARK                            x       y       z     vdW  Elec       q    Type
REMARK                         _______ _______ _______ _____ _____    ______ ____
ROOT
ATOM      1  O   LIG A   1      -5.803   5.121 128.605  0.00  0.00    -0.283 OA
ATOM      2  C   LIG A   1      -6.721   4.376 128.880  0.00  0.00    +0.238 A 
ATOM      3  C   LIG A   1      -6.810   2.980 128.314  0.00  0.00    +0.211 A 
ATOM      4  C   LIG A   1      -8.010   2.370 128.344  0.00  0.00    +0.181 A 
ATOM      5  O   LIG A   1      -9.141   2.930 128.912  0.00  0.00    -0.447 OA
ATOM      6  C   LIG A   1      -7.834   4.798 129.766  0.00  0.00    +0.113 A 
ATOM      7  C   LIG A   1      -9.000   4.048 129.702  0.00  0.00    +0.188 A 
ATOM      8  C   LIG A   1     -10.126   4.405 130.450  0.00  0.00    +0.203 A 
ATOM      9  C   LIG A   1     -10.088   5.519 131.289  0.00  0.00    +0.169 A 
ATOM     10  C   LIG A   1      -8.897   6.257 131.376  0.00  0.00    +0.096 A 
ATOM     11  C   LIG A   1      -7.759   5.901 130.635  0.00  0.00    +0.138 A 
ENDROOT
BRANCH   4  12
ATOM     12  C   LIG A   1      -8.283   1.059 127.738  0.00  0.00    +0.028 A 
ATOM     13  C   LIG A   1      -8.884   0.949 126.482  0.00  0.00    +0.061 A 
ATOM     14  C   LIG A   1      -9.013  -0.299 125.848  0.00  0.00    +0.166 A 
ATOM     15  C   LIG A   1      -8.465  -1.455 126.440  0.00  0.00    +0.203 A 
ATOM     16  C   LIG A   1      -7.887  -1.352 127.724  0.00  0.00    +0.166 A 
ATOM     17  C   LIG A   1      -7.826  -0.105 128.369  0.00  0.00    +0.061 A 
BRANCH  14  18
ATOM     18  O   LIG A   1      -9.638  -0.227 124.626  0.00  0.00    -0.491 OA
ATOM     19  C   LIG A   1      -8.966   0.488 123.591  0.00  0.00    +0.277 C 
ENDBRANCH  14  18
BRANCH  15  20
ATOM     20  O   LIG A   1      -8.429  -2.592 125.666  0.00  0.00    -0.488 OA
ATOM     21  C   LIG A   1      -7.312  -2.751 124.797  0.00  0.00    +0.277 C 
ENDBRANCH  15  20
BRANCH  16  22
ATOM     22  O   LIG A   1      -7.260  -2.455 128.240  0.00  0.00    -0.491 OA
ATOM     23  C   LIG A   1      -8.021  -3.287 129.105  0.00  0.00    +0.277 C 
ENDBRANCH  16  22
ENDBRANCH   4  12
BRANCH   3  24
ATOM     24  O   LIG A   1      -5.719   2.357 127.729  0.00  0.00    -0.488 OA
ATOM     25  C   LIG A   1      -4.723   1.880 128.628  0.00  0.00    +0.277 C 
ENDBRANCH   3  24
BRANCH   8  26
ATOM     26  O   LIG A   1     -11.247   3.628 130.322  0.00  0.00    -0.501 OA
ATOM     27  H   LIG A   1     -11.668   3.568 131.201  0.00  0.00    +0.292 HD
ENDBRANCH   8  26
BRANCH   9  28
ATOM     28  O   LIG A   1     -11.096   6.013 132.074  0.00  0.00    -0.491 OA
ATOM     29  C   LIG A   1     -12.069   6.837 131.444  0.00  0.00    +0.277 C 
ENDBRANCH   9  28
BRANCH  11  30
ATOM     30  O   LIG A   1      -6.593   6.616 130.686  0.00  0.00    -0.494 OA
ATOM     31  C   LIG A   1      -5.782   6.462 131.847  0.00  0.00    +0.277 C 
ENDBRANCH  11  30
TORSDOF 8
ENDMDL
MODEL 2
REMARK VINA RESULT:      -6.7      0.765      2.404
REMARK  Name = NuBBE_1311
REMARK  14 active torsions:
REMARK  status: ('A' for Active; 'I' for Inactive)
REMARK    1  A    between atoms: C_3  and  O_4
REMARK    2  A    between atoms: O_4  and  C_5
REMARK    3  A    between atoms: C_6  and  C_7
REMARK    4  A    between atoms: C_9  and  O_10
REMARK    5  A    between atoms: O_10  and  C_11
REMARK    6  A    between atoms: C_12  and  O_13
REMARK    7  A    between atoms: O_13  and  C_14
REMARK    8  A    between atoms: C_15  and  O_16
REMARK    9  A    between atoms: O_16  and  C_17
REMARK   10  A    between atoms: C_22  and  O_23
REMARK   11  A    between atoms: C_24  and  O_25
REMARK   12  A    between atoms: O_25  and  C_26
REMARK   13  A    between atoms: C_28  and  O_29
REMARK   14  A    between atoms: O_29  and  C_30
REMARK                            x       y       z     vdW  Elec       q    Type
REMARK                         _______ _______ _______ _____ _____    ______ ____
ROOT
ATOM      1  O   LIG A   1      -5.576   5.292 128.795  0.00  0.00    -0.283 OA
ATOM      2  C   LIG A   1      -6.528   4.548 128.928  0.00  0.00    +0.238 A 
ATOM      3  C   LIG A   1      -6.635   3.249 128.167  0.00  0.00    +0.211 A 
ATOM      4  C   LIG A   1      -7.853   2.685 128.066  0.00  0.00    +0.181 A 
ATOM      5  O   LIG A   1      -8.990   3.200 128.667  0.00  0.00    -0.447 OA
ATOM      6  C   LIG A   1      -7.662   4.882 129.824  0.00  0.00    +0.113 A 
ATOM      7  C   LIG A   1      -8.847   4.190 129.611  0.00  0.00    +0.188 A 
ATOM      8  C   LIG A   1      -9.991   4.479 130.361  0.00  0.00    +0.203 A 
ATOM      9  C   LIG A   1      -9.954   5.463 131.351  0.00  0.00    +0.169 A 
ATOM     10  C   LIG A   1      -8.746   6.138 131.584  0.00  0.00    +0.096 A 
ATOM     11  C   LIG A   1      -7.590   5.849 130.842  0.00  0.00    +0.138 A 
ENDROOT
BRANCH   4  12
ATOM     12  C   LIG A   1      -8.141   1.483 127.272  0.00  0.00    +0.028 A 
ATOM     13  C   LIG A   1      -7.817   0.207 127.741  0.00  0.00    +0.061 A 
ATOM     14  C   LIG A   1      -8.221  -0.945 127.043  0.00  0.00    +0.166 A 
ATOM     15  C   LIG A   1      -9.030  -0.830 125.894  0.00  0.00    +0.203 A 
ATOM     16  C   LIG A   1      -9.330   0.458 125.401  0.00  0.00    +0.166 A 
ATOM     17  C   LIG A   1      -8.862   1.597 126.077  0.00  0.00    +0.061 A 
BRANCH  14  18
ATOM     18  O   LIG A   1      -7.808  -2.113 127.635  0.00  0.00    -0.491 OA
ATOM     19  C   LIG A   1      -6.416  -2.246 127.913  0.00  0.00    +0.277 C 
ENDBRANCH  14  18
BRANCH  15  20
ATOM     20  O   LIG A   1      -9.572  -1.994 125.397  0.00  0.00    -0.488 OA
ATOM     21  C   LIG A   1      -8.849  -2.657 124.365  0.00  0.00    +0.277 C 
ENDBRANCH  15  20
BRANCH  16  22
ATOM     22  O   LIG A   1     -10.208   0.559 124.352  0.00  0.00    -0.491 OA
ATOM     23  C   LIG A   1      -9.765   1.271 123.204  0.00  0.00    +0.277 C 
ENDBRANCH  16  22
ENDBRANCH   4  12
BRANCH   3  24
ATOM     24  O   LIG A   1      -5.540   2.676 127.540  0.00  0.00    -0.488 OA
ATOM     25  C   LIG A   1      -4.615   2.011 128.394  0.00  0.00    +0.277 C 
ENDBRANCH   3  24
BRANCH   8  26
ATOM     26  O   LIG A   1     -11.129   3.769 130.084  0.00  0.00    -0.501 OA
ATOM     27  H   LIG A   1     -10.879   2.829 130.001  0.00  0.00    +0.292 HD
ENDBRANCH   8  26
BRANCH   9  28
ATOM     28  O   LIG A   1     -10.977   5.878 132.160  0.00  0.00    -0.491 OA
ATOM     29  C   LIG A   1     -11.956   6.737 131.587  0.00  0.00    +0.277 C 
ENDBRANCH   9  28
BRANCH  11  30
ATOM     30  O   LIG A   1      -6.406   6.508 131.036  0.00  0.00    -0.494 OA
ATOM     31  C   LIG A   1      -5.662   6.185 132.208  0.00  0.00    +0.277 C 
ENDBRANCH  11  30
TORSDOF 8
ENDMDL
MODEL 3
REMARK VINA RESULT:      -6.4      2.996      7.131
REMARK  Name = NuBBE_1311
REMARK  14 active torsions:
REMARK  status: ('A' for Active; 'I' for Inactive)
REMARK    1  A    between atoms: C_3  and  O_4
REMARK    2  A    between atoms: O_4  and  C_5
REMARK    3  A    between atoms: C_6  and  C_7
REMARK    4  A    between atoms: C_9  and  O_10
REMARK    5  A    between atoms: O_10  and  C_11
REMARK    6  A    between atoms: C_12  and  O_13
REMARK    7  A    between atoms: O_13  and  C_14
REMARK    8  A    between atoms: C_15  and  O_16
REMARK    9  A    between atoms: O_16  and  C_17
REMARK   10  A    between atoms: C_22  and  O_23
REMARK   11  A    between atoms: C_24  and  O_25
REMARK   12  A    between atoms: O_25  and  C_26
REMARK   13  A    between atoms: C_28  and  O_29
REMARK   14  A    between atoms: O_29  and  C_30
REMARK                            x       y       z     vdW  Elec       q    Type
REMARK                         _______ _______ _______ _____ _____    ______ ____
ROOT
ATOM      1  O   LIG A   1      -4.357   4.247 125.940  0.00  0.00    -0.283 OA
ATOM      2  C   LIG A   1      -5.553   4.122 126.112  0.00  0.00    +0.238 A 
ATOM      3  C   LIG A   1      -6.178   4.252 127.479  0.00  0.00    +0.211 A 
ATOM      4  C   LIG A   1      -7.407   3.731 127.654  0.00  0.00    +0.181 A 
ATOM      5  O   LIG A   1      -8.141   3.138 126.641  0.00  0.00    -0.447 OA
ATOM      6  C   LIG A   1      -6.474   3.801 124.995  0.00  0.00    +0.113 A 
ATOM      7  C   LIG A   1      -7.721   3.297 125.341  0.00  0.00    +0.188 A 
ATOM      8  C   LIG A   1      -8.635   2.905 124.358  0.00  0.00    +0.203 A 
ATOM      9  C   LIG A   1      -8.311   3.030 123.006  0.00  0.00    +0.169 A 
ATOM     10  C   LIG A   1      -7.063   3.570 122.660  0.00  0.00    +0.096 A 
ATOM     11  C   LIG A   1      -6.142   3.974 123.640  0.00  0.00    +0.138 A 
ENDROOT
BRANCH   4  12
ATOM     12  C   LIG A   1      -8.104   3.682 128.947  0.00  0.00    +0.028 A 
ATOM     13  C   LIG A   1      -7.946   2.601 129.818  0.00  0.00    +0.061 A 
ATOM     14  C   LIG A   1      -8.500   2.625 131.110  0.00  0.00    +0.166 A 
ATOM     15  C   LIG A   1      -9.164   3.779 131.575  0.00  0.00    +0.203 A 
ATOM     16  C   LIG A   1      -9.354   4.858 130.686  0.00  0.00    +0.166 A 
ATOM     17  C   LIG A   1      -8.847   4.789 129.377  0.00  0.00    +0.061 A 
BRANCH  14  18
ATOM     18  O   LIG A   1      -8.261   1.478 131.827  0.00  0.00    -0.491 OA
ATOM     19  C   LIG A   1      -8.840   0.271 131.338  0.00  0.00    +0.277 C 
ENDBRANCH  14  18
BRANCH  15  20
ATOM     20  O   LIG A   1      -9.480   3.816 132.914  0.00  0.00    -0.488 OA
ATOM     21  C   LIG A   1      -8.468   4.268 133.808  0.00  0.00    +0.277 C 
ENDBRANCH  15  20
BRANCH  16  22
ATOM     22  O   LIG A   1      -9.898   6.015 131.181  0.00  0.00    -0.491 OA
ATOM     23  C   LIG A   1     -11.301   6.187 131.027  0.00  0.00    +0.277 C 
ENDBRANCH  16  22
ENDBRANCH   4  12
BRANCH   3  24
ATOM     24  O   LIG A   1      -5.502   4.832 128.541  0.00  0.00    -0.488 OA
ATOM     25  C   LIG A   1      -4.547   4.001 129.194  0.00  0.00    +0.277 C 
ENDBRANCH   3  24
BRANCH   8  26
ATOM     26  O   LIG A   1      -9.838   2.400 124.774  0.00  0.00    -0.501 OA
ATOM     27  H   LIG A   1     -10.233   3.045 125.392  0.00  0.00    +0.292 HD
ENDBRANCH   8  26
BRANCH   9  28
ATOM     28  O   LIG A   1      -9.077   2.684 121.925  0.00  0.00    -0.491 OA
ATOM     29  C   LIG A   1      -8.996   3.518 120.775  0.00  0.00    +0.277 C 
ENDBRANCH   9  28
BRANCH  11  30
ATOM     30  O   LIG A   1      -4.910   4.483 123.327  0.00  0.00    -0.494 OA
ATOM     31  C   LIG A   1      -4.621   4.697 121.948  0.00  0.00    +0.277 C 
ENDBRANCH  11  30
TORSDOF 8
ENDMDL
MODEL 4
REMARK VINA RESULT:      -6.4      3.957      6.030
REMARK  Name = NuBBE_1311
REMARK  14 active torsions:
REMARK  status: ('A' for Active; 'I' for Inactive)
REMARK    1  A    between atoms: C_3  and  O_4
REMARK    2  A    between atoms: O_4  and  C_5
REMARK    3  A    between atoms: C_6  and  C_7
REMARK    4  A    between atoms: C_9  and  O_10
REMARK    5  A    between atoms: O_10  and  C_11
REMARK    6  A    between atoms: C_12  and  O_13
REMARK    7  A    between atoms: O_13  and  C_14
REMARK    8  A    between atoms: C_15  and  O_16
REMARK    9  A    between atoms: O_16  and  C_17
REMARK   10  A    between atoms: C_22  and  O_23
REMARK   11  A    between atoms: C_24  and  O_25
REMARK   12  A    between atoms: O_25  and  C_26
REMARK   13  A    between atoms: C_28  and  O_29
REMARK   14  A    between atoms: O_29  and  C_30
REMARK                            x       y       z     vdW  Elec       q    Type
REMARK                         _______ _______ _______ _____ _____    ______ ____
ROOT
ATOM      1  O   LIG A   1      -8.425   4.884 127.771  0.00  0.00    -0.283 OA
ATOM      2  C   LIG A   1      -8.648   5.008 128.958  0.00  0.00    +0.238 A 
ATOM      3  C   LIG A   1      -7.825   4.291 130.001  0.00  0.00    +0.211 A 
ATOM      4  C   LIG A   1      -8.353   4.165 131.233  0.00  0.00    +0.181 A 
ATOM      5  O   LIG A   1      -9.575   4.702 131.603  0.00  0.00    -0.447 OA
ATOM      6  C   LIG A   1      -9.762   5.847 129.462  0.00  0.00    +0.113 A 
ATOM      7  C   LIG A   1     -10.176   5.615 130.768  0.00  0.00    +0.188 A 
ATOM      8  C   LIG A   1     -11.260   6.309 131.311  0.00  0.00    +0.203 A 
ATOM      9  C   LIG A   1     -11.938   7.263 130.550  0.00  0.00    +0.169 A 
ATOM     10  C   LIG A   1     -11.498   7.518 129.242  0.00  0.00    +0.096 A 
ATOM     11  C   LIG A   1     -10.404   6.831 128.690  0.00  0.00    +0.138 A 
ENDROOT
BRANCH   4  12
ATOM     12  C   LIG A   1      -7.727   3.404 132.323  0.00  0.00    +0.028 A 
ATOM     13  C   LIG A   1      -7.855   2.016 132.409  0.00  0.00    +0.061 A 
ATOM     14  C   LIG A   1      -7.139   1.281 133.370  0.00  0.00    +0.166 A 
ATOM     15  C   LIG A   1      -6.217   1.929 134.216  0.00  0.00    +0.203 A 
ATOM     16  C   LIG A   1      -6.111   3.335 134.154  0.00  0.00    +0.166 A 
ATOM     17  C   LIG A   1      -6.884   4.059 133.230  0.00  0.00    +0.061 A 
BRANCH  14  18
ATOM     18  O   LIG A   1      -7.392  -0.069 133.322  0.00  0.00    -0.491 OA
ATOM     19  C   LIG A   1      -7.938  -0.588 132.111  0.00  0.00    +0.277 C 
ENDBRANCH  14  18
BRANCH  15  20
ATOM     20  O   LIG A   1      -5.394   1.125 134.970  0.00  0.00    -0.488 OA
ATOM     21  C   LIG A   1      -4.194   0.666 134.356  0.00  0.00    +0.277 C 
ENDBRANCH  15  20
BRANCH  16  22
ATOM     22  O   LIG A   1      -5.134   3.943 134.900  0.00  0.00    -0.491 OA
ATOM     23  C   LIG A   1      -3.997   4.432 134.201  0.00  0.00    +0.277 C 
ENDBRANCH  16  22
ENDBRANCH   4  12
BRANCH   3  24
ATOM     24  O   LIG A   1      -6.595   3.728 129.702  0.00  0.00    -0.488 OA
ATOM     25  C   LIG A   1      -5.490   4.626 129.684  0.00  0.00    +0.277 C 
ENDBRANCH   3  24
BRANCH   8  26
ATOM     26  O   LIG A   1     -11.622   6.015 132.599  0.00  0.00    -0.501 OA
ATOM     27  H   LIG A   1     -12.529   6.349 132.736  0.00  0.00    +0.292 HD
ENDBRANCH   8  26
BRANCH   9  28
ATOM     28  O   LIG A   1     -13.020   8.017 130.920  0.00  0.00    -0.491 OA
ATOM     29  C   LIG A   1     -13.084   9.351 130.428  0.00  0.00    +0.277 C 
ENDBRANCH   9  28
BRANCH  11  30
ATOM     30  O   LIG A   1      -9.969   7.047 127.411  0.00  0.00    -0.494 OA
ATOM     31  C   LIG A   1     -10.887   7.647 126.500  0.00  0.00    +0.277 C 
ENDBRANCH  11  30
TORSDOF 8
ENDMDL
MODEL 5
REMARK VINA RESULT:      -6.3      1.995      7.620
REMARK  Name = NuBBE_1311
REMARK  14 active torsions:
REMARK  status: ('A' for Active; 'I' for Inactive)
REMARK    1  A    between atoms: C_3  and  O_4
REMARK    2  A    between atoms: O_4  and  C_5
REMARK    3  A    between atoms: C_6  and  C_7
REMARK    4  A    between atoms: C_9  and  O_10
REMARK    5  A    between atoms: O_10  and  C_11
REMARK    6  A    between atoms: C_12  and  O_13
REMARK    7  A    between atoms: O_13  and  C_14
REMARK    8  A    between atoms: C_15  and  O_16
REMARK    9  A    between atoms: O_16  and  C_17
REMARK   10  A    between atoms: C_22  and  O_23
REMARK   11  A    between atoms: C_24  and  O_25
REMARK   12  A    between atoms: O_25  and  C_26
REMARK   13  A    between atoms: C_28  and  O_29
REMARK   14  A    between atoms: O_29  and  C_30
REMARK                            x       y       z     vdW  Elec       q    Type
REMARK                         _______ _______ _______ _____ _____    ______ ____
ROOT
ATOM      1  O   LIG A   1      -8.357  -1.775 126.688  0.00  0.00    -0.283 OA
ATOM      2  C   LIG A   1      -8.221  -0.569 126.724  0.00  0.00    +0.238 A 
ATOM      3  C   LIG A   1      -7.892   0.156 128.006  0.00  0.00    +0.211 A 
ATOM      4  C   LIG A   1      -8.136   1.479 128.054  0.00  0.00    +0.181 A 
ATOM      5  O   LIG A   1      -8.613   2.211 126.979  0.00  0.00    -0.447 OA
ATOM      6  C   LIG A   1      -8.398   0.276 125.518  0.00  0.00    +0.113 A 
ATOM      7  C   LIG A   1      -8.612   1.631 125.732  0.00  0.00    +0.188 A 
ATOM      8  C   LIG A   1      -8.855   2.497 124.662  0.00  0.00    +0.203 A 
ATOM      9  C   LIG A   1      -8.869   2.012 123.353  0.00  0.00    +0.169 A 
ATOM     10  C   LIG A   1      -8.621   0.648 123.138  0.00  0.00    +0.096 A 
ATOM     11  C   LIG A   1      -8.369  -0.228 124.205  0.00  0.00    +0.138 A 
ENDROOT
BRANCH   4  12
ATOM     12  C   LIG A   1      -7.971   2.304 129.259  0.00  0.00    +0.028 A 
ATOM     13  C   LIG A   1      -6.711   2.740 129.676  0.00  0.00    +0.061 A 
ATOM     14  C   LIG A   1      -6.575   3.644 130.744  0.00  0.00    +0.166 A 
ATOM     15  C   LIG A   1      -7.718   4.185 131.365  0.00  0.00    +0.203 A 
ATOM     16  C   LIG A   1      -8.991   3.721 130.968  0.00  0.00    +0.166 A 
ATOM     17  C   LIG A   1      -9.103   2.769 129.941  0.00  0.00    +0.061 A 
BRANCH  14  18
ATOM     18  O   LIG A   1      -5.268   3.956 131.029  0.00  0.00    -0.491 OA
ATOM     19  C   LIG A   1      -4.327   3.863 129.961  0.00  0.00    +0.277 C 
ENDBRANCH  14  18
BRANCH  15  20
ATOM     20  O   LIG A   1      -7.515   5.225 132.243  0.00  0.00    -0.488 OA
ATOM     21  C   LIG A   1      -7.367   6.527 131.686  0.00  0.00    +0.277 C 
ENDBRANCH  15  20
BRANCH  16  22
ATOM     22  O   LIG A   1     -10.096   4.334 131.498  0.00  0.00    -0.491 OA
ATOM     23  C   LIG A   1     -10.781   5.264 130.667  0.00  0.00    +0.277 C 
ENDBRANCH  16  22
ENDBRANCH   4  12
BRANCH   3  24
ATOM     24  O   LIG A   1      -7.413  -0.512 129.122  0.00  0.00    -0.488 OA
ATOM     25  C   LIG A   1      -6.042  -0.895 129.072  0.00  0.00    +0.277 C 
ENDBRANCH   3  24
BRANCH   8  26
ATOM     26  O   LIG A   1      -9.075   3.818 124.951  0.00  0.00    -0.501 OA
ATOM     27  H   LIG A   1      -8.266   4.169 125.369  0.00  0.00    +0.292 HD
ENDBRANCH   8  26
BRANCH   9  28
ATOM     28  O   LIG A   1      -9.102   2.715 122.201  0.00  0.00    -0.491 OA
ATOM     29  C   LIG A   1      -7.994   3.380 121.607  0.00  0.00    +0.277 C 
ENDBRANCH   9  28
BRANCH  11  30
ATOM     30  O   LIG A   1      -8.145  -1.566 124.022  0.00  0.00    -0.494 OA
ATOM     31  C   LIG A   1      -8.697  -2.169 122.855  0.00  0.00    +0.277 C 
ENDBRANCH  11  30
TORSDOF 8
ENDMDL
MODEL 6
REMARK VINA RESULT:      -6.2      1.606      1.768
REMARK  Name = NuBBE_1311
REMARK  14 active torsions:
REMARK  status: ('A' for Active; 'I' for Inactive)
REMARK    1  A    between atoms: C_3  and  O_4
REMARK    2  A    between atoms: O_4  and  C_5
REMARK    3  A    between atoms: C_6  and  C_7
REMARK    4  A    between atoms: C_9  and  O_10
REMARK    5  A    between atoms: O_10  and  C_11
REMARK    6  A    between atoms: C_12  and  O_13
REMARK    7  A    between atoms: O_13  and  C_14
REMARK    8  A    between atoms: C_15  and  O_16
REMARK    9  A    between atoms: O_16  and  C_17
REMARK   10  A    between atoms: C_22  and  O_23
REMARK   11  A    between atoms: C_24  and  O_25
REMARK   12  A    between atoms: O_25  and  C_26
REMARK   13  A    between atoms: C_28  and  O_29
REMARK   14  A    between atoms: O_29  and  C_30
REMARK                            x       y       z     vdW  Elec       q    Type
REMARK                         _______ _______ _______ _____ _____    ______ ____
ROOT
ATOM      1  O   LIG A   1      -5.653   5.064 127.656  0.00  0.00    -0.283 OA
ATOM      2  C   LIG A   1      -6.439   4.221 128.038  0.00  0.00    +0.238 A 
ATOM      3  C   LIG A   1      -6.753   2.996 127.216  0.00  0.00    +0.211 A 
ATOM      4  C   LIG A   1      -7.885   2.325 127.504  0.00  0.00    +0.181 A 
ATOM      5  O   LIG A   1      -8.736   2.666 128.542  0.00  0.00    -0.447 OA
ATOM      6  C   LIG A   1      -7.166   4.354 129.325  0.00  0.00    +0.113 A 
ATOM      7  C   LIG A   1      -8.302   3.571 129.482  0.00  0.00    +0.188 A 
ATOM      8  C   LIG A   1      -9.090   3.674 130.632  0.00  0.00    +0.203 A 
ATOM      9  C   LIG A   1      -8.736   4.558 131.652  0.00  0.00    +0.169 A 
ATOM     10  C   LIG A   1      -7.570   5.324 131.503  0.00  0.00    +0.096 A 
ATOM     11  C   LIG A   1      -6.767   5.223 130.356  0.00  0.00    +0.138 A 
ENDROOT
BRANCH   4  12
ATOM     12  C   LIG A   1      -8.384   1.180 126.729  0.00  0.00    +0.028 A 
ATOM     13  C   LIG A   1      -9.196   1.361 125.607  0.00  0.00    +0.061 A 
ATOM     14  C   LIG A   1      -9.553   0.274 124.789  0.00  0.00    +0.166 A 
ATOM     15  C   LIG A   1      -9.030  -1.009 125.048  0.00  0.00    +0.203 A 
ATOM     16  C   LIG A   1      -8.236  -1.200 126.200  0.00  0.00    +0.166 A 
ATOM     17  C   LIG A   1      -7.944  -0.112 127.040  0.00  0.00    +0.061 A 
BRANCH  14  18
ATOM     18  O   LIG A   1     -10.365   0.626 123.739  0.00  0.00    -0.491 OA
ATOM     19  C   LIG A   1      -9.796   1.450 122.723  0.00  0.00    +0.277 C 
ENDBRANCH  14  18
BRANCH  15  20
ATOM     20  O   LIG A   1      -9.237  -1.971 124.085  0.00  0.00    -0.488 OA
ATOM     21  C   LIG A   1      -8.312  -2.016 123.003  0.00  0.00    +0.277 C 
ENDBRANCH  15  20
BRANCH  16  22
ATOM     22  O   LIG A   1      -7.642  -2.422 126.380  0.00  0.00    -0.491 OA
ATOM     23  C   LIG A   1      -6.238  -2.497 126.167  0.00  0.00    +0.277 C 
ENDBRANCH  16  22
ENDBRANCH   4  12
BRANCH   3  24
ATOM     24  O   LIG A   1      -5.948   2.596 126.161  0.00  0.00    -0.488 OA
ATOM     25  C   LIG A   1      -4.776   1.870 126.519  0.00  0.00    +0.277 C 
ENDBRANCH   3  24
BRANCH   8  26
ATOM     26  O   LIG A   1     -10.206   2.883 130.710  0.00  0.00    -0.501 OA
ATOM     27  H   LIG A   1     -10.561   2.781 129.806  0.00  0.00    +0.292 HD
ENDBRANCH   8  26
BRANCH   9  28
ATOM     28  O   LIG A   1      -9.398   4.791 132.828  0.00  0.00    -0.491 OA
ATOM     29  C   LIG A   1      -9.125   3.914 133.915  0.00  0.00    +0.277 C 
ENDBRANCH   9  28
BRANCH  11  30
ATOM     30  O   LIG A   1      -5.637   5.975 130.179  0.00  0.00    -0.494 OA
ATOM     31  C   LIG A   1      -5.554   7.209 130.887  0.00  0.00    +0.277 C 
ENDBRANCH  11  30
TORSDOF 8
ENDMDL
MODEL 7
REMARK VINA RESULT:      -6.2      2.719      6.832
REMARK  Name = NuBBE_1311
REMARK  14 active torsions:
REMARK  status: ('A' for Active; 'I' for Inactive)
REMARK    1  A    between atoms: C_3  and  O_4
REMARK    2  A    between atoms: O_4  and  C_5
REMARK    3  A    between atoms: C_6  and  C_7
REMARK    4  A    between atoms: C_9  and  O_10
REMARK    5  A    between atoms: O_10  and  C_11
REMARK    6  A    between atoms: C_12  and  O_13
REMARK    7  A    between atoms: O_13  and  C_14
REMARK    8  A    between atoms: C_15  and  O_16
REMARK    9  A    between atoms: O_16  and  C_17
REMARK   10  A    between atoms: C_22  and  O_23
REMARK   11  A    between atoms: C_24  and  O_25
REMARK   12  A    between atoms: O_25  and  C_26
REMARK   13  A    between atoms: C_28  and  O_29
REMARK   14  A    between atoms: O_29  and  C_30
REMARK                            x       y       z     vdW  Elec       q    Type
REMARK                         _______ _______ _______ _____ _____    ______ ____
ROOT
ATOM      1  O   LIG A   1      -5.101   4.240 125.060  0.00  0.00    -0.283 OA
ATOM      2  C   LIG A   1      -6.176   3.914 125.522  0.00  0.00    +0.238 A 
ATOM      3  C   LIG A   1      -6.511   4.119 126.979  0.00  0.00    +0.211 A 
ATOM      4  C   LIG A   1      -7.529   3.403 127.491  0.00  0.00    +0.181 A 
ATOM      5  O   LIG A   1      -8.313   2.539 126.743  0.00  0.00    -0.447 OA
ATOM      6  C   LIG A   1      -7.220   3.264 124.692  0.00  0.00    +0.113 A 
ATOM      7  C   LIG A   1      -8.223   2.586 125.371  0.00  0.00    +0.188 A 
ATOM      8  C   LIG A   1      -9.214   1.887 124.677  0.00  0.00    +0.203 A 
ATOM      9  C   LIG A   1      -9.220   1.874 123.281  0.00  0.00    +0.169 A 
ATOM     10  C   LIG A   1      -8.224   2.587 122.597  0.00  0.00    +0.096 A 
ATOM     11  C   LIG A   1      -7.228   3.298 123.286  0.00  0.00    +0.138 A 
ENDROOT
BRANCH   4  12
ATOM     12  C   LIG A   1      -7.909   3.409 128.911  0.00  0.00    +0.028 A 
ATOM     13  C   LIG A   1      -8.777   4.375 129.427  0.00  0.00    +0.061 A 
ATOM     14  C   LIG A   1      -9.247   4.292 130.749  0.00  0.00    +0.166 A 
ATOM     15  C   LIG A   1      -8.908   3.186 131.555  0.00  0.00    +0.203 A 
ATOM     16  C   LIG A   1      -8.005   2.227 131.047  0.00  0.00    +0.166 A 
ATOM     17  C   LIG A   1      -7.496   2.362 129.744  0.00  0.00    +0.061 A 
BRANCH  14  18
ATOM     18  O   LIG A   1     -10.080   5.328 131.097  0.00  0.00    -0.491 OA
ATOM     19  C   LIG A   1     -11.281   5.479 130.344  0.00  0.00    +0.277 C 
ENDBRANCH  14  18
BRANCH  15  20
ATOM     20  O   LIG A   1      -9.579   3.057 132.749  0.00  0.00    -0.488 OA
ATOM     21  C   LIG A   1      -8.985   3.655 133.896  0.00  0.00    +0.277 C 
ENDBRANCH  15  20
BRANCH  16  22
ATOM     22  O   LIG A   1      -7.771   1.101 131.792  0.00  0.00    -0.491 OA
ATOM     23  C   LIG A   1      -8.655   0.004 131.603  0.00  0.00    +0.277 C 
ENDBRANCH  16  22
ENDBRANCH   4  12
BRANCH   3  24
ATOM     24  O   LIG A   1      -5.770   4.966 127.787  0.00  0.00    -0.488 OA
ATOM     25  C   LIG A   1      -4.563   4.422 128.311  0.00  0.00    +0.277 C 
ENDBRANCH   3  24
BRANCH   8  26
ATOM     26  O   LIG A   1     -10.162   1.226 125.414  0.00  0.00    -0.501 OA
ATOM     27  H   LIG A   1     -10.051   1.492 126.347  0.00  0.00    +0.292 HD
ENDBRANCH   8  26
BRANCH   9  28
ATOM     28  O   LIG A   1     -10.102   1.234 122.451  0.00  0.00    -0.491 OA
ATOM     29  C   LIG A   1      -9.985  -0.179 122.339  0.00  0.00    +0.277 C 
ENDBRANCH   9  28
BRANCH  11  30
ATOM     30  O   LIG A   1      -6.233   3.984 122.642  0.00  0.00    -0.494 OA
ATOM     31  C   LIG A   1      -6.129   3.814 121.231  0.00  0.00    +0.277 C 
ENDBRANCH  11  30
TORSDOF 8
ENDMDL
MODEL 8
REMARK VINA RESULT:      -6.2      2.061      2.559
REMARK  Name = NuBBE_1311
REMARK  14 active torsions:
REMARK  status: ('A' for Active; 'I' for Inactive)
REMARK    1  A    between atoms: C_3  and  O_4
REMARK    2  A    between atoms: O_4  and  C_5
REMARK    3  A    between atoms: C_6  and  C_7
REMARK    4  A    between atoms: C_9  and  O_10
REMARK    5  A    between atoms: O_10  and  C_11
REMARK    6  A    between atoms: C_12  and  O_13
REMARK    7  A    between atoms: O_13  and  C_14
REMARK    8  A    between atoms: C_15  and  O_16
REMARK    9  A    between atoms: O_16  and  C_17
REMARK   10  A    between atoms: C_22  and  O_23
REMARK   11  A    between atoms: C_24  and  O_25
REMARK   12  A    between atoms: O_25  and  C_26
REMARK   13  A    between atoms: C_28  and  O_29
REMARK   14  A    between atoms: O_29  and  C_30
REMARK                            x       y       z     vdW  Elec       q    Type
REMARK                         _______ _______ _______ _____ _____    ______ ____
ROOT
ATOM      1  O   LIG A   1      -5.905   2.998 131.180  0.00  0.00    -0.283 OA
ATOM      2  C   LIG A   1      -6.847   3.155 130.430  0.00  0.00    +0.238 A 
ATOM      3  C   LIG A   1      -7.001   2.346 129.165  0.00  0.00    +0.211 A 
ATOM      4  C   LIG A   1      -7.825   2.826 128.215  0.00  0.00    +0.181 A 
ATOM      5  O   LIG A   1      -8.575   3.981 128.361  0.00  0.00    -0.447 OA
ATOM      6  C   LIG A   1      -7.894   4.173 130.691  0.00  0.00    +0.113 A 
ATOM      7  C   LIG A   1      -8.685   4.543 129.612  0.00  0.00    +0.188 A 
ATOM      8  C   LIG A   1      -9.655   5.542 129.742  0.00  0.00    +0.203 A 
ATOM      9  C   LIG A   1      -9.854   6.174 130.970  0.00  0.00    +0.169 A 
ATOM     10  C   LIG A   1      -9.075   5.774 132.067  0.00  0.00    +0.096 A 
ATOM     11  C   LIG A   1      -8.103   4.768 131.948  0.00  0.00    +0.138 A 
ENDROOT
BRANCH   4  12
ATOM     12  C   LIG A   1      -7.999   2.214 126.890  0.00  0.00    +0.028 A 
ATOM     13  C   LIG A   1      -7.212   2.600 125.802  0.00  0.00    +0.061 A 
ATOM     14  C   LIG A   1      -7.285   1.915 124.577  0.00  0.00    +0.166 A 
ATOM     15  C   LIG A   1      -8.102   0.773 124.451  0.00  0.00    +0.203 A 
ATOM     16  C   LIG A   1      -8.923   0.402 125.537  0.00  0.00    +0.166 A 
ATOM     17  C   LIG A   1      -8.883   1.139 126.733  0.00  0.00    +0.061 A 
BRANCH  14  18
ATOM     18  O   LIG A   1      -6.454   2.432 123.613  0.00  0.00    -0.491 OA
ATOM     19  C   LIG A   1      -7.028   3.349 122.682  0.00  0.00    +0.277 C 
ENDBRANCH  14  18
BRANCH  15  20
ATOM     20  O   LIG A   1      -7.954   0.026 123.304  0.00  0.00    -0.488 OA
ATOM     21  C   LIG A   1      -6.850  -0.872 123.253  0.00  0.00    +0.277 C 
ENDBRANCH  15  20
BRANCH  16  22
ATOM     22  O   LIG A   1      -9.627  -0.770 125.444  0.00  0.00    -0.491 OA
ATOM     23  C   LIG A   1      -9.038  -1.927 126.025  0.00  0.00    +0.277 C 
ENDBRANCH  16  22
ENDBRANCH   4  12
BRANCH   3  24
ATOM     24  O   LIG A   1      -6.281   1.181 128.950  0.00  0.00    -0.488 OA
ATOM     25  C   LIG A   1      -6.770   0.021 129.616  0.00  0.00    +0.277 C 
ENDBRANCH   3  24
BRANCH   8  26
ATOM     26  O   LIG A   1     -10.386   5.867 128.629  0.00  0.00    -0.501 OA
ATOM     27  H   LIG A   1     -11.300   6.052 128.918  0.00  0.00    +0.292 HD
ENDBRANCH   8  26
BRANCH   9  28
ATOM     28  O   LIG A   1     -10.744   7.172 131.266  0.00  0.00    -0.491 OA
ATOM     29  C   LIG A   1     -12.094   6.793 131.505  0.00  0.00    +0.277 C 
ENDBRANCH   9  28
BRANCH  11  30
ATOM     30  O   LIG A   1      -7.317   4.376 132.997  0.00  0.00    -0.494 OA
ATOM     31  C   LIG A   1      -7.956   3.709 134.081  0.00  0.00    +0.277 C 
ENDBRANCH  11  30
TORSDOF 8
ENDMDL
MODEL 9
REMARK VINA RESULT:      -6.2      3.921      5.357
REMARK  Name = NuBBE_1311
REMARK  14 active torsions:
REMARK  status: ('A' for Active; 'I' for Inactive)
REMARK    1  A    between atoms: C_3  and  O_4
REMARK    2  A    between atoms: O_4  and  C_5
REMARK    3  A    between atoms: C_6  and  C_7
REMARK    4  A    between atoms: C_9  and  O_10
REMARK    5  A    between atoms: O_10  and  C_11
REMARK    6  A    between atoms: C_12  and  O_13
REMARK    7  A    between atoms: O_13  and  C_14
REMARK    8  A    between atoms: C_15  and  O_16
REMARK    9  A    between atoms: O_16  and  C_17
REMARK   10  A    between atoms: C_22  and  O_23
REMARK   11  A    between atoms: C_24  and  O_25
REMARK   12  A    between atoms: O_25  and  C_26
REMARK   13  A    between atoms: C_28  and  O_29
REMARK   14  A    between atoms: O_29  and  C_30
REMARK                            x       y       z     vdW  Elec       q    Type
REMARK                         _______ _______ _______ _____ _____    ______ ____
ROOT
ATOM      1  O   LIG A   1      -4.840   0.228 130.201  0.00  0.00    -0.283 OA
ATOM      2  C   LIG A   1      -5.025   0.784 129.137  0.00  0.00    +0.238 A 
ATOM      3  C   LIG A   1      -5.870   0.163 128.052  0.00  0.00    +0.211 A 
ATOM      4  C   LIG A   1      -5.716   0.631 126.799  0.00  0.00    +0.181 A 
ATOM      5  O   LIG A   1      -4.875   1.680 126.469  0.00  0.00    -0.447 OA
ATOM      6  C   LIG A   1      -4.409   2.096 128.822  0.00  0.00    +0.113 A 
ATOM      7  C   LIG A   1      -4.351   2.451 127.481  0.00  0.00    +0.188 A 
ATOM      8  C   LIG A   1      -3.731   3.637 127.078  0.00  0.00    +0.203 A 
ATOM      9  C   LIG A   1      -3.172   4.496 128.026  0.00  0.00    +0.169 A 
ATOM     10  C   LIG A   1      -3.260   4.150 129.383  0.00  0.00    +0.096 A 
ATOM     11  C   LIG A   1      -3.888   2.964 129.798  0.00  0.00    +0.138 A 
ENDROOT
BRANCH   4  12
ATOM     12  C   LIG A   1      -6.383   0.062 125.619  0.00  0.00    +0.028 A 
ATOM     13  C   LIG A   1      -5.794  -0.963 124.875  0.00  0.00    +0.061 A 
ATOM     14  C   LIG A   1      -6.497  -1.600 123.837  0.00  0.00    +0.166 A 
ATOM     15  C   LIG A   1      -7.841  -1.262 123.580  0.00  0.00    +0.203 A 
ATOM     16  C   LIG A   1      -8.427  -0.205 124.308  0.00  0.00    +0.166 A 
ATOM     17  C   LIG A   1      -7.687   0.462 125.299  0.00  0.00    +0.061 A 
BRANCH  14  18
ATOM     18  O   LIG A   1      -5.766  -2.574 123.201  0.00  0.00    -0.491 OA
ATOM     19  C   LIG A   1      -5.322  -3.675 123.992  0.00  0.00    +0.277 C 
ENDBRANCH  14  18
BRANCH  15  20
ATOM     20  O   LIG A   1      -8.530  -2.075 122.709  0.00  0.00    -0.488 OA
ATOM     21  C   LIG A   1      -9.277  -3.148 123.274  0.00  0.00    +0.277 C 
ENDBRANCH  15  20
BRANCH  16  22
ATOM     22  O   LIG A   1      -9.764   0.039 124.130  0.00  0.00    -0.491 OA
ATOM     23  C   LIG A   1     -10.126   1.303 123.589  0.00  0.00    +0.277 C 
ENDBRANCH  16  22
ENDBRANCH   4  12
BRANCH   3  24
ATOM     24  O   LIG A   1      -6.732  -0.891 128.309  0.00  0.00    -0.488 OA
ATOM     25  C   LIG A   1      -6.134  -2.182 128.357  0.00  0.00    +0.277 C 
ENDBRANCH   3  24
BRANCH   8  26
ATOM     26  O   LIG A   1      -3.696   3.913 125.736  0.00  0.00    -0.501 OA
ATOM     27  H   LIG A   1      -3.823   3.072 125.257  0.00  0.00    +0.292 HD
ENDBRANCH   8  26
BRANCH   9  28
ATOM     28  O   LIG A   1      -2.521   5.680 127.804  0.00  0.00    -0.491 OA
ATOM     29  C   LIG A   1      -3.141   6.866 128.288  0.00  0.00    +0.277 C 
ENDBRANCH   9  28
BRANCH  11  30
ATOM     30  O   LIG A   1      -3.968   2.595 131.113  0.00  0.00    -0.494 OA
ATOM     31  C   LIG A   1      -4.848   3.341 131.950  0.00  0.00    +0.277 C 
ENDBRANCH  11  30
TORSDOF 8
ENDMDL
