MODEL 1
REMARK VINA RESULT:      -7.6      0.000      0.000
REMARK  Name = NuBBE_293
REMARK  5 active torsions:
REMARK  status: ('A' for Active; 'I' for Inactive)
REMARK    1  A    between atoms: O_1  and  C_2
REMARK    2  A    between atoms: C_6  and  C_7
REMARK    3  A    between atoms: C_10  and  O_11
REMARK    4  A    between atoms: C_18  and  O_19
REMARK    5  A    between atoms: O_19  and  C_20
REMARK                            x       y       z     vdW  Elec       q    Type
REMARK                         _______ _______ _______ _____ _____    ______ ____
ROOT
ATOM      1  C   LIG A   1      -8.675  -2.130 124.889  0.00  0.00    +0.134 A 
ATOM      2  C   LIG A   1      -8.155  -0.917 124.428  0.00  0.00    +0.101 A 
ATOM      3  C   LIG A   1      -8.895   0.350 124.571  0.00  0.00    +0.174 C 
ATOM      4  C   LIG A   1      -8.169   1.610 124.186  0.00  0.00    +0.129 C 
ATOM      5  C   LIG A   1      -7.223   1.295 123.035  0.00  0.00    +0.211 C 
ATOM      6  O   LIG A   1      -6.293   0.259 123.392  0.00  0.00    -0.483 OA
ATOM      7  O   LIG A   1     -10.024   0.346 125.052  0.00  0.00    -0.292 OA
ATOM      8  C   LIG A   1      -6.884  -0.883 123.860  0.00  0.00    +0.139 A 
ATOM      9  C   LIG A   1      -6.130  -2.054 123.778  0.00  0.00    +0.092 A 
ATOM     10  C   LIG A   1      -6.656  -3.271 124.219  0.00  0.00    +0.127 A 
ATOM     11  C   LIG A   1      -7.932  -3.306 124.784  0.00  0.00    +0.092 A 
ENDROOT
BRANCH   5  12
ATOM     12  C   LIG A   1      -6.430   2.527 122.627  0.00  0.00    -0.007 A 
ATOM     13  C   LIG A   1      -6.044   3.494 123.573  0.00  0.00    +0.011 A 
ATOM     14  C   LIG A   1      -5.296   4.612 123.195  0.00  0.00    +0.046 A 
ATOM     15  C   LIG A   1      -4.941   4.777 121.863  0.00  0.00    +0.117 A 
ATOM     16  C   LIG A   1      -5.326   3.848 120.906  0.00  0.00    +0.046 A 
ATOM     17  C   LIG A   1      -6.071   2.727 121.283  0.00  0.00    +0.011 A 
BRANCH  15  18
ATOM     18  O   LIG A   1      -4.205   5.849 121.452  0.00  0.00    -0.507 OA
ATOM     19  H   LIG A   1      -3.981   5.731 120.514  0.00  0.00    +0.292 HD
ENDBRANCH  15  18
ENDBRANCH   5  12
BRANCH   1  20
ATOM     20  O   LIG A   1      -9.910  -2.238 125.474  0.00  0.00    -0.506 OA
ATOM     21  H   LIG A   1     -10.470  -2.811 124.902  0.00  0.00    +0.292 HD
ENDBRANCH   1  20
BRANCH  10  22
ATOM     22  O   LIG A   1      -5.825  -4.348 124.069  0.00  0.00    -0.495 OA
ATOM     23  C   LIG A   1      -4.497  -4.064 123.641  0.00  0.00    +0.277 C 
ENDBRANCH  10  22
TORSDOF 4
ENDMDL
MODEL 2
REMARK VINA RESULT:      -7.5      3.645      4.269
REMARK  Name = NuBBE_293
REMARK  5 active torsions:
REMARK  status: ('A' for Active; 'I' for Inactive)
REMARK    1  A    between atoms: O_1  and  C_2
REMARK    2  A    between atoms: C_6  and  C_7
REMARK    3  A    between atoms: C_10  and  O_11
REMARK    4  A    between atoms: C_18  and  O_19
REMARK    5  A    between atoms: O_19  and  C_20
REMARK                            x       y       z     vdW  Elec       q    Type
REMARK                         _______ _______ _______ _____ _____    ______ ____
ROOT
ATOM      1  C   LIG A   1      -8.166   1.732 126.036  0.00  0.00    +0.134 A 
ATOM      2  C   LIG A   1      -7.924   2.302 124.783  0.00  0.00    +0.101 A 
ATOM      3  C   LIG A   1      -8.944   2.300 123.719  0.00  0.00    +0.174 C 
ATOM      4  C   LIG A   1      -8.631   3.082 122.473  0.00  0.00    +0.129 C 
ATOM      5  C   LIG A   1      -7.131   3.017 122.221  0.00  0.00    +0.211 C 
ATOM      6  O   LIG A   1      -6.391   3.527 123.344  0.00  0.00    -0.483 OA
ATOM      7  O   LIG A   1     -10.018   1.735 123.905  0.00  0.00    -0.292 OA
ATOM      8  C   LIG A   1      -6.708   2.934 124.535  0.00  0.00    +0.139 A 
ATOM      9  C   LIG A   1      -5.751   3.017 125.547  0.00  0.00    +0.092 A 
ATOM     10  C   LIG A   1      -5.982   2.430 126.794  0.00  0.00    +0.127 A 
ATOM     11  C   LIG A   1      -7.199   1.791 127.040  0.00  0.00    +0.092 A 
ENDROOT
BRANCH   5  12
ATOM     12  C   LIG A   1      -6.748   3.825 120.991  0.00  0.00    -0.007 A 
ATOM     13  C   LIG A   1      -7.627   3.956 119.900  0.00  0.00    +0.011 A 
ATOM     14  C   LIG A   1      -7.278   4.719 118.783  0.00  0.00    +0.046 A 
ATOM     15  C   LIG A   1      -6.039   5.346 118.744  0.00  0.00    +0.117 A 
ATOM     16  C   LIG A   1      -5.146   5.217 119.799  0.00  0.00    +0.046 A 
ATOM     17  C   LIG A   1      -5.495   4.457 120.919  0.00  0.00    +0.011 A 
BRANCH  15  18
ATOM     18  O   LIG A   1      -5.661   6.106 117.677  0.00  0.00    -0.507 OA
ATOM     19  H   LIG A   1      -4.933   5.656 117.217  0.00  0.00    +0.292 HD
ENDBRANCH  15  18
ENDBRANCH   5  12
BRANCH   1  20
ATOM     20  O   LIG A   1      -9.343   1.109 126.358  0.00  0.00    -0.506 OA
ATOM     21  H   LIG A   1      -9.198   0.585 127.178  0.00  0.00    +0.292 HD
ENDBRANCH   1  20
BRANCH  10  22
ATOM     22  O   LIG A   1      -4.961   2.564 127.695  0.00  0.00    -0.495 OA
ATOM     23  C   LIG A   1      -3.675   2.842 127.150  0.00  0.00    +0.277 C 
ENDBRANCH  10  22
TORSDOF 4
ENDMDL
MODEL 3
REMARK VINA RESULT:      -7.3      2.036      2.831
REMARK  Name = NuBBE_293
REMARK  5 active torsions:
REMARK  status: ('A' for Active; 'I' for Inactive)
REMARK    1  A    between atoms: O_1  and  C_2
REMARK    2  A    between atoms: C_6  and  C_7
REMARK    3  A    between atoms: C_10  and  O_11
REMARK    4  A    between atoms: C_18  and  O_19
REMARK    5  A    between atoms: O_19  and  C_20
REMARK                            x       y       z     vdW  Elec       q    Type
REMARK                         _______ _______ _______ _____ _____    ______ ____
ROOT
ATOM      1  C   LIG A   1      -8.527   0.451 126.145  0.00  0.00    +0.134 A 
ATOM      2  C   LIG A   1      -8.121   1.284 125.099  0.00  0.00    +0.101 A 
ATOM      3  C   LIG A   1      -7.986   2.741 125.275  0.00  0.00    +0.174 C 
ATOM      4  C   LIG A   1      -7.387   3.513 124.131  0.00  0.00    +0.129 C 
ATOM      5  C   LIG A   1      -7.791   2.842 122.826  0.00  0.00    +0.211 C 
ATOM      6  O   LIG A   1      -7.368   1.468 122.792  0.00  0.00    -0.483 OA
ATOM      7  O   LIG A   1      -8.291   3.257 126.346  0.00  0.00    -0.292 OA
ATOM      8  C   LIG A   1      -7.786   0.730 123.866  0.00  0.00    +0.139 A 
ATOM      9  C   LIG A   1      -7.832  -0.653 123.691  0.00  0.00    +0.092 A 
ATOM     10  C   LIG A   1      -8.259  -1.487 124.729  0.00  0.00    +0.127 A 
ATOM     11  C   LIG A   1      -8.600  -0.931 125.963  0.00  0.00    +0.092 A 
ENDROOT
BRANCH   5  12
ATOM     12  C   LIG A   1      -7.181   3.558 121.631  0.00  0.00    -0.007 A 
ATOM     13  C   LIG A   1      -7.928   3.794 120.462  0.00  0.00    +0.011 A 
ATOM     14  C   LIG A   1      -7.368   4.473 119.376  0.00  0.00    +0.046 A 
ATOM     15  C   LIG A   1      -6.052   4.909 119.449  0.00  0.00    +0.117 A 
ATOM     16  C   LIG A   1      -5.287   4.673 120.583  0.00  0.00    +0.046 A 
ATOM     17  C   LIG A   1      -5.847   3.997 121.671  0.00  0.00    +0.011 A 
BRANCH  15  18
ATOM     18  O   LIG A   1      -5.469   5.583 118.416  0.00  0.00    -0.507 OA
ATOM     19  H   LIG A   1      -5.009   4.942 117.848  0.00  0.00    +0.292 HD
ENDBRANCH  15  18
ENDBRANCH   5  12
BRANCH   1  20
ATOM     20  O   LIG A   1      -8.857   0.921 127.389  0.00  0.00    -0.506 OA
ATOM     21  H   LIG A   1      -9.163   0.160 127.933  0.00  0.00    +0.292 HD
ENDBRANCH   1  20
BRANCH  10  22
ATOM     22  O   LIG A   1      -8.278  -2.821 124.428  0.00  0.00    -0.495 OA
ATOM     23  C   LIG A   1      -9.352  -3.265 123.605  0.00  0.00    +0.277 C 
ENDBRANCH  10  22
TORSDOF 4
ENDMDL
MODEL 4
REMARK VINA RESULT:      -7.3      9.617     11.180
REMARK  Name = NuBBE_293
REMARK  5 active torsions:
REMARK  status: ('A' for Active; 'I' for Inactive)
REMARK    1  A    between atoms: O_1  and  C_2
REMARK    2  A    between atoms: C_6  and  C_7
REMARK    3  A    between atoms: C_10  and  O_11
REMARK    4  A    between atoms: C_18  and  O_19
REMARK    5  A    between atoms: O_19  and  C_20
REMARK                            x       y       z     vdW  Elec       q    Type
REMARK                         _______ _______ _______ _____ _____    ______ ____
ROOT
ATOM      1  C   LIG A   1      -8.272   3.155 133.381  0.00  0.00    +0.134 A 
ATOM      2  C   LIG A   1      -9.005   4.041 132.588  0.00  0.00    +0.101 A 
ATOM      3  C   LIG A   1      -9.803   3.577 131.438  0.00  0.00    +0.174 C 
ATOM      4  C   LIG A   1     -10.677   4.595 130.760  0.00  0.00    +0.129 C 
ATOM      5  C   LIG A   1      -9.992   5.953 130.834  0.00  0.00    +0.211 C 
ATOM      6  O   LIG A   1      -9.730   6.331 132.197  0.00  0.00    -0.483 OA
ATOM      7  O   LIG A   1      -9.784   2.391 131.123  0.00  0.00    -0.292 OA
ATOM      8  C   LIG A   1      -9.031   5.396 132.909  0.00  0.00    +0.139 A 
ATOM      9  C   LIG A   1      -8.346   5.855 134.035  0.00  0.00    +0.092 A 
ATOM     10  C   LIG A   1      -7.594   4.974 134.818  0.00  0.00    +0.127 A 
ATOM     11  C   LIG A   1      -7.564   3.617 134.492  0.00  0.00    +0.092 A 
ENDROOT
BRANCH   5  12
ATOM     12  C   LIG A   1     -10.850   7.034 130.196  0.00  0.00    -0.007 A 
ATOM     13  C   LIG A   1     -10.458   7.667 129.002  0.00  0.00    +0.011 A 
ATOM     14  C   LIG A   1     -11.263   8.643 128.408  0.00  0.00    +0.046 A 
ATOM     15  C   LIG A   1     -12.460   9.003 129.013  0.00  0.00    +0.117 A 
ATOM     16  C   LIG A   1     -12.861   8.407 130.202  0.00  0.00    +0.046 A 
ATOM     17  C   LIG A   1     -12.059   7.428 130.795  0.00  0.00    +0.011 A 
BRANCH  15  18
ATOM     18  O   LIG A   1     -13.279   9.945 128.464  0.00  0.00    -0.507 OA
ATOM     19  H   LIG A   1     -14.199   9.644 128.548  0.00  0.00    +0.292 HD
ENDBRANCH  15  18
ENDBRANCH   5  12
BRANCH   1  20
ATOM     20  O   LIG A   1      -8.212   1.808 133.137  0.00  0.00    -0.506 OA
ATOM     21  H   LIG A   1      -7.265   1.546 133.093  0.00  0.00    +0.292 HD
ENDBRANCH   1  20
BRANCH  10  22
ATOM     22  O   LIG A   1      -6.955   5.548 135.882  0.00  0.00    -0.495 OA
ATOM     23  C   LIG A   1      -7.730   6.445 136.672  0.00  0.00    +0.277 C 
ENDBRANCH  10  22
TORSDOF 4
ENDMDL
MODEL 5
REMARK VINA RESULT:      -7.3     10.232     11.098
REMARK  Name = NuBBE_293
REMARK  5 active torsions:
REMARK  status: ('A' for Active; 'I' for Inactive)
REMARK    1  A    between atoms: O_1  and  C_2
REMARK    2  A    between atoms: C_6  and  C_7
REMARK    3  A    between atoms: C_10  and  O_11
REMARK    4  A    between atoms: C_18  and  O_19
REMARK    5  A    between atoms: O_19  and  C_20
REMARK                            x       y       z     vdW  Elec       q    Type
REMARK                         _______ _______ _______ _____ _____    ______ ____
ROOT
ATOM      1  C   LIG A   1      -6.059   5.607 132.988  0.00  0.00    +0.134 A 
ATOM      2  C   LIG A   1      -7.247   5.991 132.359  0.00  0.00    +0.101 A 
ATOM      3  C   LIG A   1      -8.566   5.590 132.881  0.00  0.00    +0.174 C 
ATOM      4  C   LIG A   1      -9.773   6.196 132.218  0.00  0.00    +0.129 C 
ATOM      5  C   LIG A   1      -9.464   6.408 130.742  0.00  0.00    +0.211 C 
ATOM      6  O   LIG A   1      -8.310   7.248 130.567  0.00  0.00    -0.483 OA
ATOM      7  O   LIG A   1      -8.636   4.851 133.858  0.00  0.00    -0.292 OA
ATOM      8  C   LIG A   1      -7.199   6.814 131.237  0.00  0.00    +0.139 A 
ATOM      9  C   LIG A   1      -5.968   7.270 130.763  0.00  0.00    +0.092 A 
ATOM     10  C   LIG A   1      -4.778   6.871 131.377  0.00  0.00    +0.127 A 
ATOM     11  C   LIG A   1      -4.826   6.041 132.499  0.00  0.00    +0.092 A 
ENDROOT
BRANCH   5  12
ATOM     12  C   LIG A   1     -10.639   7.055 130.026  0.00  0.00    -0.007 A 
ATOM     13  C   LIG A   1     -11.966   6.734 130.363  0.00  0.00    +0.011 A 
ATOM     14  C   LIG A   1     -13.041   7.350 129.716  0.00  0.00    +0.046 A 
ATOM     15  C   LIG A   1     -12.794   8.282 128.717  0.00  0.00    +0.117 A 
ATOM     16  C   LIG A   1     -11.493   8.603 128.352  0.00  0.00    +0.046 A 
ATOM     17  C   LIG A   1     -10.417   7.990 129.001  0.00  0.00    +0.011 A 
BRANCH  15  18
ATOM     18  O   LIG A   1     -13.813   8.912 128.066  0.00  0.00    -0.507 OA
ATOM     19  H   LIG A   1     -14.408   8.240 127.695  0.00  0.00    +0.292 HD
ENDBRANCH  15  18
ENDBRANCH   5  12
BRANCH   1  20
ATOM     20  O   LIG A   1      -6.028   4.813 134.104  0.00  0.00    -0.506 OA
ATOM     21  H   LIG A   1      -6.789   5.061 134.677  0.00  0.00    +0.292 HD
ENDBRANCH   1  20
BRANCH  10  22
ATOM     22  O   LIG A   1      -3.638   7.371 130.809  0.00  0.00    -0.495 OA
ATOM     23  C   LIG A   1      -3.821   8.276 129.724  0.00  0.00    +0.277 C 
ENDBRANCH  10  22
TORSDOF 4
ENDMDL
MODEL 6
REMARK VINA RESULT:      -7.2      9.968     10.782
REMARK  Name = NuBBE_293
REMARK  5 active torsions:
REMARK  status: ('A' for Active; 'I' for Inactive)
REMARK    1  A    between atoms: O_1  and  C_2
REMARK    2  A    between atoms: C_6  and  C_7
REMARK    3  A    between atoms: C_10  and  O_11
REMARK    4  A    between atoms: C_18  and  O_19
REMARK    5  A    between atoms: O_19  and  C_20
REMARK                            x       y       z     vdW  Elec       q    Type
REMARK                         _______ _______ _______ _____ _____    ______ ____
ROOT
ATOM      1  C   LIG A   1     -11.186   6.555 131.307  0.00  0.00    +0.134 A 
ATOM      2  C   LIG A   1      -9.791   6.483 131.337  0.00  0.00    +0.101 A 
ATOM      3  C   LIG A   1      -9.073   5.738 132.386  0.00  0.00    +0.174 C 
ATOM      4  C   LIG A   1      -7.584   5.595 132.224  0.00  0.00    +0.129 C 
ATOM      5  C   LIG A   1      -7.046   6.845 131.541  0.00  0.00    +0.211 C 
ATOM      6  O   LIG A   1      -7.681   7.059 130.269  0.00  0.00    -0.483 OA
ATOM      7  O   LIG A   1      -9.703   5.211 133.299  0.00  0.00    -0.292 OA
ATOM      8  C   LIG A   1      -9.047   7.088 130.326  0.00  0.00    +0.139 A 
ATOM      9  C   LIG A   1      -9.701   7.738 129.278  0.00  0.00    +0.092 A 
ATOM     10  C   LIG A   1     -11.095   7.829 129.258  0.00  0.00    +0.127 A 
ATOM     11  C   LIG A   1     -11.840   7.228 130.274  0.00  0.00    +0.092 A 
ENDROOT
BRANCH   5  12
ATOM     12  C   LIG A   1      -5.546   6.741 131.315  0.00  0.00    -0.007 A 
ATOM     13  C   LIG A   1      -4.768   5.793 132.004  0.00  0.00    +0.011 A 
ATOM     14  C   LIG A   1      -3.393   5.688 131.774  0.00  0.00    +0.046 A 
ATOM     15  C   LIG A   1      -2.786   6.540 130.862  0.00  0.00    +0.117 A 
ATOM     16  C   LIG A   1      -3.528   7.498 130.183  0.00  0.00    +0.046 A 
ATOM     17  C   LIG A   1      -4.903   7.602 130.409  0.00  0.00    +0.011 A 
BRANCH  15  18
ATOM     18  O   LIG A   1      -1.449   6.467 130.602  0.00  0.00    -0.507 OA
ATOM     19  H   LIG A   1      -1.033   7.302 130.873  0.00  0.00    +0.292 HD
ENDBRANCH  15  18
ENDBRANCH   5  12
BRANCH   1  20
ATOM     20  O   LIG A   1     -11.983   5.972 132.257  0.00  0.00    -0.506 OA
ATOM     21  H   LIG A   1     -12.238   6.664 132.910  0.00  0.00    +0.292 HD
ENDBRANCH   1  20
BRANCH  10  22
ATOM     22  O   LIG A   1     -11.615   8.506 128.188  0.00  0.00    -0.495 OA
ATOM     23  C   LIG A   1     -11.184   8.074 126.902  0.00  0.00    +0.277 C 
ENDBRANCH  10  22
TORSDOF 4
ENDMDL
MODEL 7
REMARK VINA RESULT:      -7.0      3.288      7.229
REMARK  Name = NuBBE_293
REMARK  5 active torsions:
REMARK  status: ('A' for Active; 'I' for Inactive)
REMARK    1  A    between atoms: O_1  and  C_2
REMARK    2  A    between atoms: C_6  and  C_7
REMARK    3  A    between atoms: C_10  and  O_11
REMARK    4  A    between atoms: C_18  and  O_19
REMARK    5  A    between atoms: O_19  and  C_20
REMARK                            x       y       z     vdW  Elec       q    Type
REMARK                         _______ _______ _______ _____ _____    ______ ____
ROOT
ATOM      1  C   LIG A   1      -9.593   0.461 123.521  0.00  0.00    +0.134 A 
ATOM      2  C   LIG A   1      -8.983  -0.307 124.517  0.00  0.00    +0.101 A 
ATOM      3  C   LIG A   1      -9.013  -1.780 124.489  0.00  0.00    +0.174 C 
ATOM      4  C   LIG A   1      -8.186  -2.498 125.520  0.00  0.00    +0.129 C 
ATOM      5  C   LIG A   1      -8.169  -1.666 126.796  0.00  0.00    +0.211 C 
ATOM      6  O   LIG A   1      -7.648  -0.348 126.551  0.00  0.00    -0.483 OA
ATOM      7  O   LIG A   1      -9.636  -2.361 123.605  0.00  0.00    -0.292 OA
ATOM      8  C   LIG A   1      -8.285   0.324 125.543  0.00  0.00    +0.139 A 
ATOM      9  C   LIG A   1      -8.176   1.715 125.556  0.00  0.00    +0.092 A 
ATOM     10  C   LIG A   1      -8.803   2.486 124.574  0.00  0.00    +0.127 A 
ATOM     11  C   LIG A   1      -9.508   1.854 123.548  0.00  0.00    +0.092 A 
ENDROOT
BRANCH   5  12
ATOM     12  C   LIG A   1      -7.314  -2.326 127.866  0.00  0.00    -0.007 A 
ATOM     13  C   LIG A   1      -5.912  -2.213 127.853  0.00  0.00    +0.011 A 
ATOM     14  C   LIG A   1      -5.133  -2.802 128.853  0.00  0.00    +0.046 A 
ATOM     15  C   LIG A   1      -5.753  -3.520 129.867  0.00  0.00    +0.117 A 
ATOM     16  C   LIG A   1      -7.134  -3.662 129.893  0.00  0.00    +0.046 A 
ATOM     17  C   LIG A   1      -7.914  -3.071 128.895  0.00  0.00    +0.011 A 
BRANCH  15  18
ATOM     18  O   LIG A   1      -5.033  -4.105 130.866  0.00  0.00    -0.507 OA
ATOM     19  H   LIG A   1      -5.538  -4.859 131.213  0.00  0.00    +0.292 HD
ENDBRANCH  15  18
ENDBRANCH   5  12
BRANCH   1  20
ATOM     20  O   LIG A   1     -10.283  -0.088 122.472  0.00  0.00    -0.506 OA
ATOM     21  H   LIG A   1      -9.654  -0.624 121.938  0.00  0.00    +0.292 HD
ENDBRANCH   1  20
BRANCH  10  22
ATOM     22  O   LIG A   1      -8.638   3.837 124.707  0.00  0.00    -0.495 OA
ATOM     23  C   LIG A   1      -7.878   4.271 125.830  0.00  0.00    +0.277 C 
ENDBRANCH  10  22
TORSDOF 4
ENDMDL
MODEL 8
REMARK VINA RESULT:      -6.8      8.736     10.051
REMARK  Name = NuBBE_293
REMARK  5 active torsions:
REMARK  status: ('A' for Active; 'I' for Inactive)
REMARK    1  A    between atoms: O_1  and  C_2
REMARK    2  A    between atoms: C_6  and  C_7
REMARK    3  A    between atoms: C_10  and  O_11
REMARK    4  A    between atoms: C_18  and  O_19
REMARK    5  A    between atoms: O_19  and  C_20
REMARK                            x       y       z     vdW  Elec       q    Type
REMARK                         _______ _______ _______ _____ _____    ______ ____
ROOT
ATOM      1  C   LIG A   1      -7.340   3.081 132.998  0.00  0.00    +0.134 A 
ATOM      2  C   LIG A   1      -8.088   4.092 132.388  0.00  0.00    +0.101 A 
ATOM      3  C   LIG A   1      -7.674   5.506 132.444  0.00  0.00    +0.174 C 
ATOM      4  C   LIG A   1      -8.466   6.481 131.617  0.00  0.00    +0.129 C 
ATOM      5  C   LIG A   1      -9.915   6.016 131.569  0.00  0.00    +0.211 C 
ATOM      6  O   LIG A   1     -10.018   4.687 131.029  0.00  0.00    -0.483 OA
ATOM      7  O   LIG A   1      -6.678   5.825 133.088  0.00  0.00    -0.292 OA
ATOM      8  C   LIG A   1      -9.233   3.764 131.666  0.00  0.00    +0.139 A 
ATOM      9  C   LIG A   1      -9.610   2.428 131.533  0.00  0.00    +0.092 A 
ATOM     10  C   LIG A   1      -8.876   1.416 132.159  0.00  0.00    +0.127 A 
ATOM     11  C   LIG A   1      -7.732   1.746 132.888  0.00  0.00    +0.092 A 
ENDROOT
BRANCH   5  12
ATOM     12  C   LIG A   1     -10.760   6.945 130.712  0.00  0.00    -0.007 A 
ATOM     13  C   LIG A   1     -12.099   7.224 131.039  0.00  0.00    +0.011 A 
ATOM     14  C   LIG A   1     -12.863   8.097 130.261  0.00  0.00    +0.046 A 
ATOM     15  C   LIG A   1     -12.295   8.688 129.140  0.00  0.00    +0.117 A 
ATOM     16  C   LIG A   1     -10.980   8.415 128.784  0.00  0.00    +0.046 A 
ATOM     17  C   LIG A   1     -10.214   7.544 129.564  0.00  0.00    +0.011 A 
BRANCH  15  18
ATOM     18  O   LIG A   1     -13.001   9.552 128.357  0.00  0.00    -0.507 OA
ATOM     19  H   LIG A   1     -12.502  10.382 128.280  0.00  0.00    +0.292 HD
ENDBRANCH  15  18
ENDBRANCH   5  12
BRANCH   1  20
ATOM     20  O   LIG A   1      -6.196   3.325 133.710  0.00  0.00    -0.506 OA
ATOM     21  H   LIG A   1      -6.163   4.288 133.915  0.00  0.00    +0.292 HD
ENDBRANCH   1  20
BRANCH  10  22
ATOM     22  O   LIG A   1      -9.358   0.150 131.969  0.00  0.00    -0.495 OA
ATOM     23  C   LIG A   1      -8.483  -0.763 131.314  0.00  0.00    +0.277 C 
ENDBRANCH  10  22
TORSDOF 4
ENDMDL
MODEL 9
REMARK VINA RESULT:      -6.7      2.092      2.315
REMARK  Name = NuBBE_293
REMARK  5 active torsions:
REMARK  status: ('A' for Active; 'I' for Inactive)
REMARK    1  A    between atoms: O_1  and  C_2
REMARK    2  A    between atoms: C_6  and  C_7
REMARK    3  A    between atoms: C_10  and  O_11
REMARK    4  A    between atoms: C_18  and  O_19
REMARK    5  A    between atoms: O_19  and  C_20
REMARK                            x       y       z     vdW  Elec       q    Type
REMARK                         _______ _______ _______ _____ _____    ______ ____
ROOT
ATOM      1  C   LIG A   1      -8.825  -0.389 125.598  0.00  0.00    +0.134 A 
ATOM      2  C   LIG A   1      -8.382   0.569 124.682  0.00  0.00    +0.101 A 
ATOM      3  C   LIG A   1      -9.324   1.378 123.888  0.00  0.00    +0.174 C 
ATOM      4  C   LIG A   1      -8.738   2.487 123.056  0.00  0.00    +0.129 C 
ATOM      5  C   LIG A   1      -7.360   2.056 122.572  0.00  0.00    +0.211 C 
ATOM      6  O   LIG A   1      -6.496   1.733 123.676  0.00  0.00    -0.483 OA
ATOM      7  O   LIG A   1     -10.532   1.175 123.981  0.00  0.00    -0.292 OA
ATOM      8  C   LIG A   1      -7.018   0.809 124.539  0.00  0.00    +0.139 A 
ATOM      9  C   LIG A   1      -6.105   0.111 125.330  0.00  0.00    +0.092 A 
ATOM     10  C   LIG A   1      -6.544  -0.863 126.232  0.00  0.00    +0.127 A 
ATOM     11  C   LIG A   1      -7.911  -1.107 126.370  0.00  0.00    +0.092 A 
ENDROOT
BRANCH   5  12
ATOM     12  C   LIG A   1      -6.700   3.155 121.755  0.00  0.00    -0.007 A 
ATOM     13  C   LIG A   1      -5.546   3.815 122.217  0.00  0.00    +0.011 A 
ATOM     14  C   LIG A   1      -4.931   4.809 121.451  0.00  0.00    +0.046 A 
ATOM     15  C   LIG A   1      -5.474   5.158 120.222  0.00  0.00    +0.117 A 
ATOM     16  C   LIG A   1      -6.623   4.535 119.751  0.00  0.00    +0.046 A 
ATOM     17  C   LIG A   1      -7.237   3.539 120.515  0.00  0.00    +0.011 A 
BRANCH  15  18
ATOM     18  O   LIG A   1      -4.902   6.117 119.439  0.00  0.00    -0.507 OA
ATOM     19  H   LIG A   1      -5.376   6.149 118.591  0.00  0.00    +0.292 HD
ENDBRANCH  15  18
ENDBRANCH   5  12
BRANCH   1  20
ATOM     20  O   LIG A   1     -10.151  -0.667 125.804  0.00  0.00    -0.506 OA
ATOM     21  H   LIG A   1     -10.219  -1.291 126.563  0.00  0.00    +0.292 HD
ENDBRANCH   1  20
BRANCH  10  22
ATOM     22  O   LIG A   1      -5.551  -1.489 126.936  0.00  0.00    -0.495 OA
ATOM     23  C   LIG A   1      -5.698  -1.503 128.352  0.00  0.00    +0.277 C 
ENDBRANCH  10  22
TORSDOF 4
ENDMDL
