MODEL 1
REMARK VINA RESULT:      -7.9      0.000      0.000
REMARK  Name = NuBBE_1766
REMARK  3 active torsions:
REMARK  status: ('A' for Active; 'I' for Inactive)
REMARK    1  A    between atoms: O_1  and  C_2
REMARK    2  A    between atoms: O_1  and  C_3
REMARK    3  A    between atoms: C_22  and  O_24
REMARK                            x       y       z     vdW  Elec       q    Type
REMARK                         _______ _______ _______ _____ _____    ______ ____
ROOT
ATOM      1  C   LIG A   1      -8.455   2.864 123.132  0.00  0.00    +0.184 C 
ATOM      2  C   LIG A   1      -7.862   3.020 124.537  0.00  0.00    +0.197 C 
ATOM      3  C   LIG A   1      -6.340   2.825 124.473  0.00  0.00    +0.235 C 
ATOM      4  C   LIG A   1      -5.736   3.093 125.837  0.00  0.00    +0.004 A 
ATOM      5  C   LIG A   1      -6.435   3.905 126.753  0.00  0.00    +0.030 A 
ATOM      6  C   LIG A   1      -7.801   4.451 126.439  0.00  0.00    +0.200 C 
ATOM      7  O   LIG A   1      -8.181   4.324 125.063  0.00  0.00    -0.365 OA
ATOM      8  C   LIG A   1      -5.833   4.148 127.975  0.00  0.00    +0.172 A 
ATOM      9  C   LIG A   1      -4.594   3.639 128.291  0.00  0.00    +0.167 A 
ATOM     10  C   LIG A   1      -3.881   2.854 127.410  0.00  0.00    +0.050 A 
ATOM     11  C   LIG A   1      -4.460   2.583 126.168  0.00  0.00    +0.011 A 
ATOM     12  O   LIG A   1      -4.184   3.998 129.536  0.00  0.00    -0.453 OA
ATOM     13  C   LIG A   1      -5.292   4.814 129.963  0.00  0.00    +0.466 C 
ATOM     14  O   LIG A   1      -6.357   4.886 128.992  0.00  0.00    -0.452 OA
ATOM     15  O   LIG A   1      -5.688   3.735 123.580  0.00  0.00    -0.481 OA
ATOM     16  C   LIG A   1      -6.260   3.844 122.345  0.00  0.00    +0.131 A 
ATOM     17  C   LIG A   1      -7.569   3.446 122.062  0.00  0.00    +0.026 A 
ATOM     18  C   LIG A   1      -8.058   3.602 120.754  0.00  0.00    +0.013 A 
ATOM     19  C   LIG A   1      -7.260   4.166 119.756  0.00  0.00    +0.046 A 
ATOM     20  C   LIG A   1      -5.969   4.577 120.069  0.00  0.00    +0.120 A 
ATOM     21  C   LIG A   1      -5.466   4.422 121.354  0.00  0.00    +0.091 A 
ENDROOT
BRANCH   1  22
ATOM     22  O   LIG A   1      -8.606   1.467 122.829  0.00  0.00    -0.372 OA
ATOM     23  C   LIG A   1      -9.965   1.050 122.861  0.00  0.00    +0.195 C 
ENDBRANCH   1  22
BRANCH  20  24
ATOM     24  O   LIG A   1      -5.157   5.139 119.128  0.00  0.00    -0.507 OA
ATOM     25  H   LIG A   1      -4.485   5.676 119.580  0.00  0.00    +0.292 HD
ENDBRANCH  20  24
TORSDOF 2
ENDMDL
MODEL 2
REMARK VINA RESULT:      -7.6      6.697     10.355
REMARK  Name = NuBBE_1766
REMARK  3 active torsions:
REMARK  status: ('A' for Active; 'I' for Inactive)
REMARK    1  A    between atoms: O_1  and  C_2
REMARK    2  A    between atoms: O_1  and  C_3
REMARK    3  A    between atoms: C_22  and  O_24
REMARK                            x       y       z     vdW  Elec       q    Type
REMARK                         _______ _______ _______ _____ _____    ______ ____
ROOT
ATOM      1  C   LIG A   1      -8.077   3.076 132.462  0.00  0.00    +0.184 C 
ATOM      2  C   LIG A   1      -8.874   3.941 131.478  0.00  0.00    +0.197 C 
ATOM      3  C   LIG A   1      -9.740   4.938 132.262  0.00  0.00    +0.235 C 
ATOM      4  C   LIG A   1     -10.440   5.872 131.295  0.00  0.00    +0.004 A 
ATOM      5  C   LIG A   1      -9.893   6.071 130.011  0.00  0.00    +0.030 A 
ATOM      6  C   LIG A   1      -8.674   5.321 129.549  0.00  0.00    +0.200 C 
ATOM      7  O   LIG A   1      -7.973   4.640 130.597  0.00  0.00    -0.365 OA
ATOM      8  C   LIG A   1     -10.548   6.954 129.171  0.00  0.00    +0.172 A 
ATOM      9  C   LIG A   1     -11.679   7.633 129.566  0.00  0.00    +0.167 A 
ATOM     10  C   LIG A   1     -12.227   7.469 130.821  0.00  0.00    +0.050 A 
ATOM     11  C   LIG A   1     -11.596   6.581 131.694  0.00  0.00    +0.011 A 
ATOM     12  O   LIG A   1     -12.163   8.451 128.595  0.00  0.00    -0.453 OA
ATOM     13  C   LIG A   1     -11.195   8.234 127.549  0.00  0.00    +0.466 C 
ATOM     14  O   LIG A   1     -10.188   7.261 127.894  0.00  0.00    -0.452 OA
ATOM     15  O   LIG A   1      -8.982   5.787 133.133  0.00  0.00    -0.481 OA
ATOM     16  C   LIG A   1      -8.072   5.142 133.920  0.00  0.00    +0.131 A 
ATOM     17  C   LIG A   1      -7.602   3.852 133.662  0.00  0.00    +0.026 A 
ATOM     18  C   LIG A   1      -6.665   3.282 134.541  0.00  0.00    +0.013 A 
ATOM     19  C   LIG A   1      -6.192   3.999 135.642  0.00  0.00    +0.046 A 
ATOM     20  C   LIG A   1      -6.657   5.290 135.864  0.00  0.00    +0.120 A 
ATOM     21  C   LIG A   1      -7.589   5.866 135.011  0.00  0.00    +0.091 A 
ENDROOT
BRANCH   1  22
ATOM     22  O   LIG A   1      -8.916   2.020 132.958  0.00  0.00    -0.372 OA
ATOM     23  C   LIG A   1      -9.436   1.205 131.915  0.00  0.00    +0.195 C 
ENDBRANCH   1  22
BRANCH  20  24
ATOM     24  O   LIG A   1      -6.218   6.029 136.923  0.00  0.00    -0.507 OA
ATOM     25  H   LIG A   1      -5.402   5.628 137.264  0.00  0.00    +0.292 HD
ENDBRANCH  20  24
TORSDOF 2
ENDMDL
MODEL 3
REMARK VINA RESULT:      -7.4      6.023      7.617
REMARK  Name = NuBBE_1766
REMARK  3 active torsions:
REMARK  status: ('A' for Active; 'I' for Inactive)
REMARK    1  A    between atoms: O_1  and  C_2
REMARK    2  A    between atoms: O_1  and  C_3
REMARK    3  A    between atoms: C_22  and  O_24
REMARK                            x       y       z     vdW  Elec       q    Type
REMARK                         _______ _______ _______ _____ _____    ______ ____
ROOT
ATOM      1  C   LIG A   1      -5.978  -0.874 125.777  0.00  0.00    +0.184 C 
ATOM      2  C   LIG A   1      -5.718  -1.361 127.207  0.00  0.00    +0.197 C 
ATOM      3  C   LIG A   1      -7.059  -1.652 127.897  0.00  0.00    +0.235 C 
ATOM      4  C   LIG A   1      -6.805  -2.244 129.270  0.00  0.00    +0.004 A 
ATOM      5  C   LIG A   1      -5.577  -2.887 129.526  0.00  0.00    +0.030 A 
ATOM      6  C   LIG A   1      -4.482  -2.934 128.497  0.00  0.00    +0.200 C 
ATOM      7  O   LIG A   1      -4.897  -2.545 127.181  0.00  0.00    -0.365 OA
ATOM      8  C   LIG A   1      -5.400  -3.438 130.783  0.00  0.00    +0.172 A 
ATOM      9  C   LIG A   1      -6.380  -3.386 131.748  0.00  0.00    +0.167 A 
ATOM     10  C   LIG A   1      -7.596  -2.776 131.520  0.00  0.00    +0.050 A 
ATOM     11  C   LIG A   1      -7.809  -2.204 130.264  0.00  0.00    +0.011 A 
ATOM     12  O   LIG A   1      -6.006  -3.989 132.907  0.00  0.00    -0.453 OA
ATOM     13  C   LIG A   1      -4.687  -4.453 132.558  0.00  0.00    +0.466 C 
ATOM     14  O   LIG A   1      -4.282  -4.079 131.225  0.00  0.00    -0.452 OA
ATOM     15  O   LIG A   1      -7.856  -2.620 127.205  0.00  0.00    -0.481 OA
ATOM     16  C   LIG A   1      -7.987  -2.407 125.863  0.00  0.00    +0.131 A 
ATOM     17  C   LIG A   1      -7.132  -1.587 125.123  0.00  0.00    +0.026 A 
ATOM     18  C   LIG A   1      -7.359  -1.438 123.744  0.00  0.00    +0.013 A 
ATOM     19  C   LIG A   1      -8.407  -2.114 123.116  0.00  0.00    +0.046 A 
ATOM     20  C   LIG A   1      -9.230  -2.943 123.870  0.00  0.00    +0.120 A 
ATOM     21  C   LIG A   1      -9.025  -3.096 125.235  0.00  0.00    +0.091 A 
ENDROOT
BRANCH   1  22
ATOM     22  O   LIG A   1      -6.315   0.523 125.801  0.00  0.00    -0.372 OA
ATOM     23  C   LIG A   1      -5.234   1.334 126.245  0.00  0.00    +0.195 C 
ENDBRANCH   1  22
BRANCH  20  24
ATOM     24  O   LIG A   1     -10.261  -3.628 123.298  0.00  0.00    -0.507 OA
ATOM     25  H   LIG A   1      -9.960  -3.989 122.448  0.00  0.00    +0.292 HD
ENDBRANCH  20  24
TORSDOF 2
ENDMDL
MODEL 4
REMARK VINA RESULT:      -7.3      7.078      7.864
REMARK  Name = NuBBE_1766
REMARK  3 active torsions:
REMARK  status: ('A' for Active; 'I' for Inactive)
REMARK    1  A    between atoms: O_1  and  C_2
REMARK    2  A    between atoms: O_1  and  C_3
REMARK    3  A    between atoms: C_22  and  O_24
REMARK                            x       y       z     vdW  Elec       q    Type
REMARK                         _______ _______ _______ _____ _____    ______ ____
ROOT
ATOM      1  C   LIG A   1     -10.001   4.532 130.776  0.00  0.00    +0.184 C 
ATOM      2  C   LIG A   1      -8.638   4.765 131.439  0.00  0.00    +0.197 C 
ATOM      3  C   LIG A   1      -7.797   5.701 130.560  0.00  0.00    +0.235 C 
ATOM      4  C   LIG A   1      -6.496   6.027 131.266  0.00  0.00    +0.004 A 
ATOM      5  C   LIG A   1      -6.427   5.913 132.670  0.00  0.00    +0.030 A 
ATOM      6  C   LIG A   1      -7.588   5.404 133.478  0.00  0.00    +0.200 C 
ATOM      7  O   LIG A   1      -8.822   5.334 132.751  0.00  0.00    -0.365 OA
ATOM      8  C   LIG A   1      -5.228   6.249 133.276  0.00  0.00    +0.172 A 
ATOM      9  C   LIG A   1      -4.146   6.695 132.553  0.00  0.00    +0.167 A 
ATOM     10  C   LIG A   1      -4.190   6.830 131.181  0.00  0.00    +0.050 A 
ATOM     11  C   LIG A   1      -5.381   6.496 130.534  0.00  0.00    +0.011 A 
ATOM     12  O   LIG A   1      -3.072   6.973 133.338  0.00  0.00    -0.453 OA
ATOM     13  C   LIG A   1      -3.606   6.677 134.644  0.00  0.00    +0.466 C 
ATOM     14  O   LIG A   1      -4.962   6.186 134.610  0.00  0.00    -0.452 OA
ATOM     15  O   LIG A   1      -8.425   6.965 130.313  0.00  0.00    -0.481 OA
ATOM     16  C   LIG A   1      -9.729   6.894 129.914  0.00  0.00    +0.131 A 
ATOM     17  C   LIG A   1     -10.534   5.768 130.100  0.00  0.00    +0.026 A 
ATOM     18  C   LIG A   1     -11.864   5.804 129.649  0.00  0.00    +0.013 A 
ATOM     19  C   LIG A   1     -12.384   6.951 129.046  0.00  0.00    +0.046 A 
ATOM     20  C   LIG A   1     -11.569   8.067 128.894  0.00  0.00    +0.120 A 
ATOM     21  C   LIG A   1     -10.250   8.048 129.326  0.00  0.00    +0.091 A 
ENDROOT
BRANCH   1  22
ATOM     22  O   LIG A   1      -9.872   3.527 129.757  0.00  0.00    -0.372 OA
ATOM     23  C   LIG A   1      -9.164   2.381 130.214  0.00  0.00    +0.195 C 
ENDBRANCH   1  22
BRANCH  20  24
ATOM     24  O   LIG A   1     -12.035   9.212 128.317  0.00  0.00    -0.507 OA
ATOM     25  H   LIG A   1     -11.755   9.968 128.858  0.00  0.00    +0.292 HD
ENDBRANCH  20  24
TORSDOF 2
ENDMDL
MODEL 5
REMARK VINA RESULT:      -7.0      1.342      1.629
REMARK  Name = NuBBE_1766
REMARK  3 active torsions:
REMARK  status: ('A' for Active; 'I' for Inactive)
REMARK    1  A    between atoms: O_1  and  C_2
REMARK    2  A    between atoms: O_1  and  C_3
REMARK    3  A    between atoms: C_22  and  O_24
REMARK                            x       y       z     vdW  Elec       q    Type
REMARK                         _______ _______ _______ _____ _____    ______ ____
ROOT
ATOM      1  C   LIG A   1      -8.158   2.428 124.871  0.00  0.00    +0.184 C 
ATOM      2  C   LIG A   1      -7.207   2.829 126.006  0.00  0.00    +0.197 C 
ATOM      3  C   LIG A   1      -5.758   2.755 125.506  0.00  0.00    +0.235 C 
ATOM      4  C   LIG A   1      -4.822   3.262 126.586  0.00  0.00    +0.004 A 
ATOM      5  C   LIG A   1      -5.320   4.132 127.576  0.00  0.00    +0.030 A 
ATOM      6  C   LIG A   1      -6.774   4.511 127.634  0.00  0.00    +0.200 C 
ATOM      7  O   LIG A   1      -7.518   4.161 126.459  0.00  0.00    -0.365 OA
ATOM      8  C   LIG A   1      -4.425   4.593 128.525  0.00  0.00    +0.172 A 
ATOM      9  C   LIG A   1      -3.095   4.240 128.505  0.00  0.00    +0.167 A 
ATOM     10  C   LIG A   1      -2.577   3.403 127.540  0.00  0.00    +0.050 A 
ATOM     11  C   LIG A   1      -3.452   2.913 126.568  0.00  0.00    +0.011 A 
ATOM     12  O   LIG A   1      -2.389   4.803 129.521  0.00  0.00    -0.453 OA
ATOM     13  C   LIG A   1      -3.418   5.575 130.172  0.00  0.00    +0.466 C 
ATOM     14  O   LIG A   1      -4.718   5.420 129.567  0.00  0.00    -0.452 OA
ATOM     15  O   LIG A   1      -5.508   3.584 124.364  0.00  0.00    -0.481 OA
ATOM     16  C   LIG A   1      -6.422   3.470 123.356  0.00  0.00    +0.131 A 
ATOM     17  C   LIG A   1      -7.697   2.927 123.528  0.00  0.00    +0.026 A 
ATOM     18  C   LIG A   1      -8.559   2.857 122.419  0.00  0.00    +0.013 A 
ATOM     19  C   LIG A   1      -8.160   3.341 121.172  0.00  0.00    +0.046 A 
ATOM     20  C   LIG A   1      -6.894   3.899 121.033  0.00  0.00    +0.120 A 
ATOM     21  C   LIG A   1      -6.026   3.969 122.115  0.00  0.00    +0.091 A 
ENDROOT
BRANCH   1  22
ATOM     22  O   LIG A   1      -8.218   0.995 124.782  0.00  0.00    -0.372 OA
ATOM     23  C   LIG A   1      -9.429   0.469 125.311  0.00  0.00    +0.195 C 
ENDBRANCH   1  22
BRANCH  20  24
ATOM     24  O   LIG A   1      -6.463   4.390 119.836  0.00  0.00    -0.507 OA
ATOM     25  H   LIG A   1      -6.171   5.308 119.964  0.00  0.00    +0.292 HD
ENDBRANCH  20  24
TORSDOF 2
ENDMDL
MODEL 6
REMARK VINA RESULT:      -7.0      5.487      9.439
REMARK  Name = NuBBE_1766
REMARK  3 active torsions:
REMARK  status: ('A' for Active; 'I' for Inactive)
REMARK    1  A    between atoms: O_1  and  C_2
REMARK    2  A    between atoms: O_1  and  C_3
REMARK    3  A    between atoms: C_22  and  O_24
REMARK                            x       y       z     vdW  Elec       q    Type
REMARK                         _______ _______ _______ _____ _____    ______ ____
ROOT
ATOM      1  C   LIG A   1      -4.439  -1.766 129.459  0.00  0.00    +0.184 C 
ATOM      2  C   LIG A   1      -5.227  -1.978 128.161  0.00  0.00    +0.197 C 
ATOM      3  C   LIG A   1      -6.679  -2.347 128.501  0.00  0.00    +0.235 C 
ATOM      4  C   LIG A   1      -7.490  -2.444 127.224  0.00  0.00    +0.004 A 
ATOM      5  C   LIG A   1      -7.051  -1.755 126.075  0.00  0.00    +0.030 A 
ATOM      6  C   LIG A   1      -5.757  -0.987 126.062  0.00  0.00    +0.200 C 
ATOM      7  O   LIG A   1      -5.186  -0.780 127.361  0.00  0.00    -0.365 OA
ATOM      8  C   LIG A   1      -7.837  -1.847 124.940  0.00  0.00    +0.172 A 
ATOM      9  C   LIG A   1      -9.013  -2.563 124.924  0.00  0.00    +0.167 A 
ATOM     10  C   LIG A   1      -9.474  -3.234 126.036  0.00  0.00    +0.050 A 
ATOM     11  C   LIG A   1      -8.703  -3.168 127.199  0.00  0.00    +0.011 A 
ATOM     12  O   LIG A   1      -9.632  -2.522 123.715  0.00  0.00    -0.453 OA
ATOM     13  C   LIG A   1      -8.730  -1.677 122.975  0.00  0.00    +0.466 C 
ATOM     14  O   LIG A   1      -7.572  -1.272 123.734  0.00  0.00    -0.452 OA
ATOM     15  O   LIG A   1      -7.343  -1.363 129.303  0.00  0.00    -0.481 OA
ATOM     16  C   LIG A   1      -6.638  -0.932 130.389  0.00  0.00    +0.131 A 
ATOM     17  C   LIG A   1      -5.258  -1.094 130.530  0.00  0.00    +0.026 A 
ATOM     18  C   LIG A   1      -4.633  -0.611 131.693  0.00  0.00    +0.013 A 
ATOM     19  C   LIG A   1      -5.372   0.040 132.683  0.00  0.00    +0.046 A 
ATOM     20  C   LIG A   1      -6.740   0.210 132.508  0.00  0.00    +0.120 A 
ATOM     21  C   LIG A   1      -7.376  -0.267 131.370  0.00  0.00    +0.091 A 
ENDROOT
BRANCH   1  22
ATOM     22  O   LIG A   1      -4.035  -3.040 129.987  0.00  0.00    -0.372 OA
ATOM     23  C   LIG A   1      -3.196  -3.756 129.088  0.00  0.00    +0.195 C 
ENDBRANCH   1  22
BRANCH  20  24
ATOM     24  O   LIG A   1      -7.501   0.845 133.445  0.00  0.00    -0.507 OA
ATOM     25  H   LIG A   1      -6.919   1.156 134.158  0.00  0.00    +0.292 HD
ENDBRANCH  20  24
TORSDOF 2
ENDMDL
MODEL 7
REMARK VINA RESULT:      -6.9      8.270     10.241
REMARK  Name = NuBBE_1766
REMARK  3 active torsions:
REMARK  status: ('A' for Active; 'I' for Inactive)
REMARK    1  A    between atoms: O_1  and  C_2
REMARK    2  A    between atoms: O_1  and  C_3
REMARK    3  A    between atoms: C_22  and  O_24
REMARK                            x       y       z     vdW  Elec       q    Type
REMARK                         _______ _______ _______ _____ _____    ______ ____
ROOT
ATOM      1  C   LIG A   1      -5.165  -2.151 129.334  0.00  0.00    +0.184 C 
ATOM      2  C   LIG A   1      -5.287  -2.767 130.733  0.00  0.00    +0.197 C 
ATOM      3  C   LIG A   1      -6.743  -2.665 131.209  0.00  0.00    +0.235 C 
ATOM      4  C   LIG A   1      -6.894  -3.375 132.540  0.00  0.00    +0.004 A 
ATOM      5  C   LIG A   1      -5.968  -4.378 132.893  0.00  0.00    +0.030 A 
ATOM      6  C   LIG A   1      -4.791  -4.709 132.018  0.00  0.00    +0.200 C 
ATOM      7  O   LIG A   1      -4.863  -4.144 130.702  0.00  0.00    -0.365 OA
ATOM      8  C   LIG A   1      -6.160  -5.021 134.104  0.00  0.00    +0.172 A 
ATOM      9  C   LIG A   1      -7.217  -4.717 134.931  0.00  0.00    +0.167 A 
ATOM     10  C   LIG A   1      -8.145  -3.751 134.604  0.00  0.00    +0.050 A 
ATOM     11  C   LIG A   1      -7.981  -3.077 133.392  0.00  0.00    +0.011 A 
ATOM     12  O   LIG A   1      -7.224  -5.464 136.066  0.00  0.00    -0.453 OA
ATOM     13  C   LIG A   1      -6.066  -6.295 135.852  0.00  0.00    +0.466 C 
ATOM     14  O   LIG A   1      -5.366  -5.996 134.626  0.00  0.00    -0.452 OA
ATOM     15  O   LIG A   1      -7.676  -3.302 130.328  0.00  0.00    -0.481 OA
ATOM     16  C   LIG A   1      -7.528  -2.991 129.007  0.00  0.00    +0.131 A 
ATOM     17  C   LIG A   1      -6.363  -2.439 128.469  0.00  0.00    +0.026 A 
ATOM     18  C   LIG A   1      -6.319  -2.157 127.092  0.00  0.00    +0.013 A 
ATOM     19  C   LIG A   1      -7.411  -2.443 126.269  0.00  0.00    +0.046 A 
ATOM     20  C   LIG A   1      -8.549  -3.015 126.825  0.00  0.00    +0.120 A 
ATOM     21  C   LIG A   1      -8.614  -3.293 128.184  0.00  0.00    +0.091 A 
ENDROOT
BRANCH   1  22
ATOM     22  O   LIG A   1      -5.070  -0.722 129.447  0.00  0.00    -0.372 OA
ATOM     23  C   LIG A   1      -4.079  -0.317 130.384  0.00  0.00    +0.195 C 
ENDBRANCH   1  22
BRANCH  20  24
ATOM     24  O   LIG A   1      -9.636  -3.318 126.059  0.00  0.00    -0.507 OA
ATOM     25  H   LIG A   1      -9.876  -4.247 126.215  0.00  0.00    +0.292 HD
ENDBRANCH  20  24
TORSDOF 2
ENDMDL
MODEL 8
REMARK VINA RESULT:      -6.9      6.480      9.367
REMARK  Name = NuBBE_1766
REMARK  3 active torsions:
REMARK  status: ('A' for Active; 'I' for Inactive)
REMARK    1  A    between atoms: O_1  and  C_2
REMARK    2  A    between atoms: O_1  and  C_3
REMARK    3  A    between atoms: C_22  and  O_24
REMARK                            x       y       z     vdW  Elec       q    Type
REMARK                         _______ _______ _______ _____ _____    ______ ____
ROOT
ATOM      1  C   LIG A   1      -7.076  -2.834 129.165  0.00  0.00    +0.184 C 
ATOM      2  C   LIG A   1      -7.515  -1.372 129.318  0.00  0.00    +0.197 C 
ATOM      3  C   LIG A   1      -8.164  -1.176 130.696  0.00  0.00    +0.235 C 
ATOM      4  C   LIG A   1      -8.494   0.290 130.897  0.00  0.00    +0.004 A 
ATOM      5  C   LIG A   1      -7.787   1.262 130.161  0.00  0.00    +0.030 A 
ATOM      6  C   LIG A   1      -6.766   0.880 129.125  0.00  0.00    +0.200 C 
ATOM      7  O   LIG A   1      -6.378  -0.500 129.167  0.00  0.00    -0.365 OA
ATOM      8  C   LIG A   1      -8.100   2.590 130.399  0.00  0.00    +0.172 A 
ATOM      9  C   LIG A   1      -9.047   2.961 131.326  0.00  0.00    +0.167 A 
ATOM     10  C   LIG A   1      -9.743   2.032 132.070  0.00  0.00    +0.050 A 
ATOM     11  C   LIG A   1      -9.457   0.682 131.854  0.00  0.00    +0.011 A 
ATOM     12  O   LIG A   1      -9.198   4.309 131.406  0.00  0.00    -0.453 OA
ATOM     13  C   LIG A   1      -8.221   4.751 130.444  0.00  0.00    +0.466 C 
ATOM     14  O   LIG A   1      -7.544   3.665 129.776  0.00  0.00    -0.452 OA
ATOM     15  O   LIG A   1      -7.302  -1.528 131.785  0.00  0.00    -0.481 OA
ATOM     16  C   LIG A   1      -6.677  -2.736 131.660  0.00  0.00    +0.131 A 
ATOM     17  C   LIG A   1      -6.538  -3.412 130.447  0.00  0.00    +0.026 A 
ATOM     18  C   LIG A   1      -5.876  -4.653 130.434  0.00  0.00    +0.013 A 
ATOM     19  C   LIG A   1      -5.346  -5.191 131.608  0.00  0.00    +0.046 A 
ATOM     20  C   LIG A   1      -5.476  -4.487 132.799  0.00  0.00    +0.120 A 
ATOM     21  C   LIG A   1      -6.134  -3.264 132.832  0.00  0.00    +0.091 A 
ENDROOT
BRANCH   1  22
ATOM     22  O   LIG A   1      -8.208  -3.636 128.792  0.00  0.00    -0.372 OA
ATOM     23  C   LIG A   1      -8.625  -3.395 127.454  0.00  0.00    +0.195 C 
ENDBRANCH   1  22
BRANCH  20  24
ATOM     24  O   LIG A   1      -4.969  -4.971 133.968  0.00  0.00    -0.507 OA
ATOM     25  H   LIG A   1      -4.022  -5.151 133.844  0.00  0.00    +0.292 HD
ENDBRANCH  20  24
TORSDOF 2
ENDMDL
MODEL 9
REMARK VINA RESULT:      -6.9      2.747      7.925
REMARK  Name = NuBBE_1766
REMARK  3 active torsions:
REMARK  status: ('A' for Active; 'I' for Inactive)
REMARK    1  A    between atoms: O_1  and  C_2
REMARK    2  A    between atoms: O_1  and  C_3
REMARK    3  A    between atoms: C_22  and  O_24
REMARK                            x       y       z     vdW  Elec       q    Type
REMARK                         _______ _______ _______ _____ _____    ______ ____
ROOT
ATOM      1  C   LIG A   1      -6.210   4.618 129.271  0.00  0.00    +0.184 C 
ATOM      2  C   LIG A   1      -6.656   3.951 127.964  0.00  0.00    +0.197 C 
ATOM      3  C   LIG A   1      -7.737   2.905 128.269  0.00  0.00    +0.235 C 
ATOM      4  C   LIG A   1      -8.264   2.326 126.971  0.00  0.00    +0.004 A 
ATOM      5  C   LIG A   1      -8.137   3.073 125.782  0.00  0.00    +0.030 A 
ATOM      6  C   LIG A   1      -7.424   4.396 125.755  0.00  0.00    +0.200 C 
ATOM      7  O   LIG A   1      -7.161   4.947 127.052  0.00  0.00    -0.365 OA
ATOM      8  C   LIG A   1      -8.658   2.519 124.625  0.00  0.00    +0.172 A 
ATOM      9  C   LIG A   1      -9.293   1.298 124.624  0.00  0.00    +0.167 A 
ATOM     10  C   LIG A   1      -9.445   0.553 125.774  0.00  0.00    +0.050 A 
ATOM     11  C   LIG A   1      -8.927   1.078 126.960  0.00  0.00    +0.011 A 
ATOM     12  O   LIG A   1      -9.733   0.940 123.389  0.00  0.00    -0.453 OA
ATOM     13  C   LIG A   1      -9.327   2.084 122.613  0.00  0.00    +0.466 C 
ATOM     14  O   LIG A   1      -8.615   3.075 123.383  0.00  0.00    -0.452 OA
ATOM     15  O   LIG A   1      -8.882   3.448 128.938  0.00  0.00    -0.481 OA
ATOM     16  C   LIG A   1      -8.600   4.247 130.009  0.00  0.00    +0.131 A 
ATOM     17  C   LIG A   1      -7.351   4.831 130.230  0.00  0.00    +0.026 A 
ATOM     18  C   LIG A   1      -7.170   5.636 131.368  0.00  0.00    +0.013 A 
ATOM     19  C   LIG A   1      -8.225   5.869 132.253  0.00  0.00    +0.046 A 
ATOM     20  C   LIG A   1      -9.465   5.294 131.998  0.00  0.00    +0.120 A 
ATOM     21  C   LIG A   1      -9.660   4.490 130.883  0.00  0.00    +0.091 A 
ENDROOT
BRANCH   1  22
ATOM     22  O   LIG A   1      -5.260   3.772 129.939  0.00  0.00    -0.372 OA
ATOM     23  C   LIG A   1      -3.927   4.253 129.818  0.00  0.00    +0.195 C 
ENDBRANCH   1  22
BRANCH  20  24
ATOM     24  O   LIG A   1     -10.526   5.499 132.831  0.00  0.00    -0.507 OA
ATOM     25  H   LIG A   1     -10.675   6.455 132.914  0.00  0.00    +0.292 HD
ENDBRANCH  20  24
TORSDOF 2
ENDMDL
