MODEL 1
REMARK VINA RESULT:      -7.5      0.000      0.000
REMARK  Name = NuBBE_2468
REMARK  11 active torsions:
REMARK  status: ('A' for Active; 'I' for Inactive)
REMARK    1  A    between atoms: C_1  and  O_2
REMARK    2  A    between atoms: O_2  and  C_3
REMARK    3  A    between atoms: C_5  and  C_6
REMARK    4  A    between atoms: C_14  and  C_18
REMARK    5  A    between atoms: C_20  and  O_21
REMARK    6  A    between atoms: O_21  and  C_22
REMARK    7  A    between atoms: C_23  and  O_24
REMARK    8  A    between atoms: O_24  and  C_25
REMARK    9  A    between atoms: C_30  and  O_31
REMARK   10  A    between atoms: O_31  and  C_32
REMARK   11  A    between atoms: C_32  and  C_33
REMARK                            x       y       z     vdW  Elec       q    Type
REMARK                         _______ _______ _______ _____ _____    ______ ____
ROOT
ATOM      1  C   LIG A   1      -9.298   3.117 132.551  0.00  0.00    +0.154 C 
ATOM      2  C   LIG A   1      -8.995   3.943 131.295  0.00  0.00    +0.056 C 
ATOM      3  C   LIG A   1      -9.546   5.302 131.633  0.00  0.00    +0.056 C 
ATOM      4  C   LIG A   1      -9.363   5.380 133.129  0.00  0.00    +0.167 C 
ATOM      5  O   LIG A   1      -9.478   4.047 133.637  0.00  0.00    -0.371 OA
ATOM      6  C   LIG A   1     -11.007   5.216 131.185  0.00  0.00    +0.154 C 
ATOM      7  O   LIG A   1     -11.087   4.153 130.212  0.00  0.00    -0.371 OA
ATOM      8  C   LIG A   1      -9.804   3.529 130.088  0.00  0.00    +0.167 C 
ENDROOT
BRANCH   1  11
ATOM      9  C   LIG A   1      -7.281  -0.130 132.506  0.00  0.00    +0.163 A 
ATOM     10  C   LIG A   1      -8.243   0.850 132.231  0.00  0.00    +0.055 A 
ATOM     11  C   LIG A   1      -8.218   2.100 132.877  0.00  0.00    -0.015 A 
ATOM     12  C   LIG A   1      -7.193   2.359 133.801  0.00  0.00    +0.010 A 
ATOM     13  C   LIG A   1      -6.229   1.388 134.091  0.00  0.00    +0.050 A 
ATOM     14  C   LIG A   1      -6.277   0.158 133.437  0.00  0.00    +0.173 A 
BRANCH   9  16
ATOM     15  C   LIG A   1      -7.903  -1.541 130.694  0.00  0.00    +0.277 C 
ATOM     16  O   LIG A   1      -7.249  -1.381 131.946  0.00  0.00    -0.491 OA
ENDBRANCH   9  16
BRANCH  14  17
ATOM     17  O   LIG A   1      -5.451  -0.909 133.854  0.00  0.00    -0.422 OA
BRANCH  17  18
ATOM     18  C   LIG A   1      -5.620  -1.511 135.103  0.00  0.00    +0.309 C 
ATOM     19  C   LIG A   1      -4.244  -1.882 135.596  0.00  0.00    +0.136 C 
ATOM     20  O   LIG A   1      -6.668  -1.777 135.657  0.00  0.00    -0.251 OA
ENDBRANCH  17  18
ENDBRANCH  14  17
ENDBRANCH   1  11
BRANCH   6  21
ATOM     21  C   LIG A   1     -11.524   6.517 130.606  0.00  0.00    -0.015 A 
ATOM     22  C   LIG A   1     -11.007   7.058 129.420  0.00  0.00    +0.055 A 
ATOM     23  C   LIG A   1     -11.513   8.244 128.864  0.00  0.00    +0.162 A 
ATOM     24  C   LIG A   1     -12.571   8.908 129.499  0.00  0.00    +0.162 A 
ATOM     25  C   LIG A   1     -13.075   8.386 130.700  0.00  0.00    +0.050 A 
ATOM     26  C   LIG A   1     -12.551   7.212 131.251  0.00  0.00    +0.010 A 
BRANCH  23  27
ATOM     27  O   LIG A   1     -10.907   8.577 127.682  0.00  0.00    -0.491 OA
ATOM     28  C   LIG A   1     -11.009   7.670 126.593  0.00  0.00    +0.277 C 
ENDBRANCH  23  27
BRANCH  24  29
ATOM     29  O   LIG A   1     -13.143   9.988 128.876  0.00  0.00    -0.491 OA
ATOM     30  C   LIG A   1     -13.570  11.041 129.736  0.00  0.00    +0.277 C 
ENDBRANCH  24  29
ENDBRANCH   6  21
TORSDOF 7
ENDMDL
MODEL 2
REMARK VINA RESULT:      -7.3      5.608     11.710
REMARK  Name = NuBBE_2468
REMARK  11 active torsions:
REMARK  status: ('A' for Active; 'I' for Inactive)
REMARK    1  A    between atoms: C_1  and  O_2
REMARK    2  A    between atoms: O_2  and  C_3
REMARK    3  A    between atoms: C_5  and  C_6
REMARK    4  A    between atoms: C_14  and  C_18
REMARK    5  A    between atoms: C_20  and  O_21
REMARK    6  A    between atoms: O_21  and  C_22
REMARK    7  A    between atoms: C_23  and  O_24
REMARK    8  A    between atoms: O_24  and  C_25
REMARK    9  A    between atoms: C_30  and  O_31
REMARK   10  A    between atoms: O_31  and  C_32
REMARK   11  A    between atoms: C_32  and  C_33
REMARK                            x       y       z     vdW  Elec       q    Type
REMARK                         _______ _______ _______ _____ _____    ______ ____
ROOT
ATOM      1  C   LIG A   1      -8.563  -0.679 126.958  0.00  0.00    +0.154 C 
ATOM      2  C   LIG A   1      -7.249  -0.567 127.741  0.00  0.00    +0.056 C 
ATOM      3  C   LIG A   1      -6.981  -1.983 128.173  0.00  0.00    +0.056 C 
ATOM      4  C   LIG A   1      -7.585  -2.800 127.055  0.00  0.00    +0.167 C 
ATOM      5  O   LIG A   1      -8.692  -2.052 126.540  0.00  0.00    -0.371 OA
ATOM      6  C   LIG A   1      -7.728  -2.097 129.504  0.00  0.00    +0.154 C 
ATOM      7  O   LIG A   1      -7.898  -0.755 130.007  0.00  0.00    -0.371 OA
ATOM      8  C   LIG A   1      -7.385   0.176 129.049  0.00  0.00    +0.167 C 
ENDROOT
BRANCH   1  11
ATOM      9  C   LIG A   1      -8.759   2.562 124.940  0.00  0.00    +0.163 A 
ATOM     10  C   LIG A   1      -8.675   1.650 125.999  0.00  0.00    +0.055 A 
ATOM     11  C   LIG A   1      -8.636   0.262 125.768  0.00  0.00    -0.015 A 
ATOM     12  C   LIG A   1      -8.667  -0.200 124.442  0.00  0.00    +0.010 A 
ATOM     13  C   LIG A   1      -8.757   0.698 123.374  0.00  0.00    +0.050 A 
ATOM     14  C   LIG A   1      -8.795   2.068 123.631  0.00  0.00    +0.173 A 
BRANCH   9  16
ATOM     15  C   LIG A   1      -7.639   4.596 125.458  0.00  0.00    +0.277 C 
ATOM     16  O   LIG A   1      -8.832   3.923 125.077  0.00  0.00    -0.491 OA
ENDBRANCH   9  16
BRANCH  14  17
ATOM     17  O   LIG A   1      -9.092   2.984 122.598  0.00  0.00    -0.422 OA
BRANCH  17  18
ATOM     18  C   LIG A   1      -8.111   3.401 121.696  0.00  0.00    +0.309 C 
ATOM     19  C   LIG A   1      -8.828   3.841 120.445  0.00  0.00    +0.136 C 
ATOM     20  O   LIG A   1      -6.906   3.341 121.839  0.00  0.00    -0.251 OA
ENDBRANCH  17  18
ENDBRANCH  14  17
ENDBRANCH   1  11
BRANCH   6  21
ATOM     21  C   LIG A   1      -7.004  -2.964 130.514  0.00  0.00    -0.015 A 
ATOM     22  C   LIG A   1      -7.200  -2.815 131.895  0.00  0.00    +0.055 A 
ATOM     23  C   LIG A   1      -6.558  -3.644 132.828  0.00  0.00    +0.162 A 
ATOM     24  C   LIG A   1      -5.701  -4.659 132.377  0.00  0.00    +0.162 A 
ATOM     25  C   LIG A   1      -5.481  -4.796 130.998  0.00  0.00    +0.050 A 
ATOM     26  C   LIG A   1      -6.116  -3.952 130.080  0.00  0.00    +0.010 A 
BRANCH  23  27
ATOM     27  O   LIG A   1      -6.919  -3.370 134.120  0.00  0.00    -0.491 OA
ATOM     28  C   LIG A   1      -8.265  -3.607 134.509  0.00  0.00    +0.277 C 
ENDBRANCH  23  27
BRANCH  24  29
ATOM     29  O   LIG A   1      -5.188  -5.545 133.289  0.00  0.00    -0.491 OA
ATOM     30  C   LIG A   1      -3.786  -5.443 133.525  0.00  0.00    +0.277 C 
ENDBRANCH  24  29
ENDBRANCH   6  21
TORSDOF 7
ENDMDL
MODEL 3
REMARK VINA RESULT:      -7.1      5.621      7.114
REMARK  Name = NuBBE_2468
REMARK  11 active torsions:
REMARK  status: ('A' for Active; 'I' for Inactive)
REMARK    1  A    between atoms: C_1  and  O_2
REMARK    2  A    between atoms: O_2  and  C_3
REMARK    3  A    between atoms: C_5  and  C_6
REMARK    4  A    between atoms: C_14  and  C_18
REMARK    5  A    between atoms: C_20  and  O_21
REMARK    6  A    between atoms: O_21  and  C_22
REMARK    7  A    between atoms: C_23  and  O_24
REMARK    8  A    between atoms: O_24  and  C_25
REMARK    9  A    between atoms: C_30  and  O_31
REMARK   10  A    between atoms: O_31  and  C_32
REMARK   11  A    between atoms: C_32  and  C_33
REMARK                            x       y       z     vdW  Elec       q    Type
REMARK                         _______ _______ _______ _____ _____    ______ ____
ROOT
ATOM      1  C   LIG A   1      -7.767  -1.999 129.252  0.00  0.00    +0.154 C 
ATOM      2  C   LIG A   1      -7.024  -1.803 127.926  0.00  0.00    +0.056 C 
ATOM      3  C   LIG A   1      -7.353  -0.384 127.550  0.00  0.00    +0.056 C 
ATOM      4  C   LIG A   1      -7.508   0.296 128.889  0.00  0.00    +0.167 C 
ATOM      5  O   LIG A   1      -8.002  -0.688 129.805  0.00  0.00    -0.371 OA
ATOM      6  C   LIG A   1      -8.659  -0.518 126.762  0.00  0.00    +0.154 C 
ATOM      7  O   LIG A   1      -8.724  -1.877 126.284  0.00  0.00    -0.371 OA
ATOM      8  C   LIG A   1      -7.600  -2.608 126.784  0.00  0.00    +0.167 C 
ENDROOT
BRANCH   1  11
ATOM      9  C   LIG A   1      -6.629  -3.533 132.564  0.00  0.00    +0.163 A 
ATOM     10  C   LIG A   1      -7.302  -2.757 131.611  0.00  0.00    +0.055 A 
ATOM     11  C   LIG A   1      -7.018  -2.879 130.238  0.00  0.00    -0.015 A 
ATOM     12  C   LIG A   1      -6.051  -3.812 129.830  0.00  0.00    +0.010 A 
ATOM     13  C   LIG A   1      -5.367  -4.589 130.770  0.00  0.00    +0.050 A 
ATOM     14  C   LIG A   1      -5.666  -4.448 132.125  0.00  0.00    +0.173 A 
BRANCH   9  16
ATOM     15  C   LIG A   1      -8.158  -3.578 134.386  0.00  0.00    +0.277 C 
ATOM     16  O   LIG A   1      -6.821  -3.456 133.918  0.00  0.00    -0.491 OA
ENDBRANCH   9  16
BRANCH  14  17
ATOM     17  O   LIG A   1      -4.857  -5.062 133.106  0.00  0.00    -0.422 OA
BRANCH  17  18
ATOM     18  C   LIG A   1      -3.505  -4.736 133.237  0.00  0.00    +0.309 C 
ATOM     19  C   LIG A   1      -2.825  -5.938 133.843  0.00  0.00    +0.136 C 
ATOM     20  O   LIG A   1      -2.978  -3.667 133.002  0.00  0.00    -0.251 OA
ENDBRANCH  17  18
ENDBRANCH  14  17
ENDBRANCH   1  11
BRANCH   6  21
ATOM     21  C   LIG A   1      -8.757   0.464 125.612  0.00  0.00    -0.015 A 
ATOM     22  C   LIG A   1      -8.755   1.851 125.819  0.00  0.00    +0.055 A 
ATOM     23  C   LIG A   1      -8.806   2.760 124.750  0.00  0.00    +0.162 A 
ATOM     24  C   LIG A   1      -8.851   2.278 123.434  0.00  0.00    +0.162 A 
ATOM     25  C   LIG A   1      -8.879   0.891 123.222  0.00  0.00    +0.050 A 
ATOM     26  C   LIG A   1      -8.844  -0.003 124.297  0.00  0.00    +0.010 A 
BRANCH  23  27
ATOM     27  O   LIG A   1      -8.745   4.066 125.159  0.00  0.00    -0.491 OA
ATOM     28  C   LIG A   1      -7.483   4.593 125.545  0.00  0.00    +0.277 C 
ENDBRANCH  23  27
BRANCH  24  29
ATOM     29  O   LIG A   1      -8.765   3.172 122.399  0.00  0.00    -0.491 OA
ATOM     30  C   LIG A   1      -7.462   3.358 121.851  0.00  0.00    +0.277 C 
ENDBRANCH  24  29
ENDBRANCH   6  21
TORSDOF 7
ENDMDL
MODEL 4
REMARK VINA RESULT:      -7.1      7.060      9.598
REMARK  Name = NuBBE_2468
REMARK  11 active torsions:
REMARK  status: ('A' for Active; 'I' for Inactive)
REMARK    1  A    between atoms: C_1  and  O_2
REMARK    2  A    between atoms: O_2  and  C_3
REMARK    3  A    between atoms: C_5  and  C_6
REMARK    4  A    between atoms: C_14  and  C_18
REMARK    5  A    between atoms: C_20  and  O_21
REMARK    6  A    between atoms: O_21  and  C_22
REMARK    7  A    between atoms: C_23  and  O_24
REMARK    8  A    between atoms: O_24  and  C_25
REMARK    9  A    between atoms: C_30  and  O_31
REMARK   10  A    between atoms: O_31  and  C_32
REMARK   11  A    between atoms: C_32  and  C_33
REMARK                            x       y       z     vdW  Elec       q    Type
REMARK                         _______ _______ _______ _____ _____    ______ ____
ROOT
ATOM      1  C   LIG A   1      -5.609   1.875 127.059  0.00  0.00    +0.154 C 
ATOM      2  C   LIG A   1      -4.167   2.386 126.962  0.00  0.00    +0.056 C 
ATOM      3  C   LIG A   1      -3.782   2.614 128.399  0.00  0.00    +0.056 C 
ATOM      4  C   LIG A   1      -4.580   1.565 129.135  0.00  0.00    +0.167 C 
ATOM      5  O   LIG A   1      -5.787   1.358 128.393  0.00  0.00    -0.371 OA
ATOM      6  C   LIG A   1      -4.240   4.050 128.668  0.00  0.00    +0.154 C 
ATOM      7  O   LIG A   1      -4.337   4.707 127.386  0.00  0.00    -0.371 OA
ATOM      8  C   LIG A   1      -4.052   3.763 126.349  0.00  0.00    +0.167 C 
ENDROOT
BRANCH   1  11
ATOM      9  C   LIG A   1      -7.312   0.159 124.099  0.00  0.00    +0.163 A 
ATOM     10  C   LIG A   1      -6.951   1.099 125.071  0.00  0.00    +0.055 A 
ATOM     11  C   LIG A   1      -5.946   0.823 126.017  0.00  0.00    -0.015 A 
ATOM     12  C   LIG A   1      -5.292  -0.419 125.961  0.00  0.00    +0.010 A 
ATOM     13  C   LIG A   1      -5.646  -1.370 124.999  0.00  0.00    +0.050 A 
ATOM     14  C   LIG A   1      -6.646  -1.071 124.075  0.00  0.00    +0.173 A 
BRANCH   9  16
ATOM     15  C   LIG A   1      -9.547   0.825 123.629  0.00  0.00    +0.277 C 
ATOM     16  O   LIG A   1      -8.298   0.334 123.162  0.00  0.00    -0.491 OA
ENDBRANCH   9  16
BRANCH  14  17
ATOM     17  O   LIG A   1      -7.166  -2.077 123.230  0.00  0.00    -0.422 OA
BRANCH  17  18
ATOM     18  C   LIG A   1      -7.891  -3.153 123.747  0.00  0.00    +0.309 C 
ATOM     19  C   LIG A   1      -9.322  -2.962 123.313  0.00  0.00    +0.136 C 
ATOM     20  O   LIG A   1      -7.483  -4.030 124.482  0.00  0.00    -0.251 OA
ENDBRANCH  17  18
ENDBRANCH  14  17
ENDBRANCH   1  11
BRANCH   6  21
ATOM     21  C   LIG A   1      -3.304   4.804 129.590  0.00  0.00    -0.015 A 
ATOM     22  C   LIG A   1      -3.085   4.400 130.915  0.00  0.00    +0.055 A 
ATOM     23  C   LIG A   1      -2.188   5.076 131.758  0.00  0.00    +0.162 A 
ATOM     24  C   LIG A   1      -1.479   6.182 131.267  0.00  0.00    +0.162 A 
ATOM     25  C   LIG A   1      -1.714   6.607 129.950  0.00  0.00    +0.050 A 
ATOM     26  C   LIG A   1      -2.622   5.933 129.127  0.00  0.00    +0.010 A 
BRANCH  23  27
ATOM     27  O   LIG A   1      -2.081   4.497 132.994  0.00  0.00    -0.491 OA
ATOM     28  C   LIG A   1      -2.726   3.250 133.213  0.00  0.00    +0.277 C 
ENDBRANCH  23  27
BRANCH  24  29
ATOM     29  O   LIG A   1      -0.510   6.749 132.055  0.00  0.00    -0.491 OA
ATOM     30  C   LIG A   1      -0.929   7.859 132.845  0.00  0.00    +0.277 C 
ENDBRANCH  24  29
ENDBRANCH   6  21
TORSDOF 7
ENDMDL
MODEL 5
REMARK VINA RESULT:      -7.1      2.252      3.101
REMARK  Name = NuBBE_2468
REMARK  11 active torsions:
REMARK  status: ('A' for Active; 'I' for Inactive)
REMARK    1  A    between atoms: C_1  and  O_2
REMARK    2  A    between atoms: O_2  and  C_3
REMARK    3  A    between atoms: C_5  and  C_6
REMARK    4  A    between atoms: C_14  and  C_18
REMARK    5  A    between atoms: C_20  and  O_21
REMARK    6  A    between atoms: O_21  and  C_22
REMARK    7  A    between atoms: C_23  and  O_24
REMARK    8  A    between atoms: O_24  and  C_25
REMARK    9  A    between atoms: C_30  and  O_31
REMARK   10  A    between atoms: O_31  and  C_32
REMARK   11  A    between atoms: C_32  and  C_33
REMARK                            x       y       z     vdW  Elec       q    Type
REMARK                         _______ _______ _______ _____ _____    ______ ____
ROOT
ATOM      1  C   LIG A   1      -7.496   2.654 130.872  0.00  0.00    +0.154 C 
ATOM      2  C   LIG A   1      -8.906   2.754 130.278  0.00  0.00    +0.056 C 
ATOM      3  C   LIG A   1      -8.952   4.154 129.728  0.00  0.00    +0.056 C 
ATOM      4  C   LIG A   1      -7.518   4.409 129.328  0.00  0.00    +0.167 C 
ATOM      5  O   LIG A   1      -6.692   3.663 130.229  0.00  0.00    -0.371 OA
ATOM      6  C   LIG A   1      -9.428   4.990 130.918  0.00  0.00    +0.154 C 
ATOM      7  O   LIG A   1     -10.100   4.089 131.823  0.00  0.00    -0.371 OA
ATOM      8  C   LIG A   1     -10.002   2.753 131.318  0.00  0.00    +0.167 C 
ENDROOT
BRANCH   1  11
ATOM      9  C   LIG A   1      -5.872  -0.394 129.232  0.00  0.00    +0.163 A 
ATOM     10  C   LIG A   1      -6.439   0.870 129.437  0.00  0.00    +0.055 A 
ATOM     11  C   LIG A   1      -6.872   1.278 130.713  0.00  0.00    -0.015 A 
ATOM     12  C   LIG A   1      -6.712   0.395 131.793  0.00  0.00    +0.010 A 
ATOM     13  C   LIG A   1      -6.153  -0.873 131.602  0.00  0.00    +0.050 A 
ATOM     14  C   LIG A   1      -5.733  -1.253 130.328  0.00  0.00    +0.173 A 
BRANCH   9  16
ATOM     15  C   LIG A   1      -6.450  -1.074 127.027  0.00  0.00    +0.277 C 
ATOM     16  O   LIG A   1      -5.453  -0.881 128.021  0.00  0.00    -0.491 OA
ENDBRANCH   9  16
BRANCH  14  17
ATOM     17  O   LIG A   1      -5.359  -2.589 130.064  0.00  0.00    -0.422 OA
BRANCH  17  18
ATOM     18  C   LIG A   1      -6.298  -3.622 130.088  0.00  0.00    +0.309 C 
ATOM     19  C   LIG A   1      -5.618  -4.812 130.717  0.00  0.00    +0.136 C 
ATOM     20  O   LIG A   1      -7.417  -3.612 129.616  0.00  0.00    -0.251 OA
ENDBRANCH  17  18
ENDBRANCH  14  17
ENDBRANCH   1  11
BRANCH   6  21
ATOM     21  C   LIG A   1     -10.342   6.127 130.511  0.00  0.00    -0.015 A 
ATOM     22  C   LIG A   1     -10.108   6.891 129.359  0.00  0.00    +0.055 A 
ATOM     23  C   LIG A   1     -10.977   7.920 128.961  0.00  0.00    +0.162 A 
ATOM     24  C   LIG A   1     -12.120   8.192 129.726  0.00  0.00    +0.162 A 
ATOM     25  C   LIG A   1     -12.346   7.449 130.895  0.00  0.00    +0.050 A 
ATOM     26  C   LIG A   1     -11.463   6.437 131.287  0.00  0.00    +0.010 A 
BRANCH  23  27
ATOM     27  O   LIG A   1     -10.599   8.511 127.785  0.00  0.00    -0.491 OA
ATOM     28  C   LIG A   1     -10.942   7.867 126.566  0.00  0.00    +0.277 C 
ENDBRANCH  23  27
BRANCH  24  29
ATOM     29  O   LIG A   1     -13.029   9.105 129.256  0.00  0.00    -0.491 OA
ATOM     30  C   LIG A   1     -13.218  10.261 130.067  0.00  0.00    +0.277 C 
ENDBRANCH  24  29
ENDBRANCH   6  21
TORSDOF 7
ENDMDL
MODEL 6
REMARK VINA RESULT:      -7.1      1.157      9.938
REMARK  Name = NuBBE_2468
REMARK  11 active torsions:
REMARK  status: ('A' for Active; 'I' for Inactive)
REMARK    1  A    between atoms: C_1  and  O_2
REMARK    2  A    between atoms: O_2  and  C_3
REMARK    3  A    between atoms: C_5  and  C_6
REMARK    4  A    between atoms: C_14  and  C_18
REMARK    5  A    between atoms: C_20  and  O_21
REMARK    6  A    between atoms: O_21  and  C_22
REMARK    7  A    between atoms: C_23  and  O_24
REMARK    8  A    between atoms: O_24  and  C_25
REMARK    9  A    between atoms: C_30  and  O_31
REMARK   10  A    between atoms: O_31  and  C_32
REMARK   11  A    between atoms: C_32  and  C_33
REMARK                            x       y       z     vdW  Elec       q    Type
REMARK                         _______ _______ _______ _____ _____    ______ ____
ROOT
ATOM      1  C   LIG A   1      -9.357   5.577 131.559  0.00  0.00    +0.154 C 
ATOM      2  C   LIG A   1      -9.534   4.079 131.287  0.00  0.00    +0.056 C 
ATOM      3  C   LIG A   1      -9.053   3.436 132.559  0.00  0.00    +0.056 C 
ATOM      4  C   LIG A   1      -9.403   4.461 133.612  0.00  0.00    +0.167 C 
ATOM      5  O   LIG A   1      -9.318   5.747 132.990  0.00  0.00    -0.371 OA
ATOM      6  C   LIG A   1      -7.549   3.268 132.327  0.00  0.00    +0.154 C 
ATOM      7  O   LIG A   1      -7.339   3.288 130.899  0.00  0.00    -0.371 OA
ATOM      8  C   LIG A   1      -8.587   3.536 130.243  0.00  0.00    +0.167 C 
ENDROOT
BRANCH   1  11
ATOM      9  C   LIG A   1     -11.132   7.938 129.132  0.00  0.00    +0.163 A 
ATOM     10  C   LIG A   1     -10.170   7.121 129.739  0.00  0.00    +0.055 A 
ATOM     11  C   LIG A   1     -10.445   6.435 130.937  0.00  0.00    -0.015 A 
ATOM     12  C   LIG A   1     -11.719   6.571 131.513  0.00  0.00    +0.010 A 
ATOM     13  C   LIG A   1     -12.687   7.388 130.922  0.00  0.00    +0.050 A 
ATOM     14  C   LIG A   1     -12.389   8.057 129.735  0.00  0.00    +0.173 A 
BRANCH   9  16
ATOM     15  C   LIG A   1     -10.765   7.927 126.781  0.00  0.00    +0.277 C 
ATOM     16  O   LIG A   1     -10.938   8.662 127.985  0.00  0.00    -0.491 OA
ENDBRANCH   9  16
BRANCH  14  17
ATOM     17  O   LIG A   1     -13.264   9.042 129.228  0.00  0.00    -0.422 OA
BRANCH  17  18
ATOM     18  C   LIG A   1     -13.419  10.273 129.869  0.00  0.00    +0.309 C 
ATOM     19  C   LIG A   1     -13.887  11.252 128.823  0.00  0.00    +0.136 C 
ATOM     20  O   LIG A   1     -13.144  10.543 131.021  0.00  0.00    -0.251 OA
ENDBRANCH  17  18
ENDBRANCH  14  17
ENDBRANCH   1  11
BRANCH   6  21
ATOM     21  C   LIG A   1      -6.997   1.995 132.934  0.00  0.00    -0.015 A 
ATOM     22  C   LIG A   1      -7.240   0.736 132.365  0.00  0.00    +0.055 A 
ATOM     23  C   LIG A   1      -6.696  -0.440 132.907  0.00  0.00    +0.162 A 
ATOM     24  C   LIG A   1      -5.879  -0.364 134.044  0.00  0.00    +0.162 A 
ATOM     25  C   LIG A   1      -5.654   0.890 134.633  0.00  0.00    +0.050 A 
ATOM     26  C   LIG A   1      -6.215   2.052 134.091  0.00  0.00    +0.010 A 
BRANCH  23  27
ATOM     27  O   LIG A   1      -7.011  -1.556 132.178  0.00  0.00    -0.491 OA
ATOM     28  C   LIG A   1      -7.875  -1.410 131.060  0.00  0.00    +0.277 C 
ENDBRANCH  23  27
BRANCH  24  29
ATOM     29  O   LIG A   1      -5.247  -1.499 134.482  0.00  0.00    -0.491 OA
ATOM     30  C   LIG A   1      -5.571  -1.913 135.806  0.00  0.00    +0.277 C 
ENDBRANCH  24  29
ENDBRANCH   6  21
TORSDOF 7
ENDMDL
MODEL 7
REMARK VINA RESULT:      -7.0      2.092     10.086
REMARK  Name = NuBBE_2468
REMARK  11 active torsions:
REMARK  status: ('A' for Active; 'I' for Inactive)
REMARK    1  A    between atoms: C_1  and  O_2
REMARK    2  A    between atoms: O_2  and  C_3
REMARK    3  A    between atoms: C_5  and  C_6
REMARK    4  A    between atoms: C_14  and  C_18
REMARK    5  A    between atoms: C_20  and  O_21
REMARK    6  A    between atoms: O_21  and  C_22
REMARK    7  A    between atoms: C_23  and  O_24
REMARK    8  A    between atoms: O_24  and  C_25
REMARK    9  A    between atoms: C_30  and  O_31
REMARK   10  A    between atoms: O_31  and  C_32
REMARK   11  A    between atoms: C_32  and  C_33
REMARK                            x       y       z     vdW  Elec       q    Type
REMARK                         _______ _______ _______ _____ _____    ______ ____
ROOT
ATOM      1  C   LIG A   1      -8.994   4.352 130.812  0.00  0.00    +0.154 C 
ATOM      2  C   LIG A   1      -9.271   3.104 129.965  0.00  0.00    +0.056 C 
ATOM      3  C   LIG A   1      -9.004   1.971 130.920  0.00  0.00    +0.056 C 
ATOM      4  C   LIG A   1      -9.385   2.558 132.258  0.00  0.00    +0.167 C 
ATOM      5  O   LIG A   1      -9.112   3.962 132.194  0.00  0.00    -0.371 OA
ATOM      6  C   LIG A   1      -7.504   1.712 130.755  0.00  0.00    +0.154 C 
ATOM      7  O   LIG A   1      -7.124   2.243 129.469  0.00  0.00    -0.371 OA
ATOM      8  C   LIG A   1      -8.257   2.879 128.868  0.00  0.00    +0.167 C 
ENDROOT
BRANCH   1  11
ATOM      9  C   LIG A   1     -10.490   7.369 129.003  0.00  0.00    +0.163 A 
ATOM     10  C   LIG A   1      -9.677   6.278 129.336  0.00  0.00    +0.055 A 
ATOM     11  C   LIG A   1      -9.920   5.513 130.492  0.00  0.00    -0.015 A 
ATOM     12  C   LIG A   1     -11.011   5.853 131.308  0.00  0.00    +0.010 A 
ATOM     13  C   LIG A   1     -11.827   6.943 130.991  0.00  0.00    +0.050 A 
ATOM     14  C   LIG A   1     -11.565   7.686 129.841  0.00  0.00    +0.173 A 
BRANCH   9  16
ATOM     15  C   LIG A   1     -10.640   7.642 126.644  0.00  0.00    +0.277 C 
ATOM     16  O   LIG A   1     -10.307   8.183 127.916  0.00  0.00    -0.491 OA
ENDBRANCH   9  16
BRANCH  14  17
ATOM     17  O   LIG A   1     -12.236   8.906 129.604  0.00  0.00    -0.422 OA
BRANCH  17  18
ATOM     18  C   LIG A   1     -13.302   8.983 128.705  0.00  0.00    +0.309 C 
ATOM     19  C   LIG A   1     -13.838  10.390 128.787  0.00  0.00    +0.136 C 
ATOM     20  O   LIG A   1     -13.778   8.080 128.047  0.00  0.00    -0.251 OA
ENDBRANCH  17  18
ENDBRANCH  14  17
ENDBRANCH   1  11
BRANCH   6  21
ATOM     21  C   LIG A   1      -7.145   0.244 130.860  0.00  0.00    -0.015 A 
ATOM     22  C   LIG A   1      -5.834  -0.183 131.115  0.00  0.00    +0.055 A 
ATOM     23  C   LIG A   1      -5.509  -1.542 131.250  0.00  0.00    +0.162 A 
ATOM     24  C   LIG A   1      -6.519  -2.508 131.137  0.00  0.00    +0.162 A 
ATOM     25  C   LIG A   1      -7.828  -2.089 130.856  0.00  0.00    +0.050 A 
ATOM     26  C   LIG A   1      -8.134  -0.732 130.708  0.00  0.00    +0.010 A 
BRANCH  23  27
ATOM     27  O   LIG A   1      -4.187  -1.746 131.546  0.00  0.00    -0.491 OA
ATOM     28  C   LIG A   1      -3.259  -1.818 130.472  0.00  0.00    +0.277 C 
ENDBRANCH  23  27
BRANCH  24  29
ATOM     29  O   LIG A   1      -6.214  -3.818 131.404  0.00  0.00    -0.491 OA
ATOM     30  C   LIG A   1      -6.096  -4.155 132.784  0.00  0.00    +0.277 C 
ENDBRANCH  24  29
ENDBRANCH   6  21
TORSDOF 7
ENDMDL
MODEL 8
REMARK VINA RESULT:      -6.8      7.797     12.087
REMARK  Name = NuBBE_2468
REMARK  11 active torsions:
REMARK  status: ('A' for Active; 'I' for Inactive)
REMARK    1  A    between atoms: C_1  and  O_2
REMARK    2  A    between atoms: O_2  and  C_3
REMARK    3  A    between atoms: C_5  and  C_6
REMARK    4  A    between atoms: C_14  and  C_18
REMARK    5  A    between atoms: C_20  and  O_21
REMARK    6  A    between atoms: O_21  and  C_22
REMARK    7  A    between atoms: C_23  and  O_24
REMARK    8  A    between atoms: O_24  and  C_25
REMARK    9  A    between atoms: C_30  and  O_31
REMARK   10  A    between atoms: O_31  and  C_32
REMARK   11  A    between atoms: C_32  and  C_33
REMARK                            x       y       z     vdW  Elec       q    Type
REMARK                         _______ _______ _______ _____ _____    ______ ____
ROOT
ATOM      1  C   LIG A   1      -6.561  -2.360 130.283  0.00  0.00    +0.154 C 
ATOM      2  C   LIG A   1      -5.093  -2.770 130.122  0.00  0.00    +0.056 C 
ATOM      3  C   LIG A   1      -4.746  -3.353 131.465  0.00  0.00    +0.056 C 
ATOM      4  C   LIG A   1      -6.058  -3.940 131.930  0.00  0.00    +0.167 C 
ATOM      5  O   LIG A   1      -7.100  -3.131 131.375  0.00  0.00    -0.371 OA
ATOM      6  C   LIG A   1      -4.285  -2.137 132.274  0.00  0.00    +0.154 C 
ATOM      7  O   LIG A   1      -3.888  -1.127 131.323  0.00  0.00    -0.371 OA
ATOM      8  C   LIG A   1      -4.146  -1.599 129.996  0.00  0.00    +0.167 C 
ENDROOT
BRANCH   1  11
ATOM      9  C   LIG A   1      -8.113  -1.674 126.858  0.00  0.00    +0.163 A 
ATOM     10  C   LIG A   1      -7.362  -1.552 128.033  0.00  0.00    +0.055 A 
ATOM     11  C   LIG A   1      -7.383  -2.555 129.021  0.00  0.00    -0.015 A 
ATOM     12  C   LIG A   1      -8.165  -3.700 128.801  0.00  0.00    +0.010 A 
ATOM     13  C   LIG A   1      -8.925  -3.833 127.635  0.00  0.00    +0.050 A 
ATOM     14  C   LIG A   1      -8.887  -2.825 126.672  0.00  0.00    +0.173 A 
BRANCH   9  16
ATOM     15  C   LIG A   1      -6.971  -0.474 125.150  0.00  0.00    +0.277 C 
ATOM     16  O   LIG A   1      -8.173  -0.735 125.862  0.00  0.00    -0.491 OA
ENDBRANCH   9  16
BRANCH  14  17
ATOM     17  O   LIG A   1      -9.794  -2.832 125.589  0.00  0.00    -0.422 OA
BRANCH  17  18
ATOM     18  C   LIG A   1      -9.390  -3.217 124.309  0.00  0.00    +0.309 C 
ATOM     19  C   LIG A   1      -8.133  -4.032 124.477  0.00  0.00    +0.136 C 
ATOM     20  O   LIG A   1      -9.887  -2.890 123.250  0.00  0.00    -0.251 OA
ENDBRANCH  17  18
ENDBRANCH  14  17
ENDBRANCH   1  11
BRANCH   6  21
ATOM     21  C   LIG A   1      -3.150  -2.458 133.224  0.00  0.00    -0.015 A 
ATOM     22  C   LIG A   1      -2.959  -3.747 133.743  0.00  0.00    +0.055 A 
ATOM     23  C   LIG A   1      -1.884  -4.053 134.593  0.00  0.00    +0.162 A 
ATOM     24  C   LIG A   1      -0.965  -3.050 134.932  0.00  0.00    +0.162 A 
ATOM     25  C   LIG A   1      -1.165  -1.752 134.437  0.00  0.00    +0.050 A 
ATOM     26  C   LIG A   1      -2.249  -1.459 133.603  0.00  0.00    +0.010 A 
BRANCH  23  27
ATOM     27  O   LIG A   1      -1.847  -5.375 134.950  0.00  0.00    -0.491 OA
ATOM     28  C   LIG A   1      -2.589  -6.304 134.171  0.00  0.00    +0.277 C 
ENDBRANCH  23  27
BRANCH  24  29
ATOM     29  O   LIG A   1       0.152  -3.392 135.652  0.00  0.00    -0.491 OA
ATOM     30  C   LIG A   1       0.201  -2.894 136.986  0.00  0.00    +0.277 C 
ENDBRANCH  24  29
ENDBRANCH   6  21
TORSDOF 7
ENDMDL
MODEL 9
REMARK VINA RESULT:      -6.8      5.969     11.861
REMARK  Name = NuBBE_2468
REMARK  11 active torsions:
REMARK  status: ('A' for Active; 'I' for Inactive)
REMARK    1  A    between atoms: C_1  and  O_2
REMARK    2  A    between atoms: O_2  and  C_3
REMARK    3  A    between atoms: C_5  and  C_6
REMARK    4  A    between atoms: C_14  and  C_18
REMARK    5  A    between atoms: C_20  and  O_21
REMARK    6  A    between atoms: O_21  and  C_22
REMARK    7  A    between atoms: C_23  and  O_24
REMARK    8  A    between atoms: O_24  and  C_25
REMARK    9  A    between atoms: C_30  and  O_31
REMARK   10  A    between atoms: O_31  and  C_32
REMARK   11  A    between atoms: C_32  and  C_33
REMARK                            x       y       z     vdW  Elec       q    Type
REMARK                         _______ _______ _______ _____ _____    ______ ____
ROOT
ATOM      1  C   LIG A   1      -6.995  -2.429 128.014  0.00  0.00    +0.154 C 
ATOM      2  C   LIG A   1      -6.908  -1.865 129.437  0.00  0.00    +0.056 C 
ATOM      3  C   LIG A   1      -5.521  -2.248 129.878  0.00  0.00    +0.056 C 
ATOM      4  C   LIG A   1      -4.737  -2.232 128.587  0.00  0.00    +0.167 C 
ATOM      5  O   LIG A   1      -5.644  -2.597 127.541  0.00  0.00    -0.371 OA
ATOM      6  C   LIG A   1      -5.710  -3.645 130.477  0.00  0.00    +0.154 C 
ATOM      7  O   LIG A   1      -7.103  -3.763 130.834  0.00  0.00    -0.371 OA
ATOM      8  C   LIG A   1      -7.797  -2.579 130.427  0.00  0.00    +0.167 C 
ENDROOT
BRANCH   1  11
ATOM      9  C   LIG A   1      -8.678   0.666 126.529  0.00  0.00    +0.163 A 
ATOM     10  C   LIG A   1      -7.935  -0.183 127.359  0.00  0.00    +0.055 A 
ATOM     11  C   LIG A   1      -7.798  -1.553 127.068  0.00  0.00    -0.015 A 
ATOM     12  C   LIG A   1      -8.412  -2.060 125.911  0.00  0.00    +0.010 A 
ATOM     13  C   LIG A   1      -9.162  -1.226 125.077  0.00  0.00    +0.050 A 
ATOM     14  C   LIG A   1      -9.283   0.128 125.388  0.00  0.00    +0.173 A 
BRANCH   9  16
ATOM     15  C   LIG A   1      -7.768   2.864 126.585  0.00  0.00    +0.277 C 
ATOM     16  O   LIG A   1      -8.886   2.001 126.755  0.00  0.00    -0.491 OA
ENDBRANCH   9  16
BRANCH  14  17
ATOM     17  O   LIG A   1     -10.195   0.948 124.687  0.00  0.00    -0.422 OA
BRANCH  17  18
ATOM     18  C   LIG A   1     -10.153   1.052 123.295  0.00  0.00    +0.309 C 
ATOM     19  C   LIG A   1      -9.152   2.131 122.970  0.00  0.00    +0.136 C 
ATOM     20  O   LIG A   1     -10.847   0.463 122.491  0.00  0.00    -0.251 OA
ENDBRANCH  17  18
ENDBRANCH  14  17
ENDBRANCH   1  11
BRANCH   6  21
ATOM     21  C   LIG A   1      -4.822  -3.896 131.678  0.00  0.00    -0.015 A 
ATOM     22  C   LIG A   1      -3.833  -2.983 132.073  0.00  0.00    +0.055 A 
ATOM     23  C   LIG A   1      -3.037  -3.198 133.209  0.00  0.00    +0.162 A 
ATOM     24  C   LIG A   1      -3.234  -4.351 133.982  0.00  0.00    +0.162 A 
ATOM     25  C   LIG A   1      -4.204  -5.281 133.577  0.00  0.00    +0.050 A 
ATOM     26  C   LIG A   1      -4.979  -5.061 132.434  0.00  0.00    +0.010 A 
BRANCH  23  27
ATOM     27  O   LIG A   1      -2.167  -2.169 133.451  0.00  0.00    -0.491 OA
ATOM     28  C   LIG A   1      -2.698  -0.924 133.885  0.00  0.00    +0.277 C 
ENDBRANCH  23  27
BRANCH  24  29
ATOM     29  O   LIG A   1      -2.544  -4.483 135.161  0.00  0.00    -0.491 OA
ATOM     30  C   LIG A   1      -3.006  -5.509 136.034  0.00  0.00    +0.277 C 
ENDBRANCH  24  29
ENDBRANCH   6  21
TORSDOF 7
ENDMDL
