MODEL 1
REMARK VINA RESULT:      -6.8      0.000      0.000
REMARK  Name = NuBBE_1922
REMARK  3 active torsions:
REMARK  status: ('A' for Active; 'I' for Inactive)
REMARK    1  A    between atoms: C_1  and  C_2
REMARK    2  A    between atoms: C_11  and  C_13
REMARK    3  A    between atoms: C_13  and  C_14
REMARK                            x       y       z     vdW  Elec       q    Type
REMARK                         _______ _______ _______ _____ _____    ______ ____
ROOT
ATOM      1  C   LIG A   1      -8.198  -4.048 124.808  0.00  0.00    +0.012 C 
ATOM      2  C   LIG A   1      -8.000  -2.521 124.983  0.00  0.00    -0.025 C 
ATOM      3  C   LIG A   1      -6.492  -2.123 125.027  0.00  0.00    +0.021 C 
ATOM      4  C   LIG A   1      -5.826  -2.422 123.690  0.00  0.00    -0.073 C 
ATOM      5  C   LIG A   1      -6.479  -1.714 122.523  0.00  0.00    +0.030 C 
ATOM      6  C   LIG A   1      -7.976  -2.016 122.453  0.00  0.00    +0.005 C 
ATOM      7  C   LIG A   1      -8.680  -1.786 123.794  0.00  0.00    +0.007 C 
ATOM      8  C   LIG A   1      -4.767  -3.227 123.505  0.00  0.00    +0.008 C 
ATOM      9  C   LIG A   1      -5.782  -2.675 126.281  0.00  0.00    +0.016 C 
ATOM     10  C   LIG A   1      -6.481  -2.214 127.576  0.00  0.00    +0.015 C 
ATOM     11  C   LIG A   1      -7.975  -2.593 127.554  0.00  0.00    +0.008 C 
ATOM     12  C   LIG A   1      -8.678  -2.068 126.300  0.00  0.00    +0.008 C 
ENDROOT
BRANCH  10  13
ATOM     13  C   LIG A   1      -5.715  -2.696 128.807  0.00  0.00    -0.077 C 
ATOM     14  C   LIG A   1      -6.546  -3.405 129.848  0.00  0.00    +0.038 C 
ATOM     15  C   LIG A   1      -4.393  -2.545 128.994  0.00  0.00    +0.007 C 
ENDBRANCH  10  13
TORSDOF 1
ENDMDL
MODEL 2
REMARK VINA RESULT:      -6.8     10.055     11.188
REMARK  Name = NuBBE_1922
REMARK  3 active torsions:
REMARK  status: ('A' for Active; 'I' for Inactive)
REMARK    1  A    between atoms: C_1  and  C_2
REMARK    2  A    between atoms: C_11  and  C_13
REMARK    3  A    between atoms: C_13  and  C_14
REMARK                            x       y       z     vdW  Elec       q    Type
REMARK                         _______ _______ _______ _____ _____    ______ ____
ROOT
ATOM      1  C   LIG A   1     -11.585   5.087 130.166  0.00  0.00    +0.012 C 
ATOM      2  C   LIG A   1     -11.429   6.477 130.834  0.00  0.00    -0.025 C 
ATOM      3  C   LIG A   1     -10.462   7.409 130.040  0.00  0.00    +0.021 C 
ATOM      4  C   LIG A   1     -11.043   7.732 128.669  0.00  0.00    -0.073 C 
ATOM      5  C   LIG A   1     -12.404   8.390 128.735  0.00  0.00    +0.030 C 
ATOM      6  C   LIG A   1     -13.391   7.553 129.549  0.00  0.00    +0.005 C 
ATOM      7  C   LIG A   1     -12.826   7.154 130.916  0.00  0.00    +0.007 C 
ATOM      8  C   LIG A   1     -10.454   7.476 127.489  0.00  0.00    +0.008 C 
ATOM      9  C   LIG A   1      -9.009   6.890 130.060  0.00  0.00    +0.016 C 
ATOM     10  C   LIG A   1      -8.493   6.708 131.502  0.00  0.00    +0.015 C 
ATOM     11  C   LIG A   1      -9.436   5.794 132.308  0.00  0.00    +0.008 C 
ATOM     12  C   LIG A   1     -10.883   6.291 132.272  0.00  0.00    +0.008 C 
ENDROOT
BRANCH  10  13
ATOM     13  C   LIG A   1      -7.027   6.279 131.503  0.00  0.00    -0.077 C 
ATOM     14  C   LIG A   1      -6.750   4.929 132.119  0.00  0.00    +0.038 C 
ATOM     15  C   LIG A   1      -6.017   7.001 130.987  0.00  0.00    +0.007 C 
ENDBRANCH  10  13
TORSDOF 1
ENDMDL
MODEL 3
REMARK VINA RESULT:      -6.2      2.933      4.671
REMARK  Name = NuBBE_1922
REMARK  3 active torsions:
REMARK  status: ('A' for Active; 'I' for Inactive)
REMARK    1  A    between atoms: C_1  and  C_2
REMARK    2  A    between atoms: C_11  and  C_13
REMARK    3  A    between atoms: C_13  and  C_14
REMARK                            x       y       z     vdW  Elec       q    Type
REMARK                         _______ _______ _______ _____ _____    ______ ____
ROOT
ATOM      1  C   LIG A   1      -8.246   0.722 126.194  0.00  0.00    +0.012 C 
ATOM      2  C   LIG A   1      -7.162   1.118 125.160  0.00  0.00    -0.025 C 
ATOM      3  C   LIG A   1      -7.468   0.555 123.738  0.00  0.00    +0.021 C 
ATOM      4  C   LIG A   1      -8.742   1.183 123.183  0.00  0.00    -0.073 C 
ATOM      5  C   LIG A   1      -8.681   2.693 123.104  0.00  0.00    +0.030 C 
ATOM      6  C   LIG A   1      -8.328   3.310 124.457  0.00  0.00    +0.005 C 
ATOM      7  C   LIG A   1      -7.085   2.669 125.083  0.00  0.00    +0.007 C 
ATOM      8  C   LIG A   1      -9.839   0.513 122.794  0.00  0.00    +0.008 C 
ATOM      9  C   LIG A   1      -7.392  -0.985 123.694  0.00  0.00    +0.016 C 
ATOM     10  C   LIG A   1      -6.018  -1.496 124.173  0.00  0.00    +0.015 C 
ATOM     11  C   LIG A   1      -5.691  -0.950 125.576  0.00  0.00    +0.008 C 
ATOM     12  C   LIG A   1      -5.789   0.576 125.631  0.00  0.00    +0.008 C 
ENDROOT
BRANCH  10  13
ATOM     13  C   LIG A   1      -5.929  -3.016 124.039  0.00  0.00    -0.077 C 
ATOM     14  C   LIG A   1      -7.205  -3.766 124.337  0.00  0.00    +0.038 C 
ATOM     15  C   LIG A   1      -4.828  -3.689 123.666  0.00  0.00    +0.007 C 
ENDBRANCH  10  13
TORSDOF 1
ENDMDL
MODEL 4
REMARK VINA RESULT:      -6.2      2.773      5.031
REMARK  Name = NuBBE_1922
REMARK  3 active torsions:
REMARK  status: ('A' for Active; 'I' for Inactive)
REMARK    1  A    between atoms: C_1  and  C_2
REMARK    2  A    between atoms: C_11  and  C_13
REMARK    3  A    between atoms: C_13  and  C_14
REMARK                            x       y       z     vdW  Elec       q    Type
REMARK                         _______ _______ _______ _____ _____    ______ ____
ROOT
ATOM      1  C   LIG A   1      -7.412  -0.739 126.553  0.00  0.00    +0.012 C 
ATOM      2  C   LIG A   1      -8.528  -1.006 125.512  0.00  0.00    -0.025 C 
ATOM      3  C   LIG A   1      -7.962  -1.171 124.068  0.00  0.00    +0.021 C 
ATOM      4  C   LIG A   1      -7.085  -2.415 123.982  0.00  0.00    -0.073 C 
ATOM      5  C   LIG A   1      -7.809  -3.687 124.367  0.00  0.00    +0.030 C 
ATOM      6  C   LIG A   1      -8.439  -3.573 125.755  0.00  0.00    +0.005 C 
ATOM      7  C   LIG A   1      -9.285  -2.305 125.908  0.00  0.00    +0.007 C 
ATOM      8  C   LIG A   1      -5.793  -2.438 123.614  0.00  0.00    +0.008 C 
ATOM      9  C   LIG A   1      -7.343   0.137 123.533  0.00  0.00    +0.016 C 
ATOM     10  C   LIG A   1      -8.359   1.297 123.565  0.00  0.00    +0.015 C 
ATOM     11  C   LIG A   1      -8.937   1.478 124.982  0.00  0.00    +0.008 C 
ATOM     12  C   LIG A   1      -9.530   0.176 125.526  0.00  0.00    +0.008 C 
ENDROOT
BRANCH  10  13
ATOM     13  C   LIG A   1      -7.759   2.560 122.950  0.00  0.00    -0.077 C 
ATOM     14  C   LIG A   1      -8.577   3.195 121.852  0.00  0.00    +0.038 C 
ATOM     15  C   LIG A   1      -6.601   3.123 123.333  0.00  0.00    +0.007 C 
ENDBRANCH  10  13
TORSDOF 1
ENDMDL
MODEL 5
REMARK VINA RESULT:      -6.1      2.933      4.943
REMARK  Name = NuBBE_1922
REMARK  3 active torsions:
REMARK  status: ('A' for Active; 'I' for Inactive)
REMARK    1  A    between atoms: C_1  and  C_2
REMARK    2  A    between atoms: C_11  and  C_13
REMARK    3  A    between atoms: C_13  and  C_14
REMARK                            x       y       z     vdW  Elec       q    Type
REMARK                         _______ _______ _______ _____ _____    ______ ____
ROOT
ATOM      1  C   LIG A   1      -9.193  -0.831 125.486  0.00  0.00    +0.012 C 
ATOM      2  C   LIG A   1      -8.711  -1.066 124.032  0.00  0.00    -0.025 C 
ATOM      3  C   LIG A   1      -7.170  -0.874 123.881  0.00  0.00    +0.021 C 
ATOM      4  C   LIG A   1      -6.424  -1.933 124.683  0.00  0.00    -0.073 C 
ATOM      5  C   LIG A   1      -6.777  -3.349 124.282  0.00  0.00    +0.030 C 
ATOM      6  C   LIG A   1      -8.285  -3.590 124.352  0.00  0.00    +0.005 C 
ATOM      7  C   LIG A   1      -9.082  -2.515 123.607  0.00  0.00    +0.007 C 
ATOM      8  C   LIG A   1      -5.536  -1.692 125.662  0.00  0.00    +0.008 C 
ATOM      9  C   LIG A   1      -6.741   0.589 124.119  0.00  0.00    +0.016 C 
ATOM     10  C   LIG A   1      -7.482   1.556 123.173  0.00  0.00    +0.015 C 
ATOM     11  C   LIG A   1      -9.008   1.382 123.300  0.00  0.00    +0.008 C 
ATOM     12  C   LIG A   1      -9.436  -0.072 123.089  0.00  0.00    +0.008 C 
ENDROOT
BRANCH  10  13
ATOM     13  C   LIG A   1      -6.982   2.987 123.361  0.00  0.00    -0.077 C 
ATOM     14  C   LIG A   1      -7.468   3.683 124.609  0.00  0.00    +0.038 C 
ATOM     15  C   LIG A   1      -6.151   3.625 122.518  0.00  0.00    +0.007 C 
ENDBRANCH  10  13
TORSDOF 1
ENDMDL
MODEL 6
REMARK VINA RESULT:      -6.1      0.851      4.955
REMARK  Name = NuBBE_1922
REMARK  3 active torsions:
REMARK  status: ('A' for Active; 'I' for Inactive)
REMARK    1  A    between atoms: C_1  and  C_2
REMARK    2  A    between atoms: C_11  and  C_13
REMARK    3  A    between atoms: C_13  and  C_14
REMARK                            x       y       z     vdW  Elec       q    Type
REMARK                         _______ _______ _______ _____ _____    ______ ____
ROOT
ATOM      1  C   LIG A   1      -7.908  -0.895 127.892  0.00  0.00    +0.012 C 
ATOM      2  C   LIG A   1      -7.862  -2.433 127.717  0.00  0.00    -0.025 C 
ATOM      3  C   LIG A   1      -6.406  -2.964 127.537  0.00  0.00    +0.021 C 
ATOM      4  C   LIG A   1      -5.594  -2.722 128.804  0.00  0.00    -0.073 C 
ATOM      5  C   LIG A   1      -6.196  -3.365 130.034  0.00  0.00    +0.030 C 
ATOM      6  C   LIG A   1      -7.647  -2.931 130.239  0.00  0.00    +0.005 C 
ATOM      7  C   LIG A   1      -8.491  -3.102 128.972  0.00  0.00    +0.007 C 
ATOM      8  C   LIG A   1      -4.456  -2.013 128.881  0.00  0.00    +0.008 C 
ATOM      9  C   LIG A   1      -5.770  -2.481 126.217  0.00  0.00    +0.016 C 
ATOM     10  C   LIG A   1      -6.625  -2.882 124.998  0.00  0.00    +0.015 C 
ATOM     11  C   LIG A   1      -8.071  -2.372 125.154  0.00  0.00    +0.008 C 
ATOM     12  C   LIG A   1      -8.698  -2.829 126.473  0.00  0.00    +0.008 C 
ENDROOT
BRANCH  10  13
ATOM     13  C   LIG A   1      -5.938  -2.474 123.696  0.00  0.00    -0.077 C 
ATOM     14  C   LIG A   1      -4.644  -3.193 123.397  0.00  0.00    +0.038 C 
ATOM     15  C   LIG A   1      -6.414  -1.563 122.831  0.00  0.00    +0.007 C 
ENDBRANCH  10  13
TORSDOF 1
ENDMDL
MODEL 7
REMARK VINA RESULT:      -6.1      9.685     11.780
REMARK  Name = NuBBE_1922
REMARK  3 active torsions:
REMARK  status: ('A' for Active; 'I' for Inactive)
REMARK    1  A    between atoms: C_1  and  C_2
REMARK    2  A    between atoms: C_11  and  C_13
REMARK    3  A    between atoms: C_13  and  C_14
REMARK                            x       y       z     vdW  Elec       q    Type
REMARK                         _______ _______ _______ _____ _____    ______ ____
ROOT
ATOM      1  C   LIG A   1      -7.602   4.681 130.751  0.00  0.00    +0.012 C 
ATOM      2  C   LIG A   1      -7.734   5.947 131.635  0.00  0.00    -0.025 C 
ATOM      3  C   LIG A   1      -8.871   5.812 132.694  0.00  0.00    +0.021 C 
ATOM      4  C   LIG A   1      -8.536   4.710 133.693  0.00  0.00    -0.073 C 
ATOM      5  C   LIG A   1      -7.225   4.934 134.415  0.00  0.00    +0.030 C 
ATOM      6  C   LIG A   1      -6.071   5.131 133.431  0.00  0.00    +0.005 C 
ATOM      7  C   LIG A   1      -6.386   6.191 132.370  0.00  0.00    +0.007 C 
ATOM      8  C   LIG A   1      -9.288   3.626 133.943  0.00  0.00    +0.008 C 
ATOM      9  C   LIG A   1     -10.267   5.740 132.042  0.00  0.00    +0.016 C 
ATOM     10  C   LIG A   1     -10.535   6.964 131.143  0.00  0.00    +0.015 C 
ATOM     11  C   LIG A   1      -9.422   7.122 130.089  0.00  0.00    +0.008 C 
ATOM     12  C   LIG A   1      -8.032   7.169 130.730  0.00  0.00    +0.008 C 
ENDROOT
BRANCH  10  13
ATOM     13  C   LIG A   1     -11.953   6.920 130.577  0.00  0.00    -0.077 C 
ATOM     14  C   LIG A   1     -12.996   7.647 131.392  0.00  0.00    +0.038 C 
ATOM     15  C   LIG A   1     -12.303   6.313 129.430  0.00  0.00    +0.007 C 
ENDBRANCH  10  13
TORSDOF 1
ENDMDL
MODEL 8
REMARK VINA RESULT:      -6.0      2.450      5.366
REMARK  Name = NuBBE_1922
REMARK  3 active torsions:
REMARK  status: ('A' for Active; 'I' for Inactive)
REMARK    1  A    between atoms: C_1  and  C_2
REMARK    2  A    between atoms: C_11  and  C_13
REMARK    3  A    between atoms: C_13  and  C_14
REMARK                            x       y       z     vdW  Elec       q    Type
REMARK                         _______ _______ _______ _____ _____    ______ ____
ROOT
ATOM      1  C   LIG A   1      -6.308  -1.312 126.910  0.00  0.00    +0.012 C 
ATOM      2  C   LIG A   1      -7.720  -1.110 127.515  0.00  0.00    -0.025 C 
ATOM      3  C   LIG A   1      -8.850  -1.584 126.549  0.00  0.00    +0.021 C 
ATOM      4  C   LIG A   1      -8.764  -3.090 126.333  0.00  0.00    -0.073 C 
ATOM      5  C   LIG A   1      -8.857  -3.887 127.616  0.00  0.00    +0.030 C 
ATOM      6  C   LIG A   1      -7.810  -3.433 128.633  0.00  0.00    +0.005 C 
ATOM      7  C   LIG A   1      -7.820  -1.915 128.841  0.00  0.00    +0.007 C 
ATOM      8  C   LIG A   1      -8.615  -3.703 125.147  0.00  0.00    +0.008 C 
ATOM      9  C   LIG A   1      -8.930  -0.716 125.277  0.00  0.00    +0.016 C 
ATOM     10  C   LIG A   1      -9.128   0.774 125.620  0.00  0.00    +0.015 C 
ATOM     11  C   LIG A   1      -8.026   1.266 126.578  0.00  0.00    +0.008 C 
ATOM     12  C   LIG A   1      -7.927   0.393 127.831  0.00  0.00    +0.008 C 
ENDROOT
BRANCH  10  13
ATOM     13  C   LIG A   1      -9.293   1.606 124.350  0.00  0.00    -0.077 C 
ATOM     14  C   LIG A   1      -8.668   2.980 124.392  0.00  0.00    +0.038 C 
ATOM     15  C   LIG A   1      -9.922   1.190 123.237  0.00  0.00    +0.007 C 
ENDBRANCH  10  13
TORSDOF 1
ENDMDL
MODEL 9
REMARK VINA RESULT:      -5.9      1.866      5.451
REMARK  Name = NuBBE_1922
REMARK  3 active torsions:
REMARK  status: ('A' for Active; 'I' for Inactive)
REMARK    1  A    between atoms: C_1  and  C_2
REMARK    2  A    between atoms: C_11  and  C_13
REMARK    3  A    between atoms: C_13  and  C_14
REMARK                            x       y       z     vdW  Elec       q    Type
REMARK                         _______ _______ _______ _____ _____    ______ ____
ROOT
ATOM      1  C   LIG A   1      -5.990  -0.541 127.850  0.00  0.00    +0.012 C 
ATOM      2  C   LIG A   1      -7.526  -0.554 128.054  0.00  0.00    -0.025 C 
ATOM      3  C   LIG A   1      -8.084  -1.999 128.246  0.00  0.00    +0.021 C 
ATOM      4  C   LIG A   1      -7.545  -2.607 129.535  0.00  0.00    -0.073 C 
ATOM      5  C   LIG A   1      -7.875  -1.792 130.767  0.00  0.00    +0.030 C 
ATOM      6  C   LIG A   1      -7.404  -0.345 130.622  0.00  0.00    +0.005 C 
ATOM      7  C   LIG A   1      -7.875   0.292 129.310  0.00  0.00    +0.007 C 
ATOM      8  C   LIG A   1      -6.837  -3.745 129.627  0.00  0.00    +0.008 C 
ATOM      9  C   LIG A   1      -7.931  -2.855 126.972  0.00  0.00    +0.016 C 
ATOM     10  C   LIG A   1      -8.613  -2.190 125.759  0.00  0.00    +0.015 C 
ATOM     11  C   LIG A   1      -8.081  -0.758 125.550  0.00  0.00    +0.008 C 
ATOM     12  C   LIG A   1      -8.208   0.088 126.819  0.00  0.00    +0.008 C 
ENDROOT
BRANCH  10  13
ATOM     13  C   LIG A   1      -8.528  -3.091 124.528  0.00  0.00    -0.077 C 
ATOM     14  C   LIG A   1      -7.196  -3.767 124.313  0.00  0.00    +0.038 C 
ATOM     15  C   LIG A   1      -9.542  -3.321 123.675  0.00  0.00    +0.007 C 
ENDBRANCH  10  13
TORSDOF 1
ENDMDL
