MODEL 1
REMARK VINA RESULT:      -7.1      0.000      0.000
REMARK  Name = NuBBE_2041
REMARK  12 active torsions:
REMARK  status: ('A' for Active; 'I' for Inactive)
REMARK    1  A    between atoms: C_1  and  C_2
REMARK    2  A    between atoms: C_1  and  C_4
REMARK    3  A    between atoms: C_9  and  O_11
REMARK    4  A    between atoms: O_11  and  C_12
REMARK    5  A    between atoms: C_14  and  C_19
REMARK    6  A    between atoms: C_16  and  C_18
REMARK    7  A    between atoms: C_21  and  O_22
REMARK    8  A    between atoms: O_22  and  C_23
REMARK    9  A    between atoms: C_24  and  O_29
REMARK   10  A    between atoms: C_25  and  O_27
REMARK   11  A    between atoms: O_27  and  C_28
REMARK   12  A    between atoms: O_29  and  C_30
REMARK                            x       y       z     vdW  Elec       q    Type
REMARK                         _______ _______ _______ _____ _____    ______ ____
ROOT
ATOM      1  C   LIG A   1      -6.842  -2.821 130.065  0.00  0.00    +0.059 C 
ATOM      2  C   LIG A   1      -6.134  -1.536 129.738  0.00  0.00    +0.113 C 
ATOM      3  C   LIG A   1      -5.845  -0.583 130.620  0.00  0.00    +0.096 C 
ATOM      4  C   LIG A   1      -6.269  -0.727 132.040  0.00  0.00    +0.223 C 
ATOM      5  O   LIG A   1      -5.848   0.052 132.885  0.00  0.00    -0.284 OA
ATOM      6  C   LIG A   1      -7.266  -1.823 132.350  0.00  0.00    +0.164 C 
ATOM      7  C   LIG A   1      -7.511  -2.770 131.406  0.00  0.00    +0.038 C 
ATOM      8  O   LIG A   1      -6.023  -1.298 128.379  0.00  0.00    -0.487 OA
ATOM      9  C   LIG A   1      -7.035  -2.131 127.770  0.00  0.00    +0.207 C 
ATOM     10  C   LIG A   1      -7.869  -2.740 128.913  0.00  0.00    +0.049 C 
ATOM     11  C   LIG A   1      -8.564  -4.026 128.483  0.00  0.00    +0.013 C 
ENDROOT
BRANCH   9  12
ATOM     12  C   LIG A   1      -7.829  -1.305 126.781  0.00  0.00    +0.000 A 
ATOM     13  C   LIG A   1      -8.331  -1.905 125.620  0.00  0.00    +0.057 A 
ATOM     14  C   LIG A   1      -9.049  -1.166 124.671  0.00  0.00    +0.166 A 
ATOM     15  C   LIG A   1      -9.296   0.207 124.879  0.00  0.00    +0.203 A 
ATOM     16  C   LIG A   1      -8.829   0.812 126.065  0.00  0.00    +0.166 A 
ATOM     17  C   LIG A   1      -8.087   0.056 126.989  0.00  0.00    +0.057 A 
BRANCH  14  18
ATOM     18  O   LIG A   1      -9.630  -1.772 123.587  0.00  0.00    -0.491 OA
ATOM     19  C   LIG A   1      -9.461  -3.176 123.453  0.00  0.00    +0.277 C 
ENDBRANCH  14  18
BRANCH  16  20
ATOM     20  O   LIG A   1      -8.995   2.110 126.486  0.00  0.00    -0.491 OA
ATOM     21  C   LIG A   1      -7.888   2.996 126.401  0.00  0.00    +0.277 C 
ENDBRANCH  16  20
BRANCH  15  22
ATOM     22  O   LIG A   1     -10.056   0.969 124.026  0.00  0.00    -0.488 OA
ATOM     23  C   LIG A   1      -9.387   1.751 123.045  0.00  0.00    +0.277 C 
ENDBRANCH  15  22
ENDBRANCH   9  12
BRANCH   6  24
ATOM     24  O   LIG A   1      -7.873  -1.783 133.593  0.00  0.00    -0.492 OA
ATOM     25  C   LIG A   1      -8.219  -3.038 134.170  0.00  0.00    +0.277 C 
ENDBRANCH   6  24
BRANCH   1  26
ATOM     26  C   LIG A   1      -5.869  -4.051 130.005  0.00  0.00    +0.045 C 
BRANCH  26  27
ATOM     27  C   LIG A   1      -4.397  -3.743 130.234  0.00  0.00    -0.033 C 
ATOM     28  C   LIG A   1      -3.417  -3.734 129.317  0.00  0.00    +0.004 C 
ENDBRANCH  26  27
ENDBRANCH   1  26
TORSDOF 7
ENDMDL
MODEL 2
REMARK VINA RESULT:      -7.0      0.366      2.465
REMARK  Name = NuBBE_2041
REMARK  12 active torsions:
REMARK  status: ('A' for Active; 'I' for Inactive)
REMARK    1  A    between atoms: C_1  and  C_2
REMARK    2  A    between atoms: C_1  and  C_4
REMARK    3  A    between atoms: C_9  and  O_11
REMARK    4  A    between atoms: O_11  and  C_12
REMARK    5  A    between atoms: C_14  and  C_19
REMARK    6  A    between atoms: C_16  and  C_18
REMARK    7  A    between atoms: C_21  and  O_22
REMARK    8  A    between atoms: O_22  and  C_23
REMARK    9  A    between atoms: C_24  and  O_29
REMARK   10  A    between atoms: C_25  and  O_27
REMARK   11  A    between atoms: O_27  and  C_28
REMARK   12  A    between atoms: O_29  and  C_30
REMARK                            x       y       z     vdW  Elec       q    Type
REMARK                         _______ _______ _______ _____ _____    ______ ____
ROOT
ATOM      1  C   LIG A   1      -6.869  -2.785 130.150  0.00  0.00    +0.059 C 
ATOM      2  C   LIG A   1      -6.132  -1.498 129.906  0.00  0.00    +0.113 C 
ATOM      3  C   LIG A   1      -5.822  -0.611 130.848  0.00  0.00    +0.096 C 
ATOM      4  C   LIG A   1      -6.250  -0.837 132.256  0.00  0.00    +0.223 C 
ATOM      5  O   LIG A   1      -5.811  -0.124 133.149  0.00  0.00    -0.284 OA
ATOM      6  C   LIG A   1      -7.271  -1.928 132.496  0.00  0.00    +0.164 C 
ATOM      7  C   LIG A   1      -7.537  -2.807 131.493  0.00  0.00    +0.038 C 
ATOM      8  O   LIG A   1      -6.016  -1.175 128.565  0.00  0.00    -0.487 OA
ATOM      9  C   LIG A   1      -7.046  -1.945 127.905  0.00  0.00    +0.207 C 
ATOM     10  C   LIG A   1      -7.893  -2.608 129.007  0.00  0.00    +0.049 C 
ATOM     11  C   LIG A   1      -8.617  -3.847 128.495  0.00  0.00    +0.013 C 
ENDROOT
BRANCH   9  12
ATOM     12  C   LIG A   1      -7.821  -1.039 126.972  0.00  0.00    +0.000 A 
ATOM     13  C   LIG A   1      -8.001   0.309 127.303  0.00  0.00    +0.057 A 
ATOM     14  C   LIG A   1      -8.734   1.171 126.476  0.00  0.00    +0.166 A 
ATOM     15  C   LIG A   1      -9.296   0.692 125.274  0.00  0.00    +0.203 A 
ATOM     16  C   LIG A   1      -9.087  -0.655 124.911  0.00  0.00    +0.166 A 
ATOM     17  C   LIG A   1      -8.371  -1.505 125.771  0.00  0.00    +0.057 A 
BRANCH  14  18
ATOM     18  O   LIG A   1      -8.823   2.512 126.745  0.00  0.00    -0.491 OA
ATOM     19  C   LIG A   1      -7.668   3.305 126.507  0.00  0.00    +0.277 C 
ENDBRANCH  14  18
BRANCH  16  20
ATOM     20  O   LIG A   1      -9.501  -1.309 123.776  0.00  0.00    -0.491 OA
ATOM     21  C   LIG A   1      -9.121  -2.666 123.599  0.00  0.00    +0.277 C 
ENDBRANCH  16  20
BRANCH  15  22
ATOM     22  O   LIG A   1      -9.960   1.502 124.385  0.00  0.00    -0.488 OA
ATOM     23  C   LIG A   1      -9.223   2.066 123.308  0.00  0.00    +0.277 C 
ENDBRANCH  15  22
ENDBRANCH   9  12
BRANCH   6  24
ATOM     24  O   LIG A   1      -7.877  -1.956 133.739  0.00  0.00    -0.492 OA
ATOM     25  C   LIG A   1      -8.270  -3.235 134.225  0.00  0.00    +0.277 C 
ENDBRANCH   6  24
BRANCH   1  26
ATOM     26  C   LIG A   1      -5.923  -4.030 130.010  0.00  0.00    +0.045 C 
BRANCH  26  27
ATOM     27  C   LIG A   1      -4.437  -3.755 130.179  0.00  0.00    -0.033 C 
ATOM     28  C   LIG A   1      -3.503  -3.719 129.217  0.00  0.00    +0.004 C 
ENDBRANCH  26  27
ENDBRANCH   1  26
TORSDOF 7
ENDMDL
MODEL 3
REMARK VINA RESULT:      -7.0      3.578      6.991
REMARK  Name = NuBBE_2041
REMARK  12 active torsions:
REMARK  status: ('A' for Active; 'I' for Inactive)
REMARK    1  A    between atoms: C_1  and  C_2
REMARK    2  A    between atoms: C_1  and  C_4
REMARK    3  A    between atoms: C_9  and  O_11
REMARK    4  A    between atoms: O_11  and  C_12
REMARK    5  A    between atoms: C_14  and  C_19
REMARK    6  A    between atoms: C_16  and  C_18
REMARK    7  A    between atoms: C_21  and  O_22
REMARK    8  A    between atoms: O_22  and  C_23
REMARK    9  A    between atoms: C_24  and  O_29
REMARK   10  A    between atoms: C_25  and  O_27
REMARK   11  A    between atoms: O_27  and  C_28
REMARK   12  A    between atoms: O_29  and  C_30
REMARK                            x       y       z     vdW  Elec       q    Type
REMARK                         _______ _______ _______ _____ _____    ______ ____
ROOT
ATOM      1  C   LIG A   1      -6.519  -1.685 125.824  0.00  0.00    +0.059 C 
ATOM      2  C   LIG A   1      -7.029  -0.684 124.826  0.00  0.00    +0.113 C 
ATOM      3  C   LIG A   1      -6.845  -0.762 123.510  0.00  0.00    +0.096 C 
ATOM      4  C   LIG A   1      -6.045  -1.878 122.934  0.00  0.00    +0.223 C 
ATOM      5  O   LIG A   1      -6.030  -2.056 121.723  0.00  0.00    -0.284 OA
ATOM      6  C   LIG A   1      -5.234  -2.712 123.902  0.00  0.00    +0.164 C 
ATOM      7  C   LIG A   1      -5.478  -2.589 125.234  0.00  0.00    +0.038 C 
ATOM      8  O   LIG A   1      -7.500   0.481 125.405  0.00  0.00    -0.487 OA
ATOM      9  C   LIG A   1      -6.904   0.511 126.721  0.00  0.00    +0.207 C 
ATOM     10  C   LIG A   1      -5.897  -0.653 126.789  0.00  0.00    +0.049 C 
ATOM     11  C   LIG A   1      -5.630  -1.086 128.226  0.00  0.00    +0.013 C 
ENDROOT
BRANCH   9  12
ATOM     12  C   LIG A   1      -6.303   1.879 126.964  0.00  0.00    +0.000 A 
ATOM     13  C   LIG A   1      -5.050   2.194 126.426  0.00  0.00    +0.057 A 
ATOM     14  C   LIG A   1      -4.452   3.441 126.651  0.00  0.00    +0.166 A 
ATOM     15  C   LIG A   1      -5.119   4.419 127.418  0.00  0.00    +0.203 A 
ATOM     16  C   LIG A   1      -6.401   4.127 127.930  0.00  0.00    +0.166 A 
ATOM     17  C   LIG A   1      -6.966   2.859 127.714  0.00  0.00    +0.057 A 
BRANCH  14  18
ATOM     18  O   LIG A   1      -3.275   3.788 126.040  0.00  0.00    -0.491 OA
ATOM     19  C   LIG A   1      -2.068   3.358 126.653  0.00  0.00    +0.277 C 
ENDBRANCH  14  18
BRANCH  16  20
ATOM     20  O   LIG A   1      -7.237   4.941 128.657  0.00  0.00    -0.491 OA
ATOM     21  C   LIG A   1      -7.370   4.704 130.051  0.00  0.00    +0.277 C 
ENDBRANCH  16  20
BRANCH  15  22
ATOM     22  O   LIG A   1      -4.623   5.685 127.611  0.00  0.00    -0.488 OA
ATOM     23  C   LIG A   1      -3.879   5.943 128.795  0.00  0.00    +0.277 C 
ENDBRANCH  15  22
ENDBRANCH   9  12
BRANCH   6  24
ATOM     24  O   LIG A   1      -4.283  -3.555 123.357  0.00  0.00    -0.492 OA
ATOM     25  C   LIG A   1      -4.453  -4.947 123.604  0.00  0.00    +0.277 C 
ENDBRANCH   6  24
BRANCH   1  26
ATOM     26  C   LIG A   1      -7.684  -2.546 126.429  0.00  0.00    +0.045 C 
BRANCH  26  27
ATOM     27  C   LIG A   1      -8.893  -2.750 125.529  0.00  0.00    -0.033 C 
ATOM     28  C   LIG A   1      -9.018  -3.633 124.525  0.00  0.00    +0.004 C 
ENDBRANCH  26  27
ENDBRANCH   1  26
TORSDOF 7
ENDMDL
MODEL 4
REMARK VINA RESULT:      -7.0      3.573      7.078
REMARK  Name = NuBBE_2041
REMARK  12 active torsions:
REMARK  status: ('A' for Active; 'I' for Inactive)
REMARK    1  A    between atoms: C_1  and  C_2
REMARK    2  A    between atoms: C_1  and  C_4
REMARK    3  A    between atoms: C_9  and  O_11
REMARK    4  A    between atoms: O_11  and  C_12
REMARK    5  A    between atoms: C_14  and  C_19
REMARK    6  A    between atoms: C_16  and  C_18
REMARK    7  A    between atoms: C_21  and  O_22
REMARK    8  A    between atoms: O_22  and  C_23
REMARK    9  A    between atoms: C_24  and  O_29
REMARK   10  A    between atoms: C_25  and  O_27
REMARK   11  A    between atoms: O_27  and  C_28
REMARK   12  A    between atoms: O_29  and  C_30
REMARK                            x       y       z     vdW  Elec       q    Type
REMARK                         _______ _______ _______ _____ _____    ______ ____
ROOT
ATOM      1  C   LIG A   1      -6.419  -1.671 125.900  0.00  0.00    +0.059 C 
ATOM      2  C   LIG A   1      -6.977  -0.680 124.917  0.00  0.00    +0.113 C 
ATOM      3  C   LIG A   1      -6.838  -0.759 123.597  0.00  0.00    +0.096 C 
ATOM      4  C   LIG A   1      -6.042  -1.865 122.995  0.00  0.00    +0.223 C 
ATOM      5  O   LIG A   1      -6.066  -2.045 121.785  0.00  0.00    -0.284 OA
ATOM      6  C   LIG A   1      -5.187  -2.684 123.937  0.00  0.00    +0.164 C 
ATOM      7  C   LIG A   1      -5.386  -2.561 125.276  0.00  0.00    +0.038 C 
ATOM      8  O   LIG A   1      -7.444   0.480 125.510  0.00  0.00    -0.487 OA
ATOM      9  C   LIG A   1      -6.804   0.522 126.805  0.00  0.00    +0.207 C 
ATOM     10  C   LIG A   1      -5.779  -0.627 126.841  0.00  0.00    +0.049 C 
ATOM     11  C   LIG A   1      -5.456  -1.052 128.268  0.00  0.00    +0.013 C 
ENDROOT
BRANCH   9  12
ATOM     12  C   LIG A   1      -6.215   1.900 127.024  0.00  0.00    +0.000 A 
ATOM     13  C   LIG A   1      -6.885   2.821 127.837  0.00  0.00    +0.057 A 
ATOM     14  C   LIG A   1      -6.383   4.113 128.042  0.00  0.00    +0.166 A 
ATOM     15  C   LIG A   1      -5.170   4.506 127.438  0.00  0.00    +0.203 A 
ATOM     16  C   LIG A   1      -4.466   3.572 126.649  0.00  0.00    +0.166 A 
ATOM     17  C   LIG A   1      -5.005   2.292 126.437  0.00  0.00    +0.057 A 
BRANCH  14  18
ATOM     18  O   LIG A   1      -6.981   4.979 128.920  0.00  0.00    -0.491 OA
ATOM     19  C   LIG A   1      -8.330   4.717 129.282  0.00  0.00    +0.277 C 
ENDBRANCH  14  18
BRANCH  16  20
ATOM     20  O   LIG A   1      -3.258   3.729 126.013  0.00  0.00    -0.491 OA
ATOM     21  C   LIG A   1      -2.097   3.183 126.621  0.00  0.00    +0.277 C 
ENDBRANCH  16  20
BRANCH  15  22
ATOM     22  O   LIG A   1      -4.587   5.729 127.660  0.00  0.00    -0.488 OA
ATOM     23  C   LIG A   1      -3.674   5.854 128.743  0.00  0.00    +0.277 C 
ENDBRANCH  15  22
ENDBRANCH   9  12
BRANCH   6  24
ATOM     24  O   LIG A   1      -4.242  -3.515 123.361  0.00  0.00    -0.492 OA
ATOM     25  C   LIG A   1      -4.398  -4.911 123.596  0.00  0.00    +0.277 C 
ENDBRANCH   6  24
BRANCH   1  26
ATOM     26  C   LIG A   1      -7.550  -2.546 126.546  0.00  0.00    +0.045 C 
BRANCH  26  27
ATOM     27  C   LIG A   1      -8.738  -2.861 125.650  0.00  0.00    -0.033 C 
ATOM     28  C   LIG A   1      -8.801  -3.787 124.680  0.00  0.00    +0.004 C 
ENDBRANCH  26  27
ENDBRANCH   1  26
TORSDOF 7
ENDMDL
MODEL 5
REMARK VINA RESULT:      -6.9      2.276      7.050
REMARK  Name = NuBBE_2041
REMARK  12 active torsions:
REMARK  status: ('A' for Active; 'I' for Inactive)
REMARK    1  A    between atoms: C_1  and  C_2
REMARK    2  A    between atoms: C_1  and  C_4
REMARK    3  A    between atoms: C_9  and  O_11
REMARK    4  A    between atoms: O_11  and  C_12
REMARK    5  A    between atoms: C_14  and  C_19
REMARK    6  A    between atoms: C_16  and  C_18
REMARK    7  A    between atoms: C_21  and  O_22
REMARK    8  A    between atoms: O_22  and  C_23
REMARK    9  A    between atoms: C_24  and  O_29
REMARK   10  A    between atoms: C_25  and  O_27
REMARK   11  A    between atoms: O_27  and  C_28
REMARK   12  A    between atoms: O_29  and  C_30
REMARK                            x       y       z     vdW  Elec       q    Type
REMARK                         _______ _______ _______ _____ _____    ______ ____
ROOT
ATOM      1  C   LIG A   1      -6.603  -1.675 124.842  0.00  0.00    +0.059 C 
ATOM      2  C   LIG A   1      -7.367  -2.741 125.575  0.00  0.00    +0.113 C 
ATOM      3  C   LIG A   1      -8.507  -3.282 125.156  0.00  0.00    +0.096 C 
ATOM      4  C   LIG A   1      -9.142  -2.803 123.896  0.00  0.00    +0.223 C 
ATOM      5  O   LIG A   1     -10.083  -3.419 123.414  0.00  0.00    -0.284 OA
ATOM      6  C   LIG A   1      -8.605  -1.518 123.304  0.00  0.00    +0.164 C 
ATOM      7  C   LIG A   1      -7.429  -1.022 123.774  0.00  0.00    +0.038 C 
ATOM      8  O   LIG A   1      -6.921  -2.948 126.869  0.00  0.00    -0.487 OA
ATOM      9  C   LIG A   1      -6.192  -1.748 127.210  0.00  0.00    +0.207 C 
ATOM     10  C   LIG A   1      -6.408  -0.745 126.060  0.00  0.00    +0.049 C 
ATOM     11  C   LIG A   1      -5.294   0.293 125.998  0.00  0.00    +0.013 C 
ENDROOT
BRANCH   9  12
ATOM     12  C   LIG A   1      -6.647  -1.258 128.567  0.00  0.00    +0.000 A 
ATOM     13  C   LIG A   1      -6.210  -1.912 129.725  0.00  0.00    +0.057 A 
ATOM     14  C   LIG A   1      -6.631  -1.502 130.997  0.00  0.00    +0.166 A 
ATOM     15  C   LIG A   1      -7.500  -0.400 131.135  0.00  0.00    +0.203 A 
ATOM     16  C   LIG A   1      -7.914   0.292 129.978  0.00  0.00    +0.166 A 
ATOM     17  C   LIG A   1      -7.500  -0.156 128.712  0.00  0.00    +0.057 A 
BRANCH  14  18
ATOM     18  O   LIG A   1      -6.123  -2.074 132.135  0.00  0.00    -0.491 OA
ATOM     19  C   LIG A   1      -6.727  -3.277 132.589  0.00  0.00    +0.277 C 
ENDBRANCH  14  18
BRANCH  16  20
ATOM     20  O   LIG A   1      -8.713   1.407 129.888  0.00  0.00    -0.491 OA
ATOM     21  C   LIG A   1      -8.566   2.256 128.759  0.00  0.00    +0.277 C 
ENDBRANCH  16  20
BRANCH  15  22
ATOM     22  O   LIG A   1      -7.888   0.098 132.355  0.00  0.00    -0.488 OA
ATOM     23  C   LIG A   1      -7.110   1.136 132.938  0.00  0.00    +0.277 C 
ENDBRANCH  15  22
ENDBRANCH   9  12
BRANCH   6  24
ATOM     24  O   LIG A   1      -9.361  -0.923 122.310  0.00  0.00    -0.492 OA
ATOM     25  C   LIG A   1      -9.977   0.317 122.639  0.00  0.00    +0.277 C 
ENDBRANCH   6  24
BRANCH   1  26
ATOM     26  C   LIG A   1      -5.278  -2.238 124.216  0.00  0.00    +0.045 C 
BRANCH  26  27
ATOM     27  C   LIG A   1      -5.276  -3.725 123.896  0.00  0.00    -0.033 C 
ATOM     28  C   LIG A   1      -4.223  -4.478 123.542  0.00  0.00    +0.004 C 
ENDBRANCH  26  27
ENDBRANCH   1  26
TORSDOF 7
ENDMDL
MODEL 6
REMARK VINA RESULT:      -6.7      3.297      6.321
REMARK  Name = NuBBE_2041
REMARK  12 active torsions:
REMARK  status: ('A' for Active; 'I' for Inactive)
REMARK    1  A    between atoms: C_1  and  C_2
REMARK    2  A    between atoms: C_1  and  C_4
REMARK    3  A    between atoms: C_9  and  O_11
REMARK    4  A    between atoms: O_11  and  C_12
REMARK    5  A    between atoms: C_14  and  C_19
REMARK    6  A    between atoms: C_16  and  C_18
REMARK    7  A    between atoms: C_21  and  O_22
REMARK    8  A    between atoms: O_22  and  C_23
REMARK    9  A    between atoms: C_24  and  O_29
REMARK   10  A    between atoms: C_25  and  O_27
REMARK   11  A    between atoms: O_27  and  C_28
REMARK   12  A    between atoms: O_29  and  C_30
REMARK                            x       y       z     vdW  Elec       q    Type
REMARK                         _______ _______ _______ _____ _____    ______ ____
ROOT
ATOM      1  C   LIG A   1      -6.782  -0.957 125.786  0.00  0.00    +0.059 C 
ATOM      2  C   LIG A   1      -6.861  -1.185 127.269  0.00  0.00    +0.113 C 
ATOM      3  C   LIG A   1      -7.641  -2.087 127.858  0.00  0.00    +0.096 C 
ATOM      4  C   LIG A   1      -8.557  -2.930 127.040  0.00  0.00    +0.223 C 
ATOM      5  O   LIG A   1      -9.135  -3.879 127.553  0.00  0.00    -0.284 OA
ATOM      6  C   LIG A   1      -8.766  -2.515 125.599  0.00  0.00    +0.164 C 
ATOM      7  C   LIG A   1      -7.927  -1.593 125.056  0.00  0.00    +0.038 C 
ATOM      8  O   LIG A   1      -6.236  -0.198 128.012  0.00  0.00    -0.487 OA
ATOM      9  C   LIG A   1      -6.138   0.935 127.121  0.00  0.00    +0.207 C 
ATOM     10  C   LIG A   1      -6.927   0.579 125.847  0.00  0.00    +0.049 C 
ATOM     11  C   LIG A   1      -6.458   1.392 124.646  0.00  0.00    +0.013 C 
ENDROOT
BRANCH   9  12
ATOM     12  C   LIG A   1      -6.625   2.175 127.840  0.00  0.00    +0.000 A 
ATOM     13  C   LIG A   1      -7.919   2.206 128.373  0.00  0.00    +0.057 A 
ATOM     14  C   LIG A   1      -8.412   3.345 129.022  0.00  0.00    +0.166 A 
ATOM     15  C   LIG A   1      -7.598   4.488 129.166  0.00  0.00    +0.203 A 
ATOM     16  C   LIG A   1      -6.278   4.453 128.668  0.00  0.00    +0.166 A 
ATOM     17  C   LIG A   1      -5.817   3.309 127.996  0.00  0.00    +0.057 A 
BRANCH  14  18
ATOM     18  O   LIG A   1      -9.638   3.341 129.636  0.00  0.00    -0.491 OA
ATOM     19  C   LIG A   1      -9.737   2.693 130.897  0.00  0.00    +0.277 C 
ENDBRANCH  14  18
BRANCH  16  20
ATOM     20  O   LIG A   1      -5.312   5.427 128.739  0.00  0.00    -0.491 OA
ATOM     21  C   LIG A   1      -4.190   5.332 127.873  0.00  0.00    +0.277 C 
ENDBRANCH  16  20
BRANCH  15  22
ATOM     22  O   LIG A   1      -7.995   5.607 129.857  0.00  0.00    -0.488 OA
ATOM     23  C   LIG A   1      -7.604   5.732 131.218  0.00  0.00    +0.277 C 
ENDBRANCH  15  22
ENDBRANCH   9  12
BRANCH   6  24
ATOM     24  O   LIG A   1      -9.814  -3.112 124.923  0.00  0.00    -0.492 OA
ATOM     25  C   LIG A   1      -9.614  -3.360 123.535  0.00  0.00    +0.277 C 
ENDBRANCH   6  24
BRANCH   1  26
ATOM     26  C   LIG A   1      -5.424  -1.475 125.191  0.00  0.00    +0.045 C 
BRANCH  26  27
ATOM     27  C   LIG A   1      -5.530  -2.297 123.916  0.00  0.00    -0.033 C 
ATOM     28  C   LIG A   1      -4.803  -3.375 123.583  0.00  0.00    +0.004 C 
ENDBRANCH  26  27
ENDBRANCH   1  26
TORSDOF 7
ENDMDL
MODEL 7
REMARK VINA RESULT:      -6.7      3.325      6.510
REMARK  Name = NuBBE_2041
REMARK  12 active torsions:
REMARK  status: ('A' for Active; 'I' for Inactive)
REMARK    1  A    between atoms: C_1  and  C_2
REMARK    2  A    between atoms: C_1  and  C_4
REMARK    3  A    between atoms: C_9  and  O_11
REMARK    4  A    between atoms: O_11  and  C_12
REMARK    5  A    between atoms: C_14  and  C_19
REMARK    6  A    between atoms: C_16  and  C_18
REMARK    7  A    between atoms: C_21  and  O_22
REMARK    8  A    between atoms: O_22  and  C_23
REMARK    9  A    between atoms: C_24  and  O_29
REMARK   10  A    between atoms: C_25  and  O_27
REMARK   11  A    between atoms: O_27  and  C_28
REMARK   12  A    between atoms: O_29  and  C_30
REMARK                            x       y       z     vdW  Elec       q    Type
REMARK                         _______ _______ _______ _____ _____    ______ ____
ROOT
ATOM      1  C   LIG A   1      -6.747  -0.922 125.680  0.00  0.00    +0.059 C 
ATOM      2  C   LIG A   1      -6.787  -1.167 127.162  0.00  0.00    +0.113 C 
ATOM      3  C   LIG A   1      -7.563  -2.065 127.763  0.00  0.00    +0.096 C 
ATOM      4  C   LIG A   1      -8.514  -2.885 126.961  0.00  0.00    +0.223 C 
ATOM      5  O   LIG A   1      -9.090  -3.832 127.479  0.00  0.00    -0.284 OA
ATOM      6  C   LIG A   1      -8.758  -2.450 125.532  0.00  0.00    +0.164 C 
ATOM      7  C   LIG A   1      -7.922  -1.533 124.976  0.00  0.00    +0.038 C 
ATOM      8  O   LIG A   1      -6.127  -0.198 127.898  0.00  0.00    -0.487 OA
ATOM      9  C   LIG A   1      -6.038   0.944 127.018  0.00  0.00    +0.207 C 
ATOM     10  C   LIG A   1      -6.869   0.615 125.764  0.00  0.00    +0.049 C 
ATOM     11  C   LIG A   1      -6.422   1.436 124.559  0.00  0.00    +0.013 C 
ENDROOT
BRANCH   9  12
ATOM     12  C   LIG A   1      -6.486   2.182 127.765  0.00  0.00    +0.000 A 
ATOM     13  C   LIG A   1      -5.607   3.261 127.913  0.00  0.00    +0.057 A 
ATOM     14  C   LIG A   1      -5.980   4.413 128.620  0.00  0.00    +0.166 A 
ATOM     15  C   LIG A   1      -7.268   4.512 129.185  0.00  0.00    +0.203 A 
ATOM     16  C   LIG A   1      -8.176   3.447 129.006  0.00  0.00    +0.166 A 
ATOM     17  C   LIG A   1      -7.769   2.292 128.318  0.00  0.00    +0.057 A 
BRANCH  14  18
ATOM     18  O   LIG A   1      -5.160   5.510 128.677  0.00  0.00    -0.491 OA
ATOM     19  C   LIG A   1      -4.066   5.558 127.771  0.00  0.00    +0.277 C 
ENDBRANCH  14  18
BRANCH  16  20
ATOM     20  O   LIG A   1      -9.481   3.356 129.429  0.00  0.00    -0.491 OA
ATOM     21  C   LIG A   1      -9.739   2.814 130.715  0.00  0.00    +0.277 C 
ENDBRANCH  16  20
BRANCH  15  22
ATOM     22  O   LIG A   1      -7.720   5.642 129.822  0.00  0.00    -0.488 OA
ATOM     23  C   LIG A   1      -7.542   5.738 131.229  0.00  0.00    +0.277 C 
ENDBRANCH  15  22
ENDBRANCH   9  12
BRANCH   6  24
ATOM     24  O   LIG A   1      -9.834  -3.023 124.879  0.00  0.00    -0.492 OA
ATOM     25  C   LIG A   1      -9.627  -3.394 123.520  0.00  0.00    +0.277 C 
ENDBRANCH   6  24
BRANCH   1  26
ATOM     26  C   LIG A   1      -5.414  -1.451 125.041  0.00  0.00    +0.045 C 
BRANCH  26  27
ATOM     27  C   LIG A   1      -5.467  -2.861 124.472  0.00  0.00    -0.033 C 
ATOM     28  C   LIG A   1      -4.693  -3.375 123.503  0.00  0.00    +0.004 C 
ENDBRANCH  26  27
ENDBRANCH   1  26
TORSDOF 7
ENDMDL
MODEL 8
REMARK VINA RESULT:      -6.6      4.290      6.355
REMARK  Name = NuBBE_2041
REMARK  12 active torsions:
REMARK  status: ('A' for Active; 'I' for Inactive)
REMARK    1  A    between atoms: C_1  and  C_2
REMARK    2  A    between atoms: C_1  and  C_4
REMARK    3  A    between atoms: C_9  and  O_11
REMARK    4  A    between atoms: O_11  and  C_12
REMARK    5  A    between atoms: C_14  and  C_19
REMARK    6  A    between atoms: C_16  and  C_18
REMARK    7  A    between atoms: C_21  and  O_22
REMARK    8  A    between atoms: O_22  and  C_23
REMARK    9  A    between atoms: C_24  and  O_29
REMARK   10  A    between atoms: C_25  and  O_27
REMARK   11  A    between atoms: O_27  and  C_28
REMARK   12  A    between atoms: O_29  and  C_30
REMARK                            x       y       z     vdW  Elec       q    Type
REMARK                         _______ _______ _______ _____ _____    ______ ____
ROOT
ATOM      1  C   LIG A   1      -8.514   3.624 131.971  0.00  0.00    +0.059 C 
ATOM      2  C   LIG A   1      -7.425   3.993 131.003  0.00  0.00    +0.113 C 
ATOM      3  C   LIG A   1      -7.240   5.209 130.496  0.00  0.00    +0.096 C 
ATOM      4  C   LIG A   1      -8.177   6.313 130.845  0.00  0.00    +0.223 C 
ATOM      5  O   LIG A   1      -7.906   7.465 130.532  0.00  0.00    -0.284 OA
ATOM      6  C   LIG A   1      -9.468   5.925 131.532  0.00  0.00    +0.164 C 
ATOM      7  C   LIG A   1      -9.589   4.667 132.035  0.00  0.00    +0.038 C 
ATOM      8  O   LIG A   1      -6.765   2.898 130.471  0.00  0.00    -0.487 OA
ATOM      9  C   LIG A   1      -7.664   1.785 130.676  0.00  0.00    +0.207 C 
ATOM     10  C   LIG A   1      -8.987   2.364 131.213  0.00  0.00    +0.049 C 
ATOM     11  C   LIG A   1      -9.787   1.322 131.986  0.00  0.00    +0.013 C 
ENDROOT
BRANCH   9  12
ATOM     12  C   LIG A   1      -7.794   1.008 129.384  0.00  0.00    +0.000 A 
ATOM     13  C   LIG A   1      -7.325  -0.310 129.316  0.00  0.00    +0.057 A 
ATOM     14  C   LIG A   1      -7.406  -1.051 128.129  0.00  0.00    +0.166 A 
ATOM     15  C   LIG A   1      -7.984  -0.482 126.976  0.00  0.00    +0.203 A 
ATOM     16  C   LIG A   1      -8.496   0.831 127.045  0.00  0.00    +0.166 A 
ATOM     17  C   LIG A   1      -8.377   1.563 128.238  0.00  0.00    +0.057 A 
BRANCH  14  18
ATOM     18  O   LIG A   1      -7.045  -2.373 128.089  0.00  0.00    -0.491 OA
ATOM     19  C   LIG A   1      -7.841  -3.292 128.823  0.00  0.00    +0.277 C 
ENDBRANCH  14  18
BRANCH  16  20
ATOM     20  O   LIG A   1      -9.132   1.554 126.064  0.00  0.00    -0.491 OA
ATOM     21  C   LIG A   1      -8.393   2.546 125.367  0.00  0.00    +0.277 C 
ENDBRANCH  16  20
BRANCH  15  22
ATOM     22  O   LIG A   1      -8.161  -1.180 125.806  0.00  0.00    -0.488 OA
ATOM     23  C   LIG A   1      -9.323  -1.988 125.674  0.00  0.00    +0.277 C 
ENDBRANCH  15  22
ENDBRANCH   9  12
BRANCH   6  24
ATOM     24  O   LIG A   1     -10.455   6.892 131.602  0.00  0.00    -0.492 OA
ATOM     25  C   LIG A   1     -11.796   6.442 131.447  0.00  0.00    +0.277 C 
ENDBRANCH   6  24
BRANCH   1  26
ATOM     26  C   LIG A   1      -7.945   3.362 133.410  0.00  0.00    +0.045 C 
BRANCH  26  27
ATOM     27  C   LIG A   1      -8.441   4.301 134.499  0.00  0.00    -0.033 C 
ATOM     28  C   LIG A   1      -7.705   5.137 135.247  0.00  0.00    +0.004 C 
ENDBRANCH  26  27
ENDBRANCH   1  26
TORSDOF 7
ENDMDL
MODEL 9
REMARK VINA RESULT:      -6.6      4.775      6.784
REMARK  Name = NuBBE_2041
REMARK  12 active torsions:
REMARK  status: ('A' for Active; 'I' for Inactive)
REMARK    1  A    between atoms: C_1  and  C_2
REMARK    2  A    between atoms: C_1  and  C_4
REMARK    3  A    between atoms: C_9  and  O_11
REMARK    4  A    between atoms: O_11  and  C_12
REMARK    5  A    between atoms: C_14  and  C_19
REMARK    6  A    between atoms: C_16  and  C_18
REMARK    7  A    between atoms: C_21  and  O_22
REMARK    8  A    between atoms: O_22  and  C_23
REMARK    9  A    between atoms: C_24  and  O_29
REMARK   10  A    between atoms: C_25  and  O_27
REMARK   11  A    between atoms: O_27  and  C_28
REMARK   12  A    between atoms: O_29  and  C_30
REMARK                            x       y       z     vdW  Elec       q    Type
REMARK                         _______ _______ _______ _____ _____    ______ ____
ROOT
ATOM      1  C   LIG A   1      -3.495   4.541 128.893  0.00  0.00    +0.059 C 
ATOM      2  C   LIG A   1      -4.913   5.040 128.893  0.00  0.00    +0.113 C 
ATOM      3  C   LIG A   1      -5.737   4.988 129.936  0.00  0.00    +0.096 C 
ATOM      4  C   LIG A   1      -5.288   4.360 131.210  0.00  0.00    +0.223 C 
ATOM      5  O   LIG A   1      -5.969   4.475 132.220  0.00  0.00    -0.284 OA
ATOM      6  C   LIG A   1      -4.011   3.549 131.162  0.00  0.00    +0.164 C 
ATOM      7  C   LIG A   1      -3.211   3.653 130.068  0.00  0.00    +0.038 C 
ATOM      8  O   LIG A   1      -5.392   5.336 127.628  0.00  0.00    -0.487 OA
ATOM      9  C   LIG A   1      -4.524   4.620 126.722  0.00  0.00    +0.207 C 
ATOM     10  C   LIG A   1      -3.605   3.732 127.582  0.00  0.00    +0.049 C 
ATOM     11  C   LIG A   1      -2.317   3.376 126.850  0.00  0.00    +0.013 C 
ENDROOT
BRANCH   9  12
ATOM     12  C   LIG A   1      -5.369   3.867 125.717  0.00  0.00    +0.000 A 
ATOM     13  C   LIG A   1      -5.413   4.297 124.385  0.00  0.00    +0.057 A 
ATOM     14  C   LIG A   1      -6.203   3.639 123.433  0.00  0.00    +0.166 A 
ATOM     15  C   LIG A   1      -6.963   2.509 123.800  0.00  0.00    +0.203 A 
ATOM     16  C   LIG A   1      -6.894   2.043 125.130  0.00  0.00    +0.166 A 
ATOM     17  C   LIG A   1      -6.116   2.737 126.072  0.00  0.00    +0.057 A 
BRANCH  14  18
ATOM     18  O   LIG A   1      -6.167   3.994 122.109  0.00  0.00    -0.491 OA
ATOM     19  C   LIG A   1      -4.932   4.471 121.593  0.00  0.00    +0.277 C 
ENDBRANCH  14  18
BRANCH  16  20
ATOM     20  O   LIG A   1      -7.509   0.947 125.685  0.00  0.00    -0.491 OA
ATOM     21  C   LIG A   1      -8.734   1.137 126.379  0.00  0.00    +0.277 C 
ENDBRANCH  16  20
BRANCH  15  22
ATOM     22  O   LIG A   1      -7.696   1.776 122.900  0.00  0.00    -0.488 OA
ATOM     23  C   LIG A   1      -9.078   2.080 122.751  0.00  0.00    +0.277 C 
ENDBRANCH  15  22
ENDBRANCH   9  12
BRANCH   6  24
ATOM     24  O   LIG A   1      -3.742   2.741 132.252  0.00  0.00    -0.492 OA
ATOM     25  C   LIG A   1      -2.672   3.151 133.097  0.00  0.00    +0.277 C 
ENDBRANCH   6  24
BRANCH   1  26
ATOM     26  C   LIG A   1      -2.464   5.724 128.862  0.00  0.00    +0.045 C 
BRANCH  26  27
ATOM     27  C   LIG A   1      -2.109   6.329 130.211  0.00  0.00    -0.033 C 
ATOM     28  C   LIG A   1      -2.821   7.225 130.912  0.00  0.00    +0.004 C 
ENDBRANCH  26  27
ENDBRANCH   1  26
TORSDOF 7
ENDMDL
