MODEL 1
REMARK VINA RESULT:      -7.5      0.000      0.000
REMARK  Name = NuBBE_2242
REMARK  11 active torsions:
REMARK  status: ('A' for Active; 'I' for Inactive)
REMARK    1  A    between atoms: C_1  and  C_2
REMARK    2  A    between atoms: C_2  and  C_3
REMARK    3  A    between atoms: C_11  and  O_12
REMARK    4  A    between atoms: O_12  and  C_13
REMARK    5  A    between atoms: C_13  and  C_14
REMARK    6  A    between atoms: C_17  and  C_18
REMARK    7  A    between atoms: C_19  and  O_21
REMARK    8  A    between atoms: O_21  and  C_22
REMARK    9  A    between atoms: C_22  and  C_23
REMARK   10  A    between atoms: C_26  and  C_27
REMARK   11  A    between atoms: C_26  and  C_28
REMARK                            x       y       z     vdW  Elec       q    Type
REMARK                         _______ _______ _______ _____ _____    ______ ____
ROOT
ATOM      1  C   LIG A   1      -6.195   1.432 131.937  0.00  0.00    +0.014 C 
ATOM      2  C   LIG A   1      -7.192   1.110 130.804  0.00  0.00    +0.001 C 
ATOM      3  C   LIG A   1      -8.138   0.000 131.312  0.00  0.00    +0.014 C 
ATOM      4  C   LIG A   1      -7.989   2.415 130.551  0.00  0.00    +0.010 C 
ATOM      5  C   LIG A   1      -9.020   2.261 129.447  0.00  0.00    +0.003 C 
ATOM      6  C   LIG A   1      -8.429   1.857 128.098  0.00  0.00    +0.039 C 
ATOM      7  C   LIG A   1      -7.216   0.939 128.158  0.00  0.00    +0.117 C 
ATOM      8  O   LIG A   1      -6.094   1.726 128.640  0.00  0.00    -0.355 OA
ATOM      9  C   LIG A   1      -6.493   0.652 129.498  0.00  0.00    +0.133 C 
ATOM     10  C   LIG A   1      -5.586  -0.532 129.529  0.00  0.00    +0.023 C 
ATOM     11  C   LIG A   1      -5.962  -1.651 128.660  0.00  0.00    +0.137 C 
ATOM     12  C   LIG A   1      -6.470  -1.439 127.417  0.00  0.00    -0.014 C 
ATOM     13  C   LIG A   1      -6.854  -0.009 126.923  0.00  0.00    +0.062 C 
ATOM     14  C   LIG A   1      -5.610   0.566 126.195  0.00  0.00    +0.022 C 
ATOM     15  C   LIG A   1      -8.078  -0.100 125.921  0.00  0.00    +0.190 C 
ATOM     16  C   LIG A   1      -8.100  -1.270 124.923  0.00  0.00    +0.056 C 
ATOM     17  C   LIG A   1      -7.867  -2.647 125.560  0.00  0.00    -0.007 C 
ATOM     18  C   LIG A   1      -7.638  -3.670 124.420  0.00  0.00    +0.016 C 
ATOM     19  C   LIG A   1      -6.548  -2.555 126.376  0.00  0.00    +0.046 C 
ATOM     20  C   LIG A   1      -4.381  -0.485 130.132  0.00  0.00    +0.019 C 
ENDROOT
BRANCH  17  21
ATOM     21  C   LIG A   1      -9.069  -3.054 126.410  0.00  0.00    -0.028 C 
ATOM     22  C   LIG A   1      -9.085  -3.933 127.425  0.00  0.00    +0.004 C 
ENDBRANCH  17  21
BRANCH  11  23
ATOM     23  O   LIG A   1      -5.528  -2.915 129.117  0.00  0.00    -0.426 OA
BRANCH  23  24
ATOM     24  C   LIG A   1      -6.356  -3.517 130.042  0.00  0.00    +0.309 C 
ATOM     25  C   LIG A   1      -5.621  -4.636 130.734  0.00  0.00    +0.136 C 
ATOM     26  O   LIG A   1      -7.510  -3.255 130.269  0.00  0.00    -0.251 OA
ENDBRANCH  23  24
ENDBRANCH  11  23
BRANCH  15  27
ATOM     27  O   LIG A   1      -8.317   1.197 125.287  0.00  0.00    -0.461 OA
BRANCH  27  28
ATOM     28  C   LIG A   1      -9.405   1.463 124.502  0.00  0.00    +0.304 C 
ATOM     29  C   LIG A   1      -8.987   2.282 123.314  0.00  0.00    +0.136 C 
ATOM     30  O   LIG A   1     -10.555   1.055 124.660  0.00  0.00    -0.251 OA
ENDBRANCH  27  28
ENDBRANCH  15  27
TORSDOF 5
ENDMDL
MODEL 2
REMARK VINA RESULT:      -7.3      1.983      5.438
REMARK  Name = NuBBE_2242
REMARK  11 active torsions:
REMARK  status: ('A' for Active; 'I' for Inactive)
REMARK    1  A    between atoms: C_1  and  C_2
REMARK    2  A    between atoms: C_2  and  C_3
REMARK    3  A    between atoms: C_11  and  O_12
REMARK    4  A    between atoms: O_12  and  C_13
REMARK    5  A    between atoms: C_13  and  C_14
REMARK    6  A    between atoms: C_17  and  C_18
REMARK    7  A    between atoms: C_19  and  O_21
REMARK    8  A    between atoms: O_21  and  C_22
REMARK    9  A    between atoms: C_22  and  C_23
REMARK   10  A    between atoms: C_26  and  C_27
REMARK   11  A    between atoms: C_26  and  C_28
REMARK                            x       y       z     vdW  Elec       q    Type
REMARK                         _______ _______ _______ _____ _____    ______ ____
ROOT
ATOM      1  C   LIG A   1      -7.654  -4.533 124.847  0.00  0.00    +0.014 C 
ATOM      2  C   LIG A   1      -7.210  -3.088 124.534  0.00  0.00    +0.001 C 
ATOM      3  C   LIG A   1      -5.701  -2.982 124.846  0.00  0.00    +0.014 C 
ATOM      4  C   LIG A   1      -7.457  -2.882 123.018  0.00  0.00    +0.010 C 
ATOM      5  C   LIG A   1      -7.069  -1.491 122.550  0.00  0.00    +0.003 C 
ATOM      6  C   LIG A   1      -7.821  -0.366 123.258  0.00  0.00    +0.039 C 
ATOM      7  C   LIG A   1      -8.171  -0.624 124.718  0.00  0.00    +0.117 C 
ATOM      8  O   LIG A   1      -9.227  -1.620 124.747  0.00  0.00    -0.355 OA
ATOM      9  C   LIG A   1      -7.994  -2.027 125.349  0.00  0.00    +0.133 C 
ATOM     10  C   LIG A   1      -7.985  -2.094 126.840  0.00  0.00    +0.023 C 
ATOM     11  C   LIG A   1      -7.442  -0.920 127.531  0.00  0.00    +0.137 C 
ATOM     12  C   LIG A   1      -7.694   0.339 127.086  0.00  0.00    -0.014 C 
ATOM     13  C   LIG A   1      -8.408   0.598 125.722  0.00  0.00    +0.062 C 
ATOM     14  C   LIG A   1      -9.927   0.713 126.022  0.00  0.00    +0.022 C 
ATOM     15  C   LIG A   1      -7.874   1.947 125.086  0.00  0.00    +0.190 C 
ATOM     16  C   LIG A   1      -7.614   3.130 126.033  0.00  0.00    +0.056 C 
ATOM     17  C   LIG A   1      -6.762   2.780 127.261  0.00  0.00    -0.007 C 
ATOM     18  C   LIG A   1      -6.823   3.976 128.243  0.00  0.00    +0.016 C 
ATOM     19  C   LIG A   1      -7.441   1.569 127.957  0.00  0.00    +0.046 C 
ATOM     20  C   LIG A   1      -8.642  -3.063 127.509  0.00  0.00    +0.019 C 
ENDROOT
BRANCH  17  21
ATOM     21  C   LIG A   1      -5.318   2.501 126.848  0.00  0.00    -0.028 C 
ATOM     22  C   LIG A   1      -4.527   3.276 126.090  0.00  0.00    +0.004 C 
ENDBRANCH  17  21
BRANCH  11  23
ATOM     23  O   LIG A   1      -6.872  -1.200 128.792  0.00  0.00    -0.426 OA
BRANCH  23  24
ATOM     24  C   LIG A   1      -5.508  -1.407 128.783  0.00  0.00    +0.309 C 
ATOM     25  C   LIG A   1      -4.819  -0.313 129.559  0.00  0.00    +0.136 C 
ATOM     26  O   LIG A   1      -4.907  -2.287 128.220  0.00  0.00    -0.251 OA
ENDBRANCH  23  24
ENDBRANCH  11  23
BRANCH  15  27
ATOM     27  O   LIG A   1      -8.677   2.313 123.919  0.00  0.00    -0.461 OA
BRANCH  27  28
ATOM     28  C   LIG A   1      -8.175   2.993 122.843  0.00  0.00    +0.304 C 
ATOM     29  C   LIG A   1      -6.678   3.061 122.936  0.00  0.00    +0.136 C 
ATOM     30  O   LIG A   1      -8.804   3.433 121.881  0.00  0.00    -0.251 OA
ENDBRANCH  27  28
ENDBRANCH  15  27
TORSDOF 5
ENDMDL
MODEL 3
REMARK VINA RESULT:      -7.2      2.287      5.871
REMARK  Name = NuBBE_2242
REMARK  11 active torsions:
REMARK  status: ('A' for Active; 'I' for Inactive)
REMARK    1  A    between atoms: C_1  and  C_2
REMARK    2  A    between atoms: C_2  and  C_3
REMARK    3  A    between atoms: C_11  and  O_12
REMARK    4  A    between atoms: O_12  and  C_13
REMARK    5  A    between atoms: C_13  and  C_14
REMARK    6  A    between atoms: C_17  and  C_18
REMARK    7  A    between atoms: C_19  and  O_21
REMARK    8  A    between atoms: O_21  and  C_22
REMARK    9  A    between atoms: C_22  and  C_23
REMARK   10  A    between atoms: C_26  and  C_27
REMARK   11  A    between atoms: C_26  and  C_28
REMARK                            x       y       z     vdW  Elec       q    Type
REMARK                         _______ _______ _______ _____ _____    ______ ____
ROOT
ATOM      1  C   LIG A   1      -8.645   3.144 122.429  0.00  0.00    +0.014 C 
ATOM      2  C   LIG A   1      -7.564   2.676 123.426  0.00  0.00    +0.001 C 
ATOM      3  C   LIG A   1      -6.748   1.556 122.743  0.00  0.00    +0.014 C 
ATOM      4  C   LIG A   1      -6.662   3.908 123.690  0.00  0.00    +0.010 C 
ATOM      5  C   LIG A   1      -5.539   3.607 124.666  0.00  0.00    +0.003 C 
ATOM      6  C   LIG A   1      -6.019   3.132 126.036  0.00  0.00    +0.039 C 
ATOM      7  C   LIG A   1      -7.291   2.295 126.035  0.00  0.00    +0.117 C 
ATOM      8  O   LIG A   1      -8.399   3.182 125.731  0.00  0.00    -0.355 OA
ATOM      9  C   LIG A   1      -8.160   2.157 124.760  0.00  0.00    +0.133 C 
ATOM     10  C   LIG A   1      -9.142   1.035 124.737  0.00  0.00    +0.023 C 
ATOM     11  C   LIG A   1      -8.756  -0.170 125.479  0.00  0.00    +0.137 C 
ATOM     12  C   LIG A   1      -8.115  -0.087 126.674  0.00  0.00    -0.014 C 
ATOM     13  C   LIG A   1      -7.590   1.274 127.229  0.00  0.00    +0.062 C 
ATOM     14  C   LIG A   1      -8.715   1.862 128.122  0.00  0.00    +0.022 C 
ATOM     15  C   LIG A   1      -6.281   1.033 128.090  0.00  0.00    +0.190 C 
ATOM     16  C   LIG A   1      -6.239  -0.212 128.992  0.00  0.00    +0.056 C 
ATOM     17  C   LIG A   1      -6.625  -1.518 128.284  0.00  0.00    -0.007 C 
ATOM     18  C   LIG A   1      -6.806  -2.613 129.364  0.00  0.00    +0.016 C 
ATOM     19  C   LIG A   1      -8.008  -1.285 127.617  0.00  0.00    +0.046 C 
ATOM     20  C   LIG A   1     -10.395   1.200 124.267  0.00  0.00    +0.019 C 
ENDROOT
BRANCH  17  21
ATOM     21  C   LIG A   1      -5.542  -1.926 127.286  0.00  0.00    -0.028 C 
ATOM     22  C   LIG A   1      -5.712  -2.575 126.124  0.00  0.00    +0.004 C 
ENDBRANCH  17  21
BRANCH  11  23
ATOM     23  O   LIG A   1      -9.316  -1.365 124.978  0.00  0.00    -0.426 OA
BRANCH  23  24
ATOM     24  C   LIG A   1      -8.619  -1.946 123.938  0.00  0.00    +0.309 C 
ATOM     25  C   LIG A   1      -9.383  -3.134 123.411  0.00  0.00    +0.136 C 
ATOM     26  O   LIG A   1      -7.542  -1.619 123.509  0.00  0.00    -0.251 OA
ENDBRANCH  23  24
ENDBRANCH  11  23
BRANCH  15  27
ATOM     27  O   LIG A   1      -5.896   2.259 128.788  0.00  0.00    -0.461 OA
BRANCH  27  28
ATOM     28  C   LIG A   1      -4.747   2.381 129.520  0.00  0.00    +0.304 C 
ATOM     29  C   LIG A   1      -3.576   2.581 128.601  0.00  0.00    +0.136 C 
ATOM     30  O   LIG A   1      -4.645   2.404 130.746  0.00  0.00    -0.251 OA
ENDBRANCH  27  28
ENDBRANCH  15  27
TORSDOF 5
ENDMDL
MODEL 4
REMARK VINA RESULT:      -7.1      1.776      6.672
REMARK  Name = NuBBE_2242
REMARK  11 active torsions:
REMARK  status: ('A' for Active; 'I' for Inactive)
REMARK    1  A    between atoms: C_1  and  C_2
REMARK    2  A    between atoms: C_2  and  C_3
REMARK    3  A    between atoms: C_11  and  O_12
REMARK    4  A    between atoms: O_12  and  C_13
REMARK    5  A    between atoms: C_13  and  C_14
REMARK    6  A    between atoms: C_17  and  C_18
REMARK    7  A    between atoms: C_19  and  O_21
REMARK    8  A    between atoms: O_21  and  C_22
REMARK    9  A    between atoms: C_22  and  C_23
REMARK   10  A    between atoms: C_26  and  C_27
REMARK   11  A    between atoms: C_26  and  C_28
REMARK                            x       y       z     vdW  Elec       q    Type
REMARK                         _______ _______ _______ _____ _____    ______ ____
ROOT
ATOM      1  C   LIG A   1      -7.228  -1.978 124.674  0.00  0.00    +0.014 C 
ATOM      2  C   LIG A   1      -7.897  -2.023 126.064  0.00  0.00    +0.001 C 
ATOM      3  C   LIG A   1      -9.139  -1.106 126.018  0.00  0.00    +0.014 C 
ATOM      4  C   LIG A   1      -8.329  -3.495 126.284  0.00  0.00    +0.010 C 
ATOM      5  C   LIG A   1      -9.007  -3.707 127.626  0.00  0.00    +0.003 C 
ATOM      6  C   LIG A   1      -8.138  -3.336 128.826  0.00  0.00    +0.039 C 
ATOM      7  C   LIG A   1      -7.186  -2.166 128.614  0.00  0.00    +0.117 C 
ATOM      8  O   LIG A   1      -6.126  -2.618 127.730  0.00  0.00    -0.355 OA
ATOM      9  C   LIG A   1      -6.948  -1.571 127.204  0.00  0.00    +0.133 C 
ATOM     10  C   LIG A   1      -6.325  -0.217 127.146  0.00  0.00    +0.023 C 
ATOM     11  C   LIG A   1      -6.637   0.680 128.263  0.00  0.00    +0.137 C 
ATOM     12  C   LIG A   1      -6.715   0.218 129.538  0.00  0.00    -0.014 C 
ATOM     13  C   LIG A   1      -6.667  -1.309 129.860  0.00  0.00    +0.062 C 
ATOM     14  C   LIG A   1      -5.180  -1.666 130.131  0.00  0.00    +0.022 C 
ATOM     15  C   LIG A   1      -7.543  -1.614 131.144  0.00  0.00    +0.190 C 
ATOM     16  C   LIG A   1      -7.493  -0.602 132.300  0.00  0.00    +0.056 C 
ATOM     17  C   LIG A   1      -7.715   0.856 131.873  0.00  0.00    -0.007 C 
ATOM     18  C   LIG A   1      -7.362   1.767 133.075  0.00  0.00    +0.016 C 
ATOM     19  C   LIG A   1      -6.696   1.160 130.741  0.00  0.00    +0.046 C 
ATOM     20  C   LIG A   1      -5.360   0.081 126.253  0.00  0.00    +0.019 C 
ENDROOT
BRANCH  17  21
ATOM     21  C   LIG A   1      -9.165   1.074 131.446  0.00  0.00    -0.028 C 
ATOM     22  C   LIG A   1     -10.072   1.873 132.031  0.00  0.00    +0.004 C 
ENDBRANCH  17  21
BRANCH  11  23
ATOM     23  O   LIG A   1      -6.596   2.054 127.935  0.00  0.00    -0.426 OA
BRANCH  23  24
ATOM     24  C   LIG A   1      -7.812   2.606 127.585  0.00  0.00    +0.309 C 
ATOM     25  C   LIG A   1      -7.807   2.966 126.121  0.00  0.00    +0.136 C 
ATOM     26  O   LIG A   1      -8.748   2.829 128.309  0.00  0.00    -0.251 OA
ENDBRANCH  23  24
ENDBRANCH  11  23
BRANCH  15  27
ATOM     27  O   LIG A   1      -7.343  -2.995 131.582  0.00  0.00    -0.461 OA
BRANCH  27  28
ATOM     28  C   LIG A   1      -7.289  -3.368 132.897  0.00  0.00    +0.304 C 
ATOM     29  C   LIG A   1      -5.867  -3.656 133.287  0.00  0.00    +0.136 C 
ATOM     30  O   LIG A   1      -8.221  -3.403 133.700  0.00  0.00    -0.251 OA
ENDBRANCH  27  28
ENDBRANCH  15  27
TORSDOF 5
ENDMDL
MODEL 5
REMARK VINA RESULT:      -7.1      2.288      4.574
REMARK  Name = NuBBE_2242
REMARK  11 active torsions:
REMARK  status: ('A' for Active; 'I' for Inactive)
REMARK    1  A    between atoms: C_1  and  C_2
REMARK    2  A    between atoms: C_2  and  C_3
REMARK    3  A    between atoms: C_11  and  O_12
REMARK    4  A    between atoms: O_12  and  C_13
REMARK    5  A    between atoms: C_13  and  C_14
REMARK    6  A    between atoms: C_17  and  C_18
REMARK    7  A    between atoms: C_19  and  O_21
REMARK    8  A    between atoms: O_21  and  C_22
REMARK    9  A    between atoms: C_22  and  C_23
REMARK   10  A    between atoms: C_26  and  C_27
REMARK   11  A    between atoms: C_26  and  C_28
REMARK                            x       y       z     vdW  Elec       q    Type
REMARK                         _______ _______ _______ _____ _____    ______ ____
ROOT
ATOM      1  C   LIG A   1      -6.073   4.742 125.065  0.00  0.00    +0.014 C 
ATOM      2  C   LIG A   1      -6.978   3.564 125.483  0.00  0.00    +0.001 C 
ATOM      3  C   LIG A   1      -7.645   3.937 126.825  0.00  0.00    +0.014 C 
ATOM      4  C   LIG A   1      -8.052   3.433 124.373  0.00  0.00    +0.010 C 
ATOM      5  C   LIG A   1      -9.028   2.301 124.640  0.00  0.00    +0.003 C 
ATOM      6  C   LIG A   1      -8.368   0.928 124.756  0.00  0.00    +0.039 C 
ATOM      7  C   LIG A   1      -6.978   0.915 125.376  0.00  0.00    +0.117 C 
ATOM      8  O   LIG A   1      -6.062   1.496 124.410  0.00  0.00    -0.355 OA
ATOM      9  C   LIG A   1      -6.201   2.231 125.631  0.00  0.00    +0.133 C 
ATOM     10  C   LIG A   1      -5.049   2.155 126.575  0.00  0.00    +0.023 C 
ATOM     11  C   LIG A   1      -5.167   1.168 127.653  0.00  0.00    +0.137 C 
ATOM     12  C   LIG A   1      -5.717  -0.055 127.432  0.00  0.00    -0.014 C 
ATOM     13  C   LIG A   1      -6.418  -0.406 126.083  0.00  0.00    +0.062 C 
ATOM     14  C   LIG A   1      -5.341  -1.047 125.167  0.00  0.00    +0.022 C 
ATOM     15  C   LIG A   1      -7.595  -1.434 126.342  0.00  0.00    +0.190 C 
ATOM     16  C   LIG A   1      -7.356  -2.547 127.375  0.00  0.00    +0.056 C 
ATOM     17  C   LIG A   1      -6.813  -2.053 128.722  0.00  0.00    -0.007 C 
ATOM     18  C   LIG A   1      -6.365  -3.289 129.542  0.00  0.00    +0.016 C 
ATOM     19  C   LIG A   1      -5.546  -1.208 128.421  0.00  0.00    +0.046 C 
ATOM     20  C   LIG A   1      -3.882   2.782 126.321  0.00  0.00    +0.019 C 
ENDROOT
BRANCH  17  21
ATOM     21  C   LIG A   1      -7.887  -1.272 129.478  0.00  0.00    -0.028 C 
ATOM     22  C   LIG A   1      -7.911  -0.988 130.790  0.00  0.00    +0.004 C 
ENDBRANCH  17  21
BRANCH  11  23
ATOM     23  O   LIG A   1      -4.454   1.500 128.826  0.00  0.00    -0.426 OA
BRANCH  23  24
ATOM     24  C   LIG A   1      -5.124   2.332 129.700  0.00  0.00    +0.309 C 
ATOM     25  C   LIG A   1      -4.229   3.477 130.102  0.00  0.00    +0.136 C 
ATOM     26  O   LIG A   1      -6.236   2.186 130.139  0.00  0.00    -0.251 OA
ENDBRANCH  23  24
ENDBRANCH  11  23
BRANCH  15  27
ATOM     27  O   LIG A   1      -8.125  -1.934 125.073  0.00  0.00    -0.461 OA
BRANCH  27  28
ATOM     28  C   LIG A   1      -9.292  -2.640 124.970  0.00  0.00    +0.304 C 
ATOM     29  C   LIG A   1      -9.378  -3.287 123.618  0.00  0.00    +0.136 C 
ATOM     30  O   LIG A   1     -10.138  -2.813 125.848  0.00  0.00    -0.251 OA
ENDBRANCH  27  28
ENDBRANCH  15  27
TORSDOF 5
ENDMDL
MODEL 6
REMARK VINA RESULT:      -7.0      2.085      4.987
REMARK  Name = NuBBE_2242
REMARK  11 active torsions:
REMARK  status: ('A' for Active; 'I' for Inactive)
REMARK    1  A    between atoms: C_1  and  C_2
REMARK    2  A    between atoms: C_2  and  C_3
REMARK    3  A    between atoms: C_11  and  O_12
REMARK    4  A    between atoms: O_12  and  C_13
REMARK    5  A    between atoms: C_13  and  C_14
REMARK    6  A    between atoms: C_17  and  C_18
REMARK    7  A    between atoms: C_19  and  O_21
REMARK    8  A    between atoms: O_21  and  C_22
REMARK    9  A    between atoms: C_22  and  C_23
REMARK   10  A    between atoms: C_26  and  C_27
REMARK   11  A    between atoms: C_26  and  C_28
REMARK                            x       y       z     vdW  Elec       q    Type
REMARK                         _______ _______ _______ _____ _____    ______ ____
ROOT
ATOM      1  C   LIG A   1      -5.735  -2.356 132.656  0.00  0.00    +0.014 C 
ATOM      2  C   LIG A   1      -5.119  -2.093 131.265  0.00  0.00    +0.001 C 
ATOM      3  C   LIG A   1      -4.187  -0.868 131.388  0.00  0.00    +0.014 C 
ATOM      4  C   LIG A   1      -4.294  -3.357 130.914  0.00  0.00    +0.010 C 
ATOM      5  C   LIG A   1      -3.621  -3.254 129.558  0.00  0.00    +0.003 C 
ATOM      6  C   LIG A   1      -4.593  -3.047 128.397  0.00  0.00    +0.039 C 
ATOM      7  C   LIG A   1      -5.830  -2.218 128.714  0.00  0.00    +0.117 C 
ATOM      8  O   LIG A   1      -6.694  -3.025 129.557  0.00  0.00    -0.355 OA
ATOM      9  C   LIG A   1      -6.188  -1.835 130.172  0.00  0.00    +0.133 C 
ATOM     10  C   LIG A   1      -7.167  -0.724 130.351  0.00  0.00    +0.023 C 
ATOM     11  C   LIG A   1      -7.153   0.315 129.316  0.00  0.00    +0.137 C 
ATOM     12  C   LIG A   1      -6.982   0.003 128.005  0.00  0.00    -0.014 C 
ATOM     13  C   LIG A   1      -6.606  -1.442 127.550  0.00  0.00    +0.062 C 
ATOM     14  C   LIG A   1      -7.937  -2.184 127.253  0.00  0.00    +0.022 C 
ATOM     15  C   LIG A   1      -5.714  -1.376 126.242  0.00  0.00    +0.190 C 
ATOM     16  C   LIG A   1      -6.081  -0.327 125.180  0.00  0.00    +0.056 C 
ATOM     17  C   LIG A   1      -6.269   1.092 125.733  0.00  0.00    -0.007 C 
ATOM     18  C   LIG A   1      -6.899   1.963 124.617  0.00  0.00    +0.016 C 
ATOM     19  C   LIG A   1      -7.301   0.998 126.890  0.00  0.00    +0.046 C 
ATOM     20  C   LIG A   1      -8.152  -0.789 131.269  0.00  0.00    +0.019 C 
ENDROOT
BRANCH  17  21
ATOM     21  C   LIG A   1      -4.929   1.678 126.173  0.00  0.00    -0.028 C 
ATOM     22  C   LIG A   1      -4.552   2.965 126.129  0.00  0.00    +0.004 C 
ENDBRANCH  17  21
BRANCH  11  23
ATOM     23  O   LIG A   1      -7.572   1.587 129.765  0.00  0.00    -0.426 OA
BRANCH  23  24
ATOM     24  C   LIG A   1      -6.671   2.247 130.575  0.00  0.00    +0.309 C 
ATOM     25  C   LIG A   1      -5.426   2.579 129.792  0.00  0.00    +0.136 C 
ATOM     26  O   LIG A   1      -6.793   2.502 131.746  0.00  0.00    -0.251 OA
ENDBRANCH  23  24
ENDBRANCH  11  23
BRANCH  15  27
ATOM     27  O   LIG A   1      -5.528  -2.716 125.684  0.00  0.00    -0.461 OA
BRANCH  27  28
ATOM     28  C   LIG A   1      -5.906  -3.063 124.416  0.00  0.00    +0.304 C 
ATOM     29  C   LIG A   1      -4.690  -3.233 123.550  0.00  0.00    +0.136 C 
ATOM     30  O   LIG A   1      -7.047  -3.288 124.015  0.00  0.00    -0.251 OA
ENDBRANCH  27  28
ENDBRANCH  15  27
TORSDOF 5
ENDMDL
MODEL 7
REMARK VINA RESULT:      -6.9      4.661      7.028
REMARK  Name = NuBBE_2242
REMARK  11 active torsions:
REMARK  status: ('A' for Active; 'I' for Inactive)
REMARK    1  A    between atoms: C_1  and  C_2
REMARK    2  A    between atoms: C_2  and  C_3
REMARK    3  A    between atoms: C_11  and  O_12
REMARK    4  A    between atoms: O_12  and  C_13
REMARK    5  A    between atoms: C_13  and  C_14
REMARK    6  A    between atoms: C_17  and  C_18
REMARK    7  A    between atoms: C_19  and  O_21
REMARK    8  A    between atoms: O_21  and  C_22
REMARK    9  A    between atoms: C_22  and  C_23
REMARK   10  A    between atoms: C_26  and  C_27
REMARK   11  A    between atoms: C_26  and  C_28
REMARK                            x       y       z     vdW  Elec       q    Type
REMARK                         _______ _______ _______ _____ _____    ______ ____
ROOT
ATOM      1  C   LIG A   1      -1.221   6.259 131.363  0.00  0.00    +0.014 C 
ATOM      2  C   LIG A   1      -2.494   6.357 130.496  0.00  0.00    +0.001 C 
ATOM      3  C   LIG A   1      -3.389   7.462 131.099  0.00  0.00    +0.014 C 
ATOM      4  C   LIG A   1      -2.019   6.770 129.080  0.00  0.00    +0.010 C 
ATOM      5  C   LIG A   1      -3.168   6.906 128.098  0.00  0.00    +0.003 C 
ATOM      6  C   LIG A   1      -3.983   5.627 127.915  0.00  0.00    +0.039 C 
ATOM      7  C   LIG A   1      -4.121   4.751 129.153  0.00  0.00    +0.117 C 
ATOM      8  O   LIG A   1      -2.829   4.133 129.398  0.00  0.00    -0.355 OA
ATOM      9  C   LIG A   1      -3.279   5.022 130.425  0.00  0.00    +0.133 C 
ATOM     10  C   LIG A   1      -3.749   4.380 131.687  0.00  0.00    +0.023 C 
ATOM     11  C   LIG A   1      -5.197   4.188 131.809  0.00  0.00    +0.137 C 
ATOM     12  C   LIG A   1      -5.951   3.812 130.743  0.00  0.00    -0.014 C 
ATOM     13  C   LIG A   1      -5.355   3.746 129.301  0.00  0.00    +0.062 C 
ATOM     14  C   LIG A   1      -4.850   2.294 129.087  0.00  0.00    +0.022 C 
ATOM     15  C   LIG A   1      -6.480   4.093 128.241  0.00  0.00    +0.190 C 
ATOM     16  C   LIG A   1      -7.894   3.546 128.494  0.00  0.00    +0.056 C 
ATOM     17  C   LIG A   1      -8.432   3.816 129.906  0.00  0.00    -0.007 C 
ATOM     18  C   LIG A   1      -9.721   2.977 130.096  0.00  0.00    +0.016 C 
ATOM     19  C   LIG A   1      -7.374   3.279 130.908  0.00  0.00    +0.046 C 
ATOM     20  C   LIG A   1      -2.889   3.803 132.551  0.00  0.00    +0.019 C 
ENDROOT
BRANCH  17  21
ATOM     21  C   LIG A   1      -8.731   5.302 130.090  0.00  0.00    -0.028 C 
ATOM     22  C   LIG A   1      -9.824   5.848 130.647  0.00  0.00    +0.004 C 
ENDBRANCH  17  21
BRANCH  11  23
ATOM     23  O   LIG A   1      -5.674   4.184 133.138  0.00  0.00    -0.426 OA
BRANCH  23  24
ATOM     24  C   LIG A   1      -5.966   5.429 133.658  0.00  0.00    +0.309 C 
ATOM     25  C   LIG A   1      -7.452   5.675 133.591  0.00  0.00    +0.136 C 
ATOM     26  O   LIG A   1      -5.186   6.248 134.072  0.00  0.00    -0.251 OA
ENDBRANCH  23  24
ENDBRANCH  11  23
BRANCH  15  27
ATOM     27  O   LIG A   1      -5.999   3.833 126.883  0.00  0.00    -0.461 OA
BRANCH  27  28
ATOM     28  C   LIG A   1      -6.619   4.309 125.761  0.00  0.00    +0.304 C 
ATOM     29  C   LIG A   1      -6.754   3.208 124.748  0.00  0.00    +0.136 C 
ATOM     30  O   LIG A   1      -7.081   5.436 125.587  0.00  0.00    -0.251 OA
ENDBRANCH  27  28
ENDBRANCH  15  27
TORSDOF 5
ENDMDL
MODEL 8
REMARK VINA RESULT:      -6.8      3.861      7.041
REMARK  Name = NuBBE_2242
REMARK  11 active torsions:
REMARK  status: ('A' for Active; 'I' for Inactive)
REMARK    1  A    between atoms: C_1  and  C_2
REMARK    2  A    between atoms: C_2  and  C_3
REMARK    3  A    between atoms: C_11  and  O_12
REMARK    4  A    between atoms: O_12  and  C_13
REMARK    5  A    between atoms: C_13  and  C_14
REMARK    6  A    between atoms: C_17  and  C_18
REMARK    7  A    between atoms: C_19  and  O_21
REMARK    8  A    between atoms: O_21  and  C_22
REMARK    9  A    between atoms: C_22  and  C_23
REMARK   10  A    between atoms: C_26  and  C_27
REMARK   11  A    between atoms: C_26  and  C_28
REMARK                            x       y       z     vdW  Elec       q    Type
REMARK                         _______ _______ _______ _____ _____    ______ ____
ROOT
ATOM      1  C   LIG A   1     -10.272   3.971 131.196  0.00  0.00    +0.014 C 
ATOM      2  C   LIG A   1      -9.034   4.729 130.670  0.00  0.00    +0.001 C 
ATOM      3  C   LIG A   1      -9.325   5.150 129.213  0.00  0.00    +0.014 C 
ATOM      4  C   LIG A   1      -8.885   5.983 131.568  0.00  0.00    +0.010 C 
ATOM      5  C   LIG A   1      -7.695   6.840 131.176  0.00  0.00    +0.003 C 
ATOM      6  C   LIG A   1      -6.356   6.110 131.243  0.00  0.00    +0.039 C 
ATOM      7  C   LIG A   1      -6.394   4.629 130.891  0.00  0.00    +0.117 C 
ATOM      8  O   LIG A   1      -7.055   3.935 131.982  0.00  0.00    -0.355 OA
ATOM      9  C   LIG A   1      -7.739   3.878 130.725  0.00  0.00    +0.133 C 
ATOM     10  C   LIG A   1      -7.691   2.568 130.014  0.00  0.00    +0.023 C 
ATOM     11  C   LIG A   1      -6.662   2.439 128.977  0.00  0.00    +0.137 C 
ATOM     12  C   LIG A   1      -5.421   2.965 129.145  0.00  0.00    -0.014 C 
ATOM     13  C   LIG A   1      -5.081   3.888 130.357  0.00  0.00    +0.062 C 
ATOM     14  C   LIG A   1      -4.528   2.972 131.482  0.00  0.00    +0.022 C 
ATOM     15  C   LIG A   1      -3.984   4.950 129.931  0.00  0.00    +0.190 C 
ATOM     16  C   LIG A   1      -2.849   4.473 129.009  0.00  0.00    +0.056 C 
ATOM     17  C   LIG A   1      -3.325   3.712 127.764  0.00  0.00    -0.007 C 
ATOM     18  C   LIG A   1      -2.087   3.064 127.095  0.00  0.00    +0.016 C 
ATOM     19  C   LIG A   1      -4.245   2.561 128.256  0.00  0.00    +0.046 C 
ATOM     20  C   LIG A   1      -8.386   1.499 130.451  0.00  0.00    +0.019 C 
ENDROOT
BRANCH  17  21
ATOM     21  C   LIG A   1      -4.022   4.660 126.790  0.00  0.00    -0.028 C 
ATOM     22  C   LIG A   1      -4.757   4.326 125.717  0.00  0.00    +0.004 C 
ENDBRANCH  17  21
BRANCH  11  23
ATOM     23  O   LIG A   1      -6.991   1.537 127.941  0.00  0.00    -0.426 OA
BRANCH  23  24
ATOM     24  C   LIG A   1      -7.502   2.119 126.799  0.00  0.00    +0.309 C 
ATOM     25  C   LIG A   1      -7.033   1.360 125.584  0.00  0.00    +0.136 C 
ATOM     26  O   LIG A   1      -8.187   3.108 126.728  0.00  0.00    -0.251 OA
ENDBRANCH  23  24
ENDBRANCH  11  23
BRANCH  15  27
ATOM     27  O   LIG A   1      -3.501   5.683 131.101  0.00  0.00    -0.461 OA
BRANCH  27  28
ATOM     28  C   LIG A   1      -2.641   6.744 131.023  0.00  0.00    +0.304 C 
ATOM     29  C   LIG A   1      -3.392   7.981 130.623  0.00  0.00    +0.136 C 
ATOM     30  O   LIG A   1      -1.442   6.751 131.301  0.00  0.00    -0.251 OA
ENDBRANCH  27  28
ENDBRANCH  15  27
TORSDOF 5
ENDMDL
MODEL 9
REMARK VINA RESULT:      -6.5      2.728      5.340
REMARK  Name = NuBBE_2242
REMARK  11 active torsions:
REMARK  status: ('A' for Active; 'I' for Inactive)
REMARK    1  A    between atoms: C_1  and  C_2
REMARK    2  A    between atoms: C_2  and  C_3
REMARK    3  A    between atoms: C_11  and  O_12
REMARK    4  A    between atoms: O_12  and  C_13
REMARK    5  A    between atoms: C_13  and  C_14
REMARK    6  A    between atoms: C_17  and  C_18
REMARK    7  A    between atoms: C_19  and  O_21
REMARK    8  A    between atoms: O_21  and  C_22
REMARK    9  A    between atoms: C_22  and  C_23
REMARK   10  A    between atoms: C_26  and  C_27
REMARK   11  A    between atoms: C_26  and  C_28
REMARK                            x       y       z     vdW  Elec       q    Type
REMARK                         _______ _______ _______ _____ _____    ______ ____
ROOT
ATOM      1  C   LIG A   1      -8.249  -2.711 127.298  0.00  0.00    +0.014 C 
ATOM      2  C   LIG A   1      -7.346  -1.574 126.774  0.00  0.00    +0.001 C 
ATOM      3  C   LIG A   1      -5.889  -2.086 126.787  0.00  0.00    +0.014 C 
ATOM      4  C   LIG A   1      -7.802  -1.301 125.318  0.00  0.00    +0.010 C 
ATOM      5  C   LIG A   1      -7.003  -0.191 124.658  0.00  0.00    +0.003 C 
ATOM      6  C   LIG A   1      -7.084   1.149 125.386  0.00  0.00    +0.039 C 
ATOM      7  C   LIG A   1      -7.194   1.070 126.902  0.00  0.00    +0.117 C 
ATOM      8  O   LIG A   1      -8.526   0.588 127.221  0.00  0.00    -0.355 OA
ATOM      9  C   LIG A   1      -7.458  -0.278 127.618  0.00  0.00    +0.133 C 
ATOM     10  C   LIG A   1      -7.166  -0.328 129.080  0.00  0.00    +0.023 C 
ATOM     11  C   LIG A   1      -6.073   0.532 129.545  0.00  0.00    +0.137 C 
ATOM     12  C   LIG A   1      -5.894   1.780 129.039  0.00  0.00    -0.014 C 
ATOM     13  C   LIG A   1      -6.714   2.293 127.814  0.00  0.00    +0.062 C 
ATOM     14  C   LIG A   1      -7.965   3.018 128.381  0.00  0.00    +0.022 C 
ATOM     15  C   LIG A   1      -5.837   3.303 126.966  0.00  0.00    +0.190 C 
ATOM     16  C   LIG A   1      -4.940   4.288 127.733  0.00  0.00    +0.056 C 
ATOM     17  C   LIG A   1      -4.059   3.635 128.808  0.00  0.00    -0.007 C 
ATOM     18  C   LIG A   1      -3.436   4.763 129.668  0.00  0.00    +0.016 C 
ATOM     19  C   LIG A   1      -5.000   2.810 129.729  0.00  0.00    +0.046 C 
ATOM     20  C   LIG A   1      -7.996  -0.940 129.948  0.00  0.00    +0.019 C 
ENDROOT
BRANCH  17  21
ATOM     21  C   LIG A   1      -2.963   2.790 128.161  0.00  0.00    -0.028 C 
ATOM     22  C   LIG A   1      -2.189   3.126 127.117  0.00  0.00    +0.004 C 
ENDBRANCH  17  21
BRANCH  11  23
ATOM     23  O   LIG A   1      -5.410   0.058 130.698  0.00  0.00    -0.426 OA
BRANCH  23  24
ATOM     24  C   LIG A   1      -4.609  -1.048 130.498  0.00  0.00    +0.309 C 
ATOM     25  C   LIG A   1      -4.848  -2.057 131.592  0.00  0.00    +0.136 C 
ATOM     26  O   LIG A   1      -3.796  -1.212 129.625  0.00  0.00    -0.251 OA
ENDBRANCH  23  24
ENDBRANCH  11  23
BRANCH  15  27
ATOM     27  O   LIG A   1      -6.653   3.952 125.940  0.00  0.00    -0.461 OA
BRANCH  27  28
ATOM     28  C   LIG A   1      -6.155   4.850 125.037  0.00  0.00    +0.304 C 
ATOM     29  C   LIG A   1      -5.398   4.125 123.962  0.00  0.00    +0.136 C 
ATOM     30  O   LIG A   1      -6.335   6.068 125.022  0.00  0.00    -0.251 OA
ENDBRANCH  27  28
ENDBRANCH  15  27
TORSDOF 5
ENDMDL
