MODEL 1
REMARK VINA RESULT:      -7.9      0.000      0.000
REMARK  Name = NuBBE_636
REMARK  23 active torsions:
REMARK  status: ('A' for Active; 'I' for Inactive)
REMARK    1  A    between atoms: O_1  and  C_2
REMARK    2  A    between atoms: C_6  and  O_8
REMARK    3  A    between atoms: O_8  and  C_9
REMARK    4  A    between atoms: C_9  and  C_10
REMARK    5  A    between atoms: C_13  and  O_15
REMARK    6  A    between atoms: O_15  and  C_16
REMARK    7  A    between atoms: C_16  and  C_17
REMARK    8  A    between atoms: C_20  and  O_22
REMARK    9  A    between atoms: C_23  and  O_25
REMARK   10  A    between atoms: O_25  and  C_26
REMARK   11  A    between atoms: C_26  and  C_27
REMARK   12  A    between atoms: C_28  and  C_29
REMARK   13  A    between atoms: C_30  and  C_31
REMARK   14  A    between atoms: C_31  and  C_32
REMARK   15  A    between atoms: C_32  and  C_33
REMARK   16  A    between atoms: C_33  and  C_34
REMARK   17  A    between atoms: C_34  and  C_35
REMARK   18  A    between atoms: C_37  and  C_39
REMARK   19  A    between atoms: C_40  and  C_41
REMARK   20  A    between atoms: C_40  and  C_42
REMARK   21  A    between atoms: C_42  and  C_43
REMARK   22  A    between atoms: C_43  and  C_44
REMARK   23  A    between atoms: C_44  and  C_45
REMARK                            x       y       z     vdW  Elec       q    Type
REMARK                         _______ _______ _______ _____ _____    ______ ____
ROOT
ATOM      1  C   LIG A   1      -8.425   1.031 130.178  0.00  0.00    +0.138 C 
ATOM      2  C   LIG A   1      -8.664   2.388 130.730  0.00  0.00    +0.010 C 
ATOM      3  C   LIG A   1      -8.038   3.442 130.187  0.00  0.00    +0.011 C 
ATOM      4  C   LIG A   1      -7.930   4.830 130.775  0.00  0.00    +0.343 C 
ATOM      5  O   LIG A   1      -6.982   5.491 129.911  0.00  0.00    -0.297 OA
ATOM      6  C   LIG A   1      -6.204   4.453 129.298  0.00  0.00    +0.327 C 
ATOM      7  C   LIG A   1      -7.211   3.350 128.900  0.00  0.00    +0.093 C 
ATOM      8  C   LIG A   1      -8.190   3.696 127.749  0.00  0.00    +0.172 C 
ATOM      9  C   LIG A   1      -7.677   3.567 126.303  0.00  0.00    +0.210 C 
ATOM     10  C   LIG A   1      -6.662   2.412 126.039  0.00  0.00    +0.036 C 
ATOM     11  C   LIG A   1      -5.316   2.952 125.527  0.00  0.00    +0.012 C 
ATOM     12  C   LIG A   1      -6.566   1.319 127.176  0.00  0.00    -0.022 C 
ATOM     13  C   LIG A   1      -7.828   0.434 127.041  0.00  0.00    +0.012 C 
ATOM     14  C   LIG A   1      -6.503   1.949 128.659  0.00  0.00    +0.017 C 
ATOM     15  C   LIG A   1      -6.943   0.924 129.765  0.00  0.00    +0.040 C 
ENDROOT
BRANCH   1  16
ATOM     16  O   LIG A   1      -8.695   0.083 131.199  0.00  0.00    -0.388 OA
ATOM     17  H   LIG A   1      -8.664  -0.796 130.780  0.00  0.00    +0.210 HD
ENDBRANCH   1  16
BRANCH   8  18
ATOM     18  O   LIG A   1      -8.820   4.979 127.911  0.00  0.00    -0.387 OA
ATOM     19  H   LIG A   1      -9.009   5.126 128.859  0.00  0.00    +0.210 HD
ENDBRANCH   8  18
BRANCH   9  20
ATOM     20  O   LIG A   1      -8.889   3.221 125.529  0.00  0.00    -0.455 OA
BRANCH  20  21
ATOM     21  C   LIG A   1      -8.766   2.919 124.199  0.00  0.00    +0.332 C 
ATOM     22  O   LIG A   1      -8.245   3.574 123.348  0.00  0.00    -0.246 OA
BRANCH  21  23
ATOM     23  C   LIG A   1      -9.446   1.593 124.017  0.00  0.00    +0.091 C 
ATOM     24  C   LIG A   1      -9.079   0.714 123.070  0.00  0.00    +0.007 C 
BRANCH  24  25
ATOM     25  C   LIG A   1      -9.666  -0.619 123.002  0.00  0.00    -0.004 C 
ATOM     26  C   LIG A   1      -8.926  -1.725 122.789  0.00  0.00    -0.027 C 
BRANCH  26  27
ATOM     27  C   LIG A   1      -9.386  -3.100 123.227  0.00  0.00    +0.027 C 
BRANCH  27  28
ATOM     28  C   LIG A   1      -8.822  -3.645 124.562  0.00  0.00    +0.004 C 
BRANCH  28  29
ATOM     29  C   LIG A   1      -9.377  -2.976 125.833  0.00  0.00    +0.000 C 
BRANCH  29  30
ATOM     30  C   LIG A   1      -8.534  -3.196 127.103  0.00  0.00    -0.003 C 
ATOM     31  C   LIG A   1      -9.194  -4.108 128.130  0.00  0.00    +0.004 C 
ENDBRANCH  29  30
ENDBRANCH  28  29
ENDBRANCH  27  28
ENDBRANCH  26  27
ENDBRANCH  24  25
ENDBRANCH  21  23
ENDBRANCH  20  21
ENDBRANCH   9  20
BRANCH  12  32
ATOM     32  C   LIG A   1      -5.310   0.340 126.958  0.00  0.00    +0.012 C 
BRANCH  32  33
ATOM     33  C   LIG A   1      -5.642  -1.156 126.684  0.00  0.00    +0.035 C 
BRANCH  33  34
ATOM     34  C   LIG A   1      -5.701  -1.590 125.225  0.00  0.00    -0.055 C 
ATOM     35  C   LIG A   1      -5.958  -0.700 124.249  0.00  0.00    +0.012 C 
BRANCH  34  36
ATOM     36  C   LIG A   1      -5.353  -2.958 124.890  0.00  0.00    -0.005 C 
ATOM     37  C   LIG A   1      -4.990  -3.355 123.662  0.00  0.00    +0.008 C 
ENDBRANCH  34  36
ENDBRANCH  33  34
ENDBRANCH  32  33
ENDBRANCH  12  32
BRANCH   6  38
ATOM     38  O   LIG A   1      -5.455   4.912 128.179  0.00  0.00    -0.434 OA
BRANCH  38  39
ATOM     39  C   LIG A   1      -4.117   4.958 128.438  0.00  0.00    +0.306 C 
ATOM     40  C   LIG A   1      -3.600   6.353 128.293  0.00  0.00    +0.136 C 
ATOM     41  O   LIG A   1      -3.386   3.993 128.625  0.00  0.00    -0.251 OA
ENDBRANCH  38  39
ENDBRANCH   6  38
BRANCH   4  42
ATOM     42  O   LIG A   1      -7.396   4.694 132.095  0.00  0.00    -0.431 OA
BRANCH  42  43
ATOM     43  C   LIG A   1      -8.188   5.191 133.081  0.00  0.00    +0.306 C 
ATOM     44  C   LIG A   1      -8.361   4.147 134.148  0.00  0.00    +0.136 C 
ATOM     45  O   LIG A   1      -8.814   6.245 133.045  0.00  0.00    -0.251 OA
ENDBRANCH  42  43
ENDBRANCH   4  42
TORSDOF 18
ENDMDL
MODEL 2
REMARK VINA RESULT:      -7.4      2.020      4.990
REMARK  Name = NuBBE_636
REMARK  23 active torsions:
REMARK  status: ('A' for Active; 'I' for Inactive)
REMARK    1  A    between atoms: O_1  and  C_2
REMARK    2  A    between atoms: C_6  and  O_8
REMARK    3  A    between atoms: O_8  and  C_9
REMARK    4  A    between atoms: C_9  and  C_10
REMARK    5  A    between atoms: C_13  and  O_15
REMARK    6  A    between atoms: O_15  and  C_16
REMARK    7  A    between atoms: C_16  and  C_17
REMARK    8  A    between atoms: C_20  and  O_22
REMARK    9  A    between atoms: C_23  and  O_25
REMARK   10  A    between atoms: O_25  and  C_26
REMARK   11  A    between atoms: C_26  and  C_27
REMARK   12  A    between atoms: C_28  and  C_29
REMARK   13  A    between atoms: C_30  and  C_31
REMARK   14  A    between atoms: C_31  and  C_32
REMARK   15  A    between atoms: C_32  and  C_33
REMARK   16  A    between atoms: C_33  and  C_34
REMARK   17  A    between atoms: C_34  and  C_35
REMARK   18  A    between atoms: C_37  and  C_39
REMARK   19  A    between atoms: C_40  and  C_41
REMARK   20  A    between atoms: C_40  and  C_42
REMARK   21  A    between atoms: C_42  and  C_43
REMARK   22  A    between atoms: C_43  and  C_44
REMARK   23  A    between atoms: C_44  and  C_45
REMARK                            x       y       z     vdW  Elec       q    Type
REMARK                         _______ _______ _______ _____ _____    ______ ____
ROOT
ATOM      1  C   LIG A   1      -3.063   2.713 126.962  0.00  0.00    +0.138 C 
ATOM      2  C   LIG A   1      -3.178   3.490 128.222  0.00  0.00    +0.010 C 
ATOM      3  C   LIG A   1      -4.389   3.727 128.744  0.00  0.00    +0.011 C 
ATOM      4  C   LIG A   1      -4.725   4.718 129.835  0.00  0.00    +0.343 C 
ATOM      5  O   LIG A   1      -6.167   4.728 129.851  0.00  0.00    -0.297 OA
ATOM      6  C   LIG A   1      -6.587   4.280 128.554  0.00  0.00    +0.327 C 
ATOM      7  C   LIG A   1      -5.672   3.086 128.203  0.00  0.00    +0.093 C 
ATOM      8  C   LIG A   1      -5.876   1.795 129.036  0.00  0.00    +0.172 C 
ATOM      9  C   LIG A   1      -7.031   0.856 128.639  0.00  0.00    +0.210 C 
ATOM     10  C   LIG A   1      -7.344   0.766 127.114  0.00  0.00    +0.036 C 
ATOM     11  C   LIG A   1      -8.783   1.216 126.808  0.00  0.00    +0.012 C 
ATOM     12  C   LIG A   1      -6.232   1.352 126.156  0.00  0.00    -0.022 C 
ATOM     13  C   LIG A   1      -5.086   0.312 126.129  0.00  0.00    +0.012 C 
ATOM     14  C   LIG A   1      -5.659   2.777 126.646  0.00  0.00    +0.017 C 
ATOM     15  C   LIG A   1      -4.242   3.092 126.044  0.00  0.00    +0.040 C 
ENDROOT
BRANCH   1  16
ATOM     16  O   LIG A   1      -1.844   3.071 126.330  0.00  0.00    -0.388 OA
ATOM     17  H   LIG A   1      -1.799   4.044 126.339  0.00  0.00    +0.210 HD
ENDBRANCH   1  16
BRANCH   8  18
ATOM     18  O   LIG A   1      -5.935   2.040 130.453  0.00  0.00    -0.387 OA
ATOM     19  H   LIG A   1      -6.860   1.957 130.754  0.00  0.00    +0.210 HD
ENDBRANCH   8  18
BRANCH   9  20
ATOM     20  O   LIG A   1      -6.544  -0.485 129.030  0.00  0.00    -0.455 OA
BRANCH  20  21
ATOM     21  C   LIG A   1      -7.437  -1.521 129.104  0.00  0.00    +0.332 C 
ATOM     22  O   LIG A   1      -8.097  -1.848 130.043  0.00  0.00    -0.246 OA
BRANCH  21  23
ATOM     23  C   LIG A   1      -7.403  -2.186 127.759  0.00  0.00    +0.091 C 
ATOM     24  C   LIG A   1      -8.464  -2.825 127.240  0.00  0.00    +0.007 C 
BRANCH  24  25
ATOM     25  C   LIG A   1      -8.445  -3.346 125.877  0.00  0.00    -0.004 C 
ATOM     26  C   LIG A   1      -9.001  -2.683 124.844  0.00  0.00    -0.027 C 
BRANCH  26  27
ATOM     27  C   LIG A   1      -8.557  -2.905 123.412  0.00  0.00    +0.027 C 
BRANCH  27  28
ATOM     28  C   LIG A   1      -7.712  -1.789 122.750  0.00  0.00    +0.004 C 
BRANCH  28  29
ATOM     29  C   LIG A   1      -6.225  -2.128 122.536  0.00  0.00    +0.000 C 
BRANCH  29  30
ATOM     30  C   LIG A   1      -5.461  -2.528 123.811  0.00  0.00    -0.003 C 
ATOM     31  C   LIG A   1      -4.717  -3.853 123.692  0.00  0.00    +0.004 C 
ENDBRANCH  29  30
ENDBRANCH  28  29
ENDBRANCH  27  28
ENDBRANCH  26  27
ENDBRANCH  24  25
ENDBRANCH  21  23
ENDBRANCH  20  21
ENDBRANCH   9  20
BRANCH  12  32
ATOM     32  C   LIG A   1      -6.756   1.478 124.642  0.00  0.00    +0.012 C 
BRANCH  32  33
ATOM     33  C   LIG A   1      -7.054   2.919 124.133  0.00  0.00    +0.035 C 
BRANCH  33  34
ATOM     34  C   LIG A   1      -7.350   3.077 122.648  0.00  0.00    -0.055 C 
ATOM     35  C   LIG A   1      -8.608   2.990 122.181  0.00  0.00    +0.012 C 
BRANCH  34  36
ATOM     36  C   LIG A   1      -6.266   3.447 121.757  0.00  0.00    -0.005 C 
ATOM     37  C   LIG A   1      -5.263   4.266 122.103  0.00  0.00    +0.008 C 
ENDBRANCH  34  36
ENDBRANCH  33  34
ENDBRANCH  32  33
ENDBRANCH  12  32
BRANCH   6  38
ATOM     38  O   LIG A   1      -7.962   3.920 128.514  0.00  0.00    -0.434 OA
BRANCH  38  39
ATOM     39  C   LIG A   1      -8.720   4.677 129.359  0.00  0.00    +0.306 C 
ATOM     40  C   LIG A   1      -9.362   3.821 130.401  0.00  0.00    +0.136 C 
ATOM     41  O   LIG A   1      -8.974   5.868 129.225  0.00  0.00    -0.251 OA
ENDBRANCH  38  39
ENDBRANCH   6  38
BRANCH   4  42
ATOM     42  O   LIG A   1      -4.218   5.992 129.426  0.00  0.00    -0.431 OA
BRANCH  42  43
ATOM     43  C   LIG A   1      -3.621   6.708 130.413  0.00  0.00    +0.306 C 
ATOM     44  C   LIG A   1      -2.137   6.473 130.366  0.00  0.00    +0.136 C 
ATOM     45  O   LIG A   1      -4.191   7.312 131.316  0.00  0.00    -0.251 OA
ENDBRANCH  42  43
ENDBRANCH   4  42
TORSDOF 18
ENDMDL
MODEL 3
REMARK VINA RESULT:      -7.4      1.379      1.906
REMARK  Name = NuBBE_636
REMARK  23 active torsions:
REMARK  status: ('A' for Active; 'I' for Inactive)
REMARK    1  A    between atoms: O_1  and  C_2
REMARK    2  A    between atoms: C_6  and  O_8
REMARK    3  A    between atoms: O_8  and  C_9
REMARK    4  A    between atoms: C_9  and  C_10
REMARK    5  A    between atoms: C_13  and  O_15
REMARK    6  A    between atoms: O_15  and  C_16
REMARK    7  A    between atoms: C_16  and  C_17
REMARK    8  A    between atoms: C_20  and  O_22
REMARK    9  A    between atoms: C_23  and  O_25
REMARK   10  A    between atoms: O_25  and  C_26
REMARK   11  A    between atoms: C_26  and  C_27
REMARK   12  A    between atoms: C_28  and  C_29
REMARK   13  A    between atoms: C_30  and  C_31
REMARK   14  A    between atoms: C_31  and  C_32
REMARK   15  A    between atoms: C_32  and  C_33
REMARK   16  A    between atoms: C_33  and  C_34
REMARK   17  A    between atoms: C_34  and  C_35
REMARK   18  A    between atoms: C_37  and  C_39
REMARK   19  A    between atoms: C_40  and  C_41
REMARK   20  A    between atoms: C_40  and  C_42
REMARK   21  A    between atoms: C_42  and  C_43
REMARK   22  A    between atoms: C_43  and  C_44
REMARK   23  A    between atoms: C_44  and  C_45
REMARK                            x       y       z     vdW  Elec       q    Type
REMARK                         _______ _______ _______ _____ _____    ______ ____
ROOT
ATOM      1  C   LIG A   1      -8.576   1.405 130.719  0.00  0.00    +0.138 C 
ATOM      2  C   LIG A   1      -8.819   2.838 131.020  0.00  0.00    +0.010 C 
ATOM      3  C   LIG A   1      -8.127   3.779 130.362  0.00  0.00    +0.011 C 
ATOM      4  C   LIG A   1      -8.027   5.243 130.720  0.00  0.00    +0.343 C 
ATOM      5  O   LIG A   1      -7.000   5.739 129.836  0.00  0.00    -0.297 OA
ATOM      6  C   LIG A   1      -6.206   4.603 129.465  0.00  0.00    +0.327 C 
ATOM      7  C   LIG A   1      -7.209   3.463 129.176  0.00  0.00    +0.093 C 
ATOM      8  C   LIG A   1      -8.090   3.627 127.911  0.00  0.00    +0.172 C 
ATOM      9  C   LIG A   1      -7.473   3.251 126.550  0.00  0.00    +0.210 C 
ATOM     10  C   LIG A   1      -6.473   2.055 126.560  0.00  0.00    +0.036 C 
ATOM     11  C   LIG A   1      -5.078   2.485 126.073  0.00  0.00    +0.012 C 
ATOM     12  C   LIG A   1      -6.490   1.165 127.866  0.00  0.00    -0.022 C 
ATOM     13  C   LIG A   1      -7.762   0.287 127.780  0.00  0.00    +0.012 C 
ATOM     14  C   LIG A   1      -6.522   2.032 129.225  0.00  0.00    +0.017 C 
ATOM     15  C   LIG A   1      -7.071   1.211 130.447  0.00  0.00    +0.040 C 
ENDROOT
BRANCH   1  16
ATOM     16  O   LIG A   1      -8.947   0.644 131.858  0.00  0.00    -0.388 OA
ATOM     17  H   LIG A   1      -9.920   0.634 131.883  0.00  0.00    +0.210 HD
ENDBRANCH   1  16
BRANCH   8  18
ATOM     18  O   LIG A   1      -8.696   4.927 127.810  0.00  0.00    -0.387 OA
ATOM     19  H   LIG A   1      -8.007   5.611 127.916  0.00  0.00    +0.210 HD
ENDBRANCH   8  18
BRANCH   9  20
ATOM     20  O   LIG A   1      -8.633   2.798 125.752  0.00  0.00    -0.455 OA
BRANCH  20  21
ATOM     21  C   LIG A   1      -8.478   2.600 124.406  0.00  0.00    +0.332 C 
ATOM     22  O   LIG A   1      -8.566   3.411 123.534  0.00  0.00    -0.246 OA
BRANCH  21  23
ATOM     23  C   LIG A   1      -8.192   1.136 124.239  0.00  0.00    +0.091 C 
ATOM     24  C   LIG A   1      -7.344   0.664 123.311  0.00  0.00    +0.007 C 
BRANCH  24  25
ATOM     25  C   LIG A   1      -6.983  -0.748 123.260  0.00  0.00    -0.004 C 
ATOM     26  C   LIG A   1      -7.133  -1.570 124.317  0.00  0.00    -0.027 C 
BRANCH  26  27
ATOM     27  C   LIG A   1      -7.276  -3.071 124.158  0.00  0.00    +0.027 C 
BRANCH  27  28
ATOM     28  C   LIG A   1      -8.260  -3.794 125.110  0.00  0.00    +0.004 C 
BRANCH  28  29
ATOM     29  C   LIG A   1      -8.568  -3.055 126.425  0.00  0.00    +0.000 C 
BRANCH  29  30
ATOM     30  C   LIG A   1      -8.943  -3.965 127.609  0.00  0.00    -0.003 C 
ATOM     31  C   LIG A   1      -8.546  -3.403 128.968  0.00  0.00    +0.004 C 
ENDBRANCH  29  30
ENDBRANCH  28  29
ENDBRANCH  27  28
ENDBRANCH  26  27
ENDBRANCH  24  25
ENDBRANCH  21  23
ENDBRANCH  20  21
ENDBRANCH   9  20
BRANCH  12  32
ATOM     32  C   LIG A   1      -5.248   0.147 127.911  0.00  0.00    +0.012 C 
BRANCH  32  33
ATOM     33  C   LIG A   1      -5.600  -1.370 127.919  0.00  0.00    +0.035 C 
BRANCH  33  34
ATOM     34  C   LIG A   1      -5.054  -2.195 129.076  0.00  0.00    -0.055 C 
ATOM     35  C   LIG A   1      -5.421  -1.936 130.345  0.00  0.00    +0.012 C 
BRANCH  34  36
ATOM     36  C   LIG A   1      -4.227  -3.350 128.780  0.00  0.00    -0.005 C 
ATOM     37  C   LIG A   1      -2.966  -3.495 129.211  0.00  0.00    +0.008 C 
ENDBRANCH  34  36
ENDBRANCH  33  34
ENDBRANCH  32  33
ENDBRANCH  12  32
BRANCH   6  38
ATOM     38  O   LIG A   1      -5.364   4.859 128.348  0.00  0.00    -0.434 OA
BRANCH  38  39
ATOM     39  C   LIG A   1      -4.076   5.113 128.720  0.00  0.00    +0.306 C 
ATOM     40  C   LIG A   1      -3.665   4.216 129.841  0.00  0.00    +0.136 C 
ATOM     41  O   LIG A   1      -3.376   6.032 128.311  0.00  0.00    -0.251 OA
ENDBRANCH  38  39
ENDBRANCH   6  38
BRANCH   4  42
ATOM     42  O   LIG A   1      -7.597   5.322 132.083  0.00  0.00    -0.431 OA
BRANCH  42  43
ATOM     43  C   LIG A   1      -8.534   5.790 132.946  0.00  0.00    +0.306 C 
ATOM     44  C   LIG A   1      -8.275   5.220 134.313  0.00  0.00    +0.136 C 
ATOM     45  O   LIG A   1      -9.538   6.431 132.650  0.00  0.00    -0.251 OA
ENDBRANCH  42  43
ENDBRANCH   4  42
TORSDOF 18
ENDMDL
MODEL 4
REMARK VINA RESULT:      -7.3      2.891      7.894
REMARK  Name = NuBBE_636
REMARK  23 active torsions:
REMARK  status: ('A' for Active; 'I' for Inactive)
REMARK    1  A    between atoms: O_1  and  C_2
REMARK    2  A    between atoms: C_6  and  O_8
REMARK    3  A    between atoms: O_8  and  C_9
REMARK    4  A    between atoms: C_9  and  C_10
REMARK    5  A    between atoms: C_13  and  O_15
REMARK    6  A    between atoms: O_15  and  C_16
REMARK    7  A    between atoms: C_16  and  C_17
REMARK    8  A    between atoms: C_20  and  O_22
REMARK    9  A    between atoms: C_23  and  O_25
REMARK   10  A    between atoms: O_25  and  C_26
REMARK   11  A    between atoms: C_26  and  C_27
REMARK   12  A    between atoms: C_28  and  C_29
REMARK   13  A    between atoms: C_30  and  C_31
REMARK   14  A    between atoms: C_31  and  C_32
REMARK   15  A    between atoms: C_32  and  C_33
REMARK   16  A    between atoms: C_33  and  C_34
REMARK   17  A    between atoms: C_34  and  C_35
REMARK   18  A    between atoms: C_37  and  C_39
REMARK   19  A    between atoms: C_40  and  C_41
REMARK   20  A    between atoms: C_40  and  C_42
REMARK   21  A    between atoms: C_42  and  C_43
REMARK   22  A    between atoms: C_43  and  C_44
REMARK   23  A    between atoms: C_44  and  C_45
REMARK                            x       y       z     vdW  Elec       q    Type
REMARK                         _______ _______ _______ _____ _____    ______ ____
ROOT
ATOM      1  C   LIG A   1      -3.702   3.341 126.348  0.00  0.00    +0.138 C 
ATOM      2  C   LIG A   1      -4.527   3.858 125.228  0.00  0.00    +0.010 C 
ATOM      3  C   LIG A   1      -5.847   3.624 125.216  0.00  0.00    +0.011 C 
ATOM      4  C   LIG A   1      -6.788   3.814 124.049  0.00  0.00    +0.343 C 
ATOM      5  O   LIG A   1      -8.018   3.212 124.504  0.00  0.00    -0.297 OA
ATOM      6  C   LIG A   1      -7.653   2.277 125.529  0.00  0.00    +0.327 C 
ATOM      7  C   LIG A   1      -6.594   2.993 126.397  0.00  0.00    +0.093 C 
ATOM      8  C   LIG A   1      -7.097   4.183 127.255  0.00  0.00    +0.172 C 
ATOM      9  C   LIG A   1      -7.787   3.863 128.595  0.00  0.00    +0.210 C 
ATOM     10  C   LIG A   1      -7.241   2.622 129.365  0.00  0.00    +0.036 C 
ATOM     11  C   LIG A   1      -8.334   1.559 129.565  0.00  0.00    +0.012 C 
ATOM     12  C   LIG A   1      -5.845   2.073 128.867  0.00  0.00    -0.022 C 
ATOM     13  C   LIG A   1      -4.774   3.055 129.401  0.00  0.00    +0.012 C 
ATOM     14  C   LIG A   1      -5.737   1.974 127.262  0.00  0.00    +0.017 C 
ATOM     15  C   LIG A   1      -4.248   1.960 126.761  0.00  0.00    +0.040 C 
ENDROOT
BRANCH   1  16
ATOM     16  O   LIG A   1      -2.368   3.198 125.886  0.00  0.00    -0.388 OA
ATOM     17  H   LIG A   1      -2.260   3.822 125.146  0.00  0.00    +0.210 HD
ENDBRANCH   1  16
BRANCH   8  18
ATOM     18  O   LIG A   1      -7.913   5.107 126.514  0.00  0.00    -0.387 OA
ATOM     19  H   LIG A   1      -7.351   5.599 125.886  0.00  0.00    +0.210 HD
ENDBRANCH   8  18
BRANCH   9  20
ATOM     20  O   LIG A   1      -7.469   5.033 129.442  0.00  0.00    -0.455 OA
BRANCH  20  21
ATOM     21  C   LIG A   1      -7.940   5.073 130.727  0.00  0.00    +0.332 C 
ATOM     22  O   LIG A   1      -7.409   4.657 131.711  0.00  0.00    -0.246 OA
BRANCH  21  23
ATOM     23  C   LIG A   1      -9.286   5.734 130.647  0.00  0.00    +0.091 C 
ATOM     24  C   LIG A   1     -10.435   5.040 130.654  0.00  0.00    +0.007 C 
BRANCH  24  25
ATOM     25  C   LIG A   1     -11.728   5.713 130.710  0.00  0.00    -0.004 C 
ATOM     26  C   LIG A   1     -11.922   6.846 131.414  0.00  0.00    -0.027 C 
BRANCH  26  27
ATOM     27  C   LIG A   1     -13.035   7.820 131.084  0.00  0.00    +0.027 C 
BRANCH  27  28
ATOM     28  C   LIG A   1     -12.792   8.801 129.910  0.00  0.00    +0.004 C 
BRANCH  28  29
ATOM     29  C   LIG A   1     -13.020   8.216 128.504  0.00  0.00    +0.000 C 
BRANCH  29  30
ATOM     30  C   LIG A   1     -11.786   8.238 127.584  0.00  0.00    -0.003 C 
ATOM     31  C   LIG A   1     -10.468   8.420 128.326  0.00  0.00    +0.004 C 
ENDBRANCH  29  30
ENDBRANCH  28  29
ENDBRANCH  27  28
ENDBRANCH  26  27
ENDBRANCH  24  25
ENDBRANCH  21  23
ENDBRANCH  20  21
ENDBRANCH   9  20
BRANCH  12  32
ATOM     32  C   LIG A   1      -5.500   0.643 129.515  0.00  0.00    +0.012 C 
BRANCH  32  33
ATOM     33  C   LIG A   1      -5.619  -0.588 128.570  0.00  0.00    +0.035 C 
BRANCH  33  34
ATOM     34  C   LIG A   1      -5.446  -1.961 129.205  0.00  0.00    -0.055 C 
ATOM     35  C   LIG A   1      -4.253  -2.356 129.685  0.00  0.00    +0.012 C 
BRANCH  34  36
ATOM     36  C   LIG A   1      -6.620  -2.792 129.400  0.00  0.00    -0.005 C 
ATOM     37  C   LIG A   1      -7.855  -2.306 129.587  0.00  0.00    +0.008 C 
ENDBRANCH  34  36
ENDBRANCH  33  34
ENDBRANCH  32  33
ENDBRANCH  12  32
BRANCH   6  38
ATOM     38  O   LIG A   1      -8.765   1.846 126.305  0.00  0.00    -0.434 OA
BRANCH  38  39
ATOM     39  C   LIG A   1      -9.297   0.679 125.841  0.00  0.00    +0.306 C 
ATOM     40  C   LIG A   1      -8.440  -0.482 126.230  0.00  0.00    +0.136 C 
ATOM     41  O   LIG A   1     -10.259   0.575 125.090  0.00  0.00    -0.251 OA
ENDBRANCH  38  39
ENDBRANCH   6  38
BRANCH   4  42
ATOM     42  O   LIG A   1      -6.251   3.082 122.943  0.00  0.00    -0.431 OA
BRANCH  42  43
ATOM     43  C   LIG A   1      -6.426   3.674 121.734  0.00  0.00    +0.306 C 
ATOM     44  C   LIG A   1      -5.162   4.391 121.348  0.00  0.00    +0.136 C 
ATOM     45  O   LIG A   1      -7.484   3.771 121.120  0.00  0.00    -0.251 OA
ENDBRANCH  42  43
ENDBRANCH   4  42
TORSDOF 18
ENDMDL
MODEL 5
REMARK VINA RESULT:      -7.2      2.228      5.111
REMARK  Name = NuBBE_636
REMARK  23 active torsions:
REMARK  status: ('A' for Active; 'I' for Inactive)
REMARK    1  A    between atoms: O_1  and  C_2
REMARK    2  A    between atoms: C_6  and  O_8
REMARK    3  A    between atoms: O_8  and  C_9
REMARK    4  A    between atoms: C_9  and  C_10
REMARK    5  A    between atoms: C_13  and  O_15
REMARK    6  A    between atoms: O_15  and  C_16
REMARK    7  A    between atoms: C_16  and  C_17
REMARK    8  A    between atoms: C_20  and  O_22
REMARK    9  A    between atoms: C_23  and  O_25
REMARK   10  A    between atoms: O_25  and  C_26
REMARK   11  A    between atoms: C_26  and  C_27
REMARK   12  A    between atoms: C_28  and  C_29
REMARK   13  A    between atoms: C_30  and  C_31
REMARK   14  A    between atoms: C_31  and  C_32
REMARK   15  A    between atoms: C_32  and  C_33
REMARK   16  A    between atoms: C_33  and  C_34
REMARK   17  A    between atoms: C_34  and  C_35
REMARK   18  A    between atoms: C_37  and  C_39
REMARK   19  A    between atoms: C_40  and  C_41
REMARK   20  A    between atoms: C_40  and  C_42
REMARK   21  A    between atoms: C_42  and  C_43
REMARK   22  A    between atoms: C_43  and  C_44
REMARK   23  A    between atoms: C_44  and  C_45
REMARK                            x       y       z     vdW  Elec       q    Type
REMARK                         _______ _______ _______ _____ _____    ______ ____
ROOT
ATOM      1  C   LIG A   1      -2.782   3.349 126.795  0.00  0.00    +0.138 C 
ATOM      2  C   LIG A   1      -2.412   3.939 128.106  0.00  0.00    +0.010 C 
ATOM      3  C   LIG A   1      -3.353   4.103 129.047  0.00  0.00    +0.011 C 
ATOM      4  C   LIG A   1      -3.237   4.929 130.307  0.00  0.00    +0.343 C 
ATOM      5  O   LIG A   1      -4.581   4.941 130.829  0.00  0.00    -0.297 OA
ATOM      6  C   LIG A   1      -5.448   4.684 129.715  0.00  0.00    +0.327 C 
ATOM      7  C   LIG A   1      -4.776   3.549 128.910  0.00  0.00    +0.093 C 
ATOM      8  C   LIG A   1      -4.746   2.153 129.583  0.00  0.00    +0.172 C 
ATOM      9  C   LIG A   1      -6.015   1.284 129.496  0.00  0.00    +0.210 C 
ATOM     10  C   LIG A   1      -6.842   1.413 128.180  0.00  0.00    +0.036 C 
ATOM     11  C   LIG A   1      -8.271   1.906 128.460  0.00  0.00    +0.012 C 
ATOM     12  C   LIG A   1      -6.102   2.127 126.979  0.00  0.00    -0.022 C 
ATOM     13  C   LIG A   1      -5.093   1.098 126.414  0.00  0.00    +0.012 C 
ATOM     14  C   LIG A   1      -5.320   3.465 127.421  0.00  0.00    +0.017 C 
ATOM     15  C   LIG A   1      -4.185   3.858 126.408  0.00  0.00    +0.040 C 
ENDROOT
BRANCH   1  16
ATOM     16  O   LIG A   1      -1.841   3.790 125.829  0.00  0.00    -0.388 OA
ATOM     17  H   LIG A   1      -0.959   3.682 126.228  0.00  0.00    +0.210 HD
ENDBRANCH   1  16
BRANCH   8  18
ATOM     18  O   LIG A   1      -4.297   2.194 130.949  0.00  0.00    -0.387 OA
ATOM     19  H   LIG A   1      -4.763   2.914 131.418  0.00  0.00    +0.210 HD
ENDBRANCH   8  18
BRANCH   9  20
ATOM     20  O   LIG A   1      -5.494  -0.100 129.509  0.00  0.00    -0.455 OA
BRANCH  20  21
ATOM     21  C   LIG A   1      -6.310  -1.114 129.938  0.00  0.00    +0.332 C 
ATOM     22  O   LIG A   1      -6.722  -1.299 131.042  0.00  0.00    -0.246 OA
BRANCH  21  23
ATOM     23  C   LIG A   1      -6.568  -1.969 128.732  0.00  0.00    +0.091 C 
ATOM     24  C   LIG A   1      -7.746  -1.976 128.087  0.00  0.00    +0.007 C 
BRANCH  24  25
ATOM     25  C   LIG A   1      -7.925  -2.713 126.841  0.00  0.00    -0.004 C 
ATOM     26  C   LIG A   1      -9.141  -2.953 126.312  0.00  0.00    -0.027 C 
BRANCH  26  27
ATOM     27  C   LIG A   1      -9.339  -3.222 124.834  0.00  0.00    +0.027 C 
BRANCH  27  28
ATOM     28  C   LIG A   1      -8.067  -3.332 123.957  0.00  0.00    +0.004 C 
BRANCH  28  29
ATOM     29  C   LIG A   1      -7.870  -2.196 122.937  0.00  0.00    +0.000 C 
BRANCH  29  30
ATOM     30  C   LIG A   1      -6.452  -1.599 122.896  0.00  0.00    -0.003 C 
ATOM     31  C   LIG A   1      -5.609  -1.930 124.122  0.00  0.00    +0.004 C 
ENDBRANCH  29  30
ENDBRANCH  28  29
ENDBRANCH  27  28
ENDBRANCH  26  27
ENDBRANCH  24  25
ENDBRANCH  21  23
ENDBRANCH  20  21
ENDBRANCH   9  20
BRANCH  12  32
ATOM     32  C   LIG A   1      -7.110   2.469 125.775  0.00  0.00    +0.012 C 
BRANCH  32  33
ATOM     33  C   LIG A   1      -7.465   1.293 124.818  0.00  0.00    +0.035 C 
BRANCH  33  34
ATOM     34  C   LIG A   1      -8.945   1.016 124.591  0.00  0.00    -0.055 C 
ATOM     35  C   LIG A   1      -9.714   0.516 125.576  0.00  0.00    +0.012 C 
BRANCH  34  36
ATOM     36  C   LIG A   1      -9.544   1.417 123.332  0.00  0.00    -0.005 C 
ATOM     37  C   LIG A   1     -10.195   0.576 122.515  0.00  0.00    +0.008 C 
ENDBRANCH  34  36
ENDBRANCH  33  34
ENDBRANCH  32  33
ENDBRANCH  12  32
BRANCH   6  38
ATOM     38  O   LIG A   1      -6.769   4.337 130.112  0.00  0.00    -0.434 OA
BRANCH  38  39
ATOM     39  C   LIG A   1      -7.579   5.429 130.222  0.00  0.00    +0.306 C 
ATOM     40  C   LIG A   1      -8.960   5.110 129.747  0.00  0.00    +0.136 C 
ATOM     41  O   LIG A   1      -7.224   6.561 130.528  0.00  0.00    -0.251 OA
ENDBRANCH  38  39
ENDBRANCH   6  38
BRANCH   4  42
ATOM     42  O   LIG A   1      -2.837   6.247 129.919  0.00  0.00    -0.431 OA
BRANCH  42  43
ATOM     43  C   LIG A   1      -3.191   7.226 130.791  0.00  0.00    +0.306 C 
ATOM     44  C   LIG A   1      -4.026   8.249 130.072  0.00  0.00    +0.136 C 
ATOM     45  O   LIG A   1      -2.766   7.369 131.933  0.00  0.00    -0.251 OA
ENDBRANCH  42  43
ENDBRANCH   4  42
TORSDOF 18
ENDMDL
MODEL 6
REMARK VINA RESULT:      -7.2      2.309      5.893
REMARK  Name = NuBBE_636
REMARK  23 active torsions:
REMARK  status: ('A' for Active; 'I' for Inactive)
REMARK    1  A    between atoms: O_1  and  C_2
REMARK    2  A    between atoms: C_6  and  O_8
REMARK    3  A    between atoms: O_8  and  C_9
REMARK    4  A    between atoms: C_9  and  C_10
REMARK    5  A    between atoms: C_13  and  O_15
REMARK    6  A    between atoms: O_15  and  C_16
REMARK    7  A    between atoms: C_16  and  C_17
REMARK    8  A    between atoms: C_20  and  O_22
REMARK    9  A    between atoms: C_23  and  O_25
REMARK   10  A    between atoms: O_25  and  C_26
REMARK   11  A    between atoms: C_26  and  C_27
REMARK   12  A    between atoms: C_28  and  C_29
REMARK   13  A    between atoms: C_30  and  C_31
REMARK   14  A    between atoms: C_31  and  C_32
REMARK   15  A    between atoms: C_32  and  C_33
REMARK   16  A    between atoms: C_33  and  C_34
REMARK   17  A    between atoms: C_34  and  C_35
REMARK   18  A    between atoms: C_37  and  C_39
REMARK   19  A    between atoms: C_40  and  C_41
REMARK   20  A    between atoms: C_40  and  C_42
REMARK   21  A    between atoms: C_42  and  C_43
REMARK   22  A    between atoms: C_43  and  C_44
REMARK   23  A    between atoms: C_44  and  C_45
REMARK                            x       y       z     vdW  Elec       q    Type
REMARK                         _______ _______ _______ _____ _____    ______ ____
ROOT
ATOM      1  C   LIG A   1      -8.941   5.454 133.089  0.00  0.00    +0.138 C 
ATOM      2  C   LIG A   1      -9.642   5.746 131.814  0.00  0.00    +0.010 C 
ATOM      3  C   LIG A   1      -9.160   5.251 130.665  0.00  0.00    +0.011 C 
ATOM      4  C   LIG A   1      -9.556   5.662 129.267  0.00  0.00    +0.343 C 
ATOM      5  O   LIG A   1      -8.591   4.992 128.430  0.00  0.00    -0.297 OA
ATOM      6  C   LIG A   1      -7.447   4.739 129.259  0.00  0.00    +0.327 C 
ATOM      7  C   LIG A   1      -8.007   4.241 130.611  0.00  0.00    +0.093 C 
ATOM      8  C   LIG A   1      -8.678   2.844 130.605  0.00  0.00    +0.172 C 
ATOM      9  C   LIG A   1      -7.763   1.606 130.679  0.00  0.00    +0.210 C 
ATOM     10  C   LIG A   1      -6.470   1.762 131.536  0.00  0.00    +0.036 C 
ATOM     11  C   LIG A   1      -5.204   1.547 130.690  0.00  0.00    +0.012 C 
ATOM     12  C   LIG A   1      -6.438   3.018 132.495  0.00  0.00    -0.022 C 
ATOM     13  C   LIG A   1      -7.362   2.679 133.690  0.00  0.00    +0.012 C 
ATOM     14  C   LIG A   1      -6.947   4.373 131.785  0.00  0.00    +0.017 C 
ATOM     15  C   LIG A   1      -7.422   5.452 132.823  0.00  0.00    +0.040 C 
ENDROOT
BRANCH   1  16
ATOM     16  O   LIG A   1      -9.252   6.486 134.013  0.00  0.00    -0.388 OA
ATOM     17  H   LIG A   1     -10.204   6.408 134.208  0.00  0.00    +0.210 HD
ENDBRANCH   1  16
BRANCH   8  18
ATOM     18  O   LIG A   1      -9.616   2.672 129.528  0.00  0.00    -0.387 OA
ATOM     19  H   LIG A   1     -10.269   1.991 129.778  0.00  0.00    +0.210 HD
ENDBRANCH   8  18
BRANCH   9  20
ATOM     20  O   LIG A   1      -8.590   0.599 131.379  0.00  0.00    -0.455 OA
BRANCH  20  21
ATOM     21  C   LIG A   1      -8.139  -0.691 131.463  0.00  0.00    +0.332 C 
ATOM     22  O   LIG A   1      -7.980  -1.345 132.449  0.00  0.00    -0.246 OA
BRANCH  21  23
ATOM     23  C   LIG A   1      -7.859  -1.119 130.051  0.00  0.00    +0.091 C 
ATOM     24  C   LIG A   1      -7.939  -2.398 129.652  0.00  0.00    +0.007 C 
BRANCH  24  25
ATOM     25  C   LIG A   1      -7.793  -2.766 128.248  0.00  0.00    -0.004 C 
ATOM     26  C   LIG A   1      -8.723  -3.488 127.591  0.00  0.00    -0.027 C 
BRANCH  26  27
ATOM     27  C   LIG A   1      -8.867  -3.433 126.083  0.00  0.00    +0.027 C 
BRANCH  27  28
ATOM     28  C   LIG A   1      -7.743  -2.725 125.288  0.00  0.00    +0.004 C 
BRANCH  28  29
ATOM     29  C   LIG A   1      -6.924  -3.635 124.354  0.00  0.00    +0.000 C 
BRANCH  29  30
ATOM     30  C   LIG A   1      -5.427  -3.285 124.255  0.00  0.00    -0.003 C 
ATOM     31  C   LIG A   1      -4.565  -4.417 123.710  0.00  0.00    +0.004 C 
ENDBRANCH  29  30
ENDBRANCH  28  29
ENDBRANCH  27  28
ENDBRANCH  26  27
ENDBRANCH  24  25
ENDBRANCH  21  23
ENDBRANCH  20  21
ENDBRANCH   9  20
BRANCH  12  32
ATOM     32  C   LIG A   1      -4.976   3.257 133.117  0.00  0.00    +0.012 C 
BRANCH  32  33
ATOM     33  C   LIG A   1      -4.315   4.634 132.815  0.00  0.00    +0.035 C 
BRANCH  33  34
ATOM     34  C   LIG A   1      -2.967   4.609 132.108  0.00  0.00    -0.055 C 
ATOM     35  C   LIG A   1      -1.897   4.026 132.679  0.00  0.00    +0.012 C 
BRANCH  34  36
ATOM     36  C   LIG A   1      -2.882   5.115 130.751  0.00  0.00    -0.005 C 
ATOM     37  C   LIG A   1      -3.196   4.394 129.666  0.00  0.00    +0.008 C 
ENDBRANCH  34  36
ENDBRANCH  33  34
ENDBRANCH  32  33
ENDBRANCH  12  32
BRANCH   6  38
ATOM     38  O   LIG A   1      -6.547   3.799 128.685  0.00  0.00    -0.434 OA
BRANCH  38  39
ATOM     39  C   LIG A   1      -6.200   4.130 127.407  0.00  0.00    +0.306 C 
ATOM     40  C   LIG A   1      -6.487   2.999 126.474  0.00  0.00    +0.136 C 
ATOM     41  O   LIG A   1      -5.607   5.145 127.063  0.00  0.00    -0.251 OA
ENDBRANCH  38  39
ENDBRANCH   6  38
BRANCH   4  42
ATOM     42  O   LIG A   1      -9.399   7.081 129.178  0.00  0.00    -0.431 OA
BRANCH  42  43
ATOM     43  C   LIG A   1     -10.464   7.738 128.651  0.00  0.00    +0.306 C 
ATOM     44  C   LIG A   1     -11.696   6.893 128.816  0.00  0.00    +0.136 C 
ATOM     45  O   LIG A   1     -10.424   8.769 127.987  0.00  0.00    -0.251 OA
ENDBRANCH  42  43
ENDBRANCH   4  42
TORSDOF 18
ENDMDL
MODEL 7
REMARK VINA RESULT:      -7.2      2.573      8.413
REMARK  Name = NuBBE_636
REMARK  23 active torsions:
REMARK  status: ('A' for Active; 'I' for Inactive)
REMARK    1  A    between atoms: O_1  and  C_2
REMARK    2  A    between atoms: C_6  and  O_8
REMARK    3  A    between atoms: O_8  and  C_9
REMARK    4  A    between atoms: C_9  and  C_10
REMARK    5  A    between atoms: C_13  and  O_15
REMARK    6  A    between atoms: O_15  and  C_16
REMARK    7  A    between atoms: C_16  and  C_17
REMARK    8  A    between atoms: C_20  and  O_22
REMARK    9  A    between atoms: C_23  and  O_25
REMARK   10  A    between atoms: O_25  and  C_26
REMARK   11  A    between atoms: C_26  and  C_27
REMARK   12  A    between atoms: C_28  and  C_29
REMARK   13  A    between atoms: C_30  and  C_31
REMARK   14  A    between atoms: C_31  and  C_32
REMARK   15  A    between atoms: C_32  and  C_33
REMARK   16  A    between atoms: C_33  and  C_34
REMARK   17  A    between atoms: C_34  and  C_35
REMARK   18  A    between atoms: C_37  and  C_39
REMARK   19  A    between atoms: C_40  and  C_41
REMARK   20  A    between atoms: C_40  and  C_42
REMARK   21  A    between atoms: C_42  and  C_43
REMARK   22  A    between atoms: C_43  and  C_44
REMARK   23  A    between atoms: C_44  and  C_45
REMARK                            x       y       z     vdW  Elec       q    Type
REMARK                         _______ _______ _______ _____ _____    ______ ____
ROOT
ATOM      1  C   LIG A   1      -7.674   0.034 129.642  0.00  0.00    +0.138 C 
ATOM      2  C   LIG A   1      -7.527  -0.932 128.525  0.00  0.00    +0.010 C 
ATOM      3  C   LIG A   1      -7.300  -0.479 127.283  0.00  0.00    +0.011 C 
ATOM      4  C   LIG A   1      -7.406  -1.268 125.999  0.00  0.00    +0.343 C 
ATOM      5  O   LIG A   1      -7.283  -0.263 124.973  0.00  0.00    -0.297 OA
ATOM      6  C   LIG A   1      -7.669   0.980 125.578  0.00  0.00    +0.327 C 
ATOM      7  C   LIG A   1      -7.006   0.993 126.974  0.00  0.00    +0.093 C 
ATOM      8  C   LIG A   1      -5.462   1.124 127.001  0.00  0.00    +0.172 C 
ATOM      9  C   LIG A   1      -4.856   2.532 126.844  0.00  0.00    +0.210 C 
ATOM     10  C   LIG A   1      -5.671   3.701 127.477  0.00  0.00    +0.036 C 
ATOM     11  C   LIG A   1      -6.092   4.731 126.415  0.00  0.00    +0.012 C 
ATOM     12  C   LIG A   1      -6.806   3.269 128.488  0.00  0.00    -0.022 C 
ATOM     13  C   LIG A   1      -6.092   2.867 129.801  0.00  0.00    +0.012 C 
ATOM     14  C   LIG A   1      -7.695   2.034 127.955  0.00  0.00    +0.017 C 
ATOM     15  C   LIG A   1      -8.426   1.274 129.121  0.00  0.00    +0.040 C 
ENDROOT
BRANCH   1  16
ATOM     16  O   LIG A   1      -8.441  -0.583 130.664  0.00  0.00    -0.388 OA
ATOM     17  H   LIG A   1      -9.375  -0.398 130.463  0.00  0.00    +0.210 HD
ENDBRANCH   1  16
BRANCH   8  18
ATOM     18  O   LIG A   1      -4.803   0.225 126.091  0.00  0.00    -0.387 OA
ATOM     19  H   LIG A   1      -4.432  -0.525 126.595  0.00  0.00    +0.210 HD
ENDBRANCH   8  18
BRANCH   9  20
ATOM     20  O   LIG A   1      -3.595   2.459 127.615  0.00  0.00    -0.455 OA
BRANCH  20  21
ATOM     21  C   LIG A   1      -2.504   3.159 127.174  0.00  0.00    +0.332 C 
ATOM     22  O   LIG A   1      -1.856   2.956 126.193  0.00  0.00    -0.246 OA
BRANCH  21  23
ATOM     23  C   LIG A   1      -2.268   4.233 128.195  0.00  0.00    +0.091 C 
ATOM     24  C   LIG A   1      -2.526   5.529 127.956  0.00  0.00    +0.007 C 
BRANCH  24  25
ATOM     25  C   LIG A   1      -2.414   6.532 129.010  0.00  0.00    -0.004 C 
ATOM     26  C   LIG A   1      -3.271   6.586 130.049  0.00  0.00    -0.027 C 
BRANCH  26  27
ATOM     27  C   LIG A   1      -2.895   7.226 131.370  0.00  0.00    +0.027 C 
BRANCH  27  28
ATOM     28  C   LIG A   1      -1.483   6.923 131.929  0.00  0.00    +0.004 C 
BRANCH  28  29
ATOM     29  C   LIG A   1      -1.202   5.441 132.242  0.00  0.00    +0.000 C 
BRANCH  29  30
ATOM     30  C   LIG A   1      -2.292   4.735 133.070  0.00  0.00    -0.003 C 
ATOM     31  C   LIG A   1      -3.005   3.615 132.322  0.00  0.00    +0.004 C 
ENDBRANCH  29  30
ENDBRANCH  28  29
ENDBRANCH  27  28
ENDBRANCH  26  27
ENDBRANCH  24  25
ENDBRANCH  21  23
ENDBRANCH  20  21
ENDBRANCH   9  20
BRANCH  12  32
ATOM     32  C   LIG A   1      -7.771   4.498 128.864  0.00  0.00    +0.012 C 
BRANCH  32  33
ATOM     33  C   LIG A   1      -7.969   4.779 130.382  0.00  0.00    +0.035 C 
BRANCH  33  34
ATOM     34  C   LIG A   1      -7.843   6.227 130.835  0.00  0.00    -0.055 C 
ATOM     35  C   LIG A   1      -8.856   7.096 130.668  0.00  0.00    +0.012 C 
BRANCH  34  36
ATOM     36  C   LIG A   1      -6.655   6.627 131.567  0.00  0.00    -0.005 C 
ATOM     37  C   LIG A   1      -6.110   5.906 132.556  0.00  0.00    +0.008 C 
ENDBRANCH  34  36
ENDBRANCH  33  34
ENDBRANCH  32  33
ENDBRANCH  12  32
BRANCH   6  38
ATOM     38  O   LIG A   1      -7.290   2.111 124.804  0.00  0.00    -0.434 OA
BRANCH  38  39
ATOM     39  C   LIG A   1      -8.367   2.843 124.397  0.00  0.00    +0.306 C 
ATOM     40  C   LIG A   1      -8.603   2.664 122.933  0.00  0.00    +0.136 C 
ATOM     41  O   LIG A   1      -8.987   3.651 125.079  0.00  0.00    -0.251 OA
ENDBRANCH  38  39
ENDBRANCH   6  38
BRANCH   4  42
ATOM     42  O   LIG A   1      -8.708  -1.861 125.968  0.00  0.00    -0.431 OA
BRANCH  42  43
ATOM     43  C   LIG A   1      -8.928  -2.691 124.916  0.00  0.00    +0.306 C 
ATOM     44  C   LIG A   1      -7.833  -3.718 124.859  0.00  0.00    +0.136 C 
ATOM     45  O   LIG A   1      -9.773  -2.540 124.039  0.00  0.00    -0.251 OA
ENDBRANCH  42  43
ENDBRANCH   4  42
TORSDOF 18
ENDMDL
MODEL 8
REMARK VINA RESULT:      -7.2      2.479      6.668
REMARK  Name = NuBBE_636
REMARK  23 active torsions:
REMARK  status: ('A' for Active; 'I' for Inactive)
REMARK    1  A    between atoms: O_1  and  C_2
REMARK    2  A    between atoms: C_6  and  O_8
REMARK    3  A    between atoms: O_8  and  C_9
REMARK    4  A    between atoms: C_9  and  C_10
REMARK    5  A    between atoms: C_13  and  O_15
REMARK    6  A    between atoms: O_15  and  C_16
REMARK    7  A    between atoms: C_16  and  C_17
REMARK    8  A    between atoms: C_20  and  O_22
REMARK    9  A    between atoms: C_23  and  O_25
REMARK   10  A    between atoms: O_25  and  C_26
REMARK   11  A    between atoms: C_26  and  C_27
REMARK   12  A    between atoms: C_28  and  C_29
REMARK   13  A    between atoms: C_30  and  C_31
REMARK   14  A    between atoms: C_31  and  C_32
REMARK   15  A    between atoms: C_32  and  C_33
REMARK   16  A    between atoms: C_33  and  C_34
REMARK   17  A    between atoms: C_34  and  C_35
REMARK   18  A    between atoms: C_37  and  C_39
REMARK   19  A    between atoms: C_40  and  C_41
REMARK   20  A    between atoms: C_40  and  C_42
REMARK   21  A    between atoms: C_42  and  C_43
REMARK   22  A    between atoms: C_43  and  C_44
REMARK   23  A    between atoms: C_44  and  C_45
REMARK                            x       y       z     vdW  Elec       q    Type
REMARK                         _______ _______ _______ _____ _____    ______ ____
ROOT
ATOM      1  C   LIG A   1      -9.581   5.517 132.547  0.00  0.00    +0.138 C 
ATOM      2  C   LIG A   1     -10.104   5.672 131.166  0.00  0.00    +0.010 C 
ATOM      3  C   LIG A   1      -9.411   5.167 130.136  0.00  0.00    +0.011 C 
ATOM      4  C   LIG A   1      -9.626   5.464 128.670  0.00  0.00    +0.343 C 
ATOM      5  O   LIG A   1      -8.489   4.849 128.030  0.00  0.00    -0.297 OA
ATOM      6  C   LIG A   1      -7.467   4.752 129.032  0.00  0.00    +0.327 C 
ATOM      7  C   LIG A   1      -8.179   4.274 130.317  0.00  0.00    +0.093 C 
ATOM      8  C   LIG A   1      -8.713   2.819 130.306  0.00  0.00    +0.172 C 
ATOM      9  C   LIG A   1      -7.714   1.682 130.594  0.00  0.00    +0.210 C 
ATOM     10  C   LIG A   1      -6.585   2.009 131.620  0.00  0.00    +0.036 C 
ATOM     11  C   LIG A   1      -5.192   1.874 130.983  0.00  0.00    +0.012 C 
ATOM     12  C   LIG A   1      -6.811   3.310 132.488  0.00  0.00    -0.022 C 
ATOM     13  C   LIG A   1      -7.872   2.945 133.554  0.00  0.00    +0.012 C 
ATOM     14  C   LIG A   1      -7.325   4.569 131.623  0.00  0.00    +0.017 C 
ATOM     15  C   LIG A   1      -8.046   5.650 132.506  0.00  0.00    +0.040 C 
ENDROOT
BRANCH   1  16
ATOM     16  O   LIG A   1     -10.120   6.560 133.345  0.00  0.00    -0.388 OA
ATOM     17  H   LIG A   1      -9.757   6.442 134.241  0.00  0.00    +0.210 HD
ENDBRANCH   1  16
BRANCH   8  18
ATOM     18  O   LIG A   1      -9.458   2.500 129.117  0.00  0.00    -0.387 OA
ATOM     19  H   LIG A   1     -10.413   2.580 129.306  0.00  0.00    +0.210 HD
ENDBRANCH   8  18
BRANCH   9  20
ATOM     20  O   LIG A   1      -8.545   0.637 131.231  0.00  0.00    -0.455 OA
BRANCH  20  21
ATOM     21  C   LIG A   1      -8.055  -0.639 131.323  0.00  0.00    +0.332 C 
ATOM     22  O   LIG A   1      -8.014  -1.335 132.291  0.00  0.00    -0.246 OA
BRANCH  21  23
ATOM     23  C   LIG A   1      -7.555  -0.984 129.951  0.00  0.00    +0.091 C 
ATOM     24  C   LIG A   1      -7.798  -2.169 129.367  0.00  0.00    +0.007 C 
BRANCH  24  25
ATOM     25  C   LIG A   1      -7.415  -2.426 127.983  0.00  0.00    -0.004 C 
ATOM     26  C   LIG A   1      -7.574  -1.510 127.008  0.00  0.00    -0.027 C 
BRANCH  26  27
ATOM     27  C   LIG A   1      -6.742  -1.528 125.742  0.00  0.00    +0.027 C 
BRANCH  27  28
ATOM     28  C   LIG A   1      -6.715  -2.846 124.929  0.00  0.00    +0.004 C 
BRANCH  28  29
ATOM     29  C   LIG A   1      -6.021  -2.760 123.557  0.00  0.00    +0.000 C 
BRANCH  29  30
ATOM     30  C   LIG A   1      -4.575  -3.289 123.527  0.00  0.00    -0.003 C 
ATOM     31  C   LIG A   1      -4.472  -4.805 123.630  0.00  0.00    +0.004 C 
ENDBRANCH  29  30
ENDBRANCH  28  29
ENDBRANCH  27  28
ENDBRANCH  26  27
ENDBRANCH  24  25
ENDBRANCH  21  23
ENDBRANCH  20  21
ENDBRANCH   9  20
BRANCH  12  32
ATOM     32  C   LIG A   1      -5.487   3.723 133.299  0.00  0.00    +0.012 C 
BRANCH  32  33
ATOM     33  C   LIG A   1      -5.655   3.926 134.834  0.00  0.00    +0.035 C 
BRANCH  33  34
ATOM     34  C   LIG A   1      -5.595   5.358 135.348  0.00  0.00    -0.055 C 
ATOM     35  C   LIG A   1      -4.809   6.274 134.754  0.00  0.00    +0.012 C 
BRANCH  34  36
ATOM     36  C   LIG A   1      -6.497   5.754 136.413  0.00  0.00    -0.005 C 
ATOM     37  C   LIG A   1      -7.792   6.044 136.225  0.00  0.00    +0.008 C 
ENDBRANCH  34  36
ENDBRANCH  33  34
ENDBRANCH  32  33
ENDBRANCH  12  32
BRANCH   6  38
ATOM     38  O   LIG A   1      -6.409   3.877 128.659  0.00  0.00    -0.434 OA
BRANCH  38  39
ATOM     39  C   LIG A   1      -5.329   4.551 128.170  0.00  0.00    +0.306 C 
ATOM     40  C   LIG A   1      -4.365   4.868 129.267  0.00  0.00    +0.136 C 
ATOM     41  O   LIG A   1      -5.202   4.976 127.027  0.00  0.00    -0.251 OA
ENDBRANCH  38  39
ENDBRANCH   6  38
BRANCH   4  42
ATOM     42  O   LIG A   1      -9.583   6.885 128.511  0.00  0.00    -0.431 OA
BRANCH  42  43
ATOM     43  C   LIG A   1     -10.431   7.377 127.572  0.00  0.00    +0.306 C 
ATOM     44  C   LIG A   1     -11.199   8.530 128.154  0.00  0.00    +0.136 C 
ATOM     45  O   LIG A   1     -10.678   6.870 126.482  0.00  0.00    -0.251 OA
ENDBRANCH  42  43
ENDBRANCH   4  42
TORSDOF 18
ENDMDL
MODEL 9
REMARK VINA RESULT:      -7.2      2.615      8.438
REMARK  Name = NuBBE_636
REMARK  23 active torsions:
REMARK  status: ('A' for Active; 'I' for Inactive)
REMARK    1  A    between atoms: O_1  and  C_2
REMARK    2  A    between atoms: C_6  and  O_8
REMARK    3  A    between atoms: O_8  and  C_9
REMARK    4  A    between atoms: C_9  and  C_10
REMARK    5  A    between atoms: C_13  and  O_15
REMARK    6  A    between atoms: O_15  and  C_16
REMARK    7  A    between atoms: C_16  and  C_17
REMARK    8  A    between atoms: C_20  and  O_22
REMARK    9  A    between atoms: C_23  and  O_25
REMARK   10  A    between atoms: O_25  and  C_26
REMARK   11  A    between atoms: C_26  and  C_27
REMARK   12  A    between atoms: C_28  and  C_29
REMARK   13  A    between atoms: C_30  and  C_31
REMARK   14  A    between atoms: C_31  and  C_32
REMARK   15  A    between atoms: C_32  and  C_33
REMARK   16  A    between atoms: C_33  and  C_34
REMARK   17  A    between atoms: C_34  and  C_35
REMARK   18  A    between atoms: C_37  and  C_39
REMARK   19  A    between atoms: C_40  and  C_41
REMARK   20  A    between atoms: C_40  and  C_42
REMARK   21  A    between atoms: C_42  and  C_43
REMARK   22  A    between atoms: C_43  and  C_44
REMARK   23  A    between atoms: C_44  and  C_45
REMARK                            x       y       z     vdW  Elec       q    Type
REMARK                         _______ _______ _______ _____ _____    ______ ____
ROOT
ATOM      1  C   LIG A   1      -4.005   3.789 126.449  0.00  0.00    +0.138 C 
ATOM      2  C   LIG A   1      -4.870   4.100 125.283  0.00  0.00    +0.010 C 
ATOM      3  C   LIG A   1      -6.159   3.731 125.299  0.00  0.00    +0.011 C 
ATOM      4  C   LIG A   1      -7.105   3.702 124.121  0.00  0.00    +0.343 C 
ATOM      5  O   LIG A   1      -8.269   3.026 124.639  0.00  0.00    -0.297 OA
ATOM      6  C   LIG A   1      -7.818   2.243 125.754  0.00  0.00    +0.327 C 
ATOM      7  C   LIG A   1      -6.845   3.150 126.541  0.00  0.00    +0.093 C 
ATOM      8  C   LIG A   1      -7.476   4.363 127.273  0.00  0.00    +0.172 C 
ATOM      9  C   LIG A   1      -8.140   4.113 128.640  0.00  0.00    +0.210 C 
ATOM     10  C   LIG A   1      -7.475   3.020 129.533  0.00  0.00    +0.036 C 
ATOM     11  C   LIG A   1      -8.454   1.876 129.843  0.00  0.00    +0.012 C 
ATOM     12  C   LIG A   1      -6.026   2.571 129.090  0.00  0.00    -0.022 C 
ATOM     13  C   LIG A   1      -5.066   3.707 129.517  0.00  0.00    +0.012 C 
ATOM     14  C   LIG A   1      -5.895   2.320 127.504  0.00  0.00    +0.017 C 
ATOM     15  C   LIG A   1      -4.408   2.408 127.003  0.00  0.00    +0.040 C 
ENDROOT
BRANCH   1  16
ATOM     16  O   LIG A   1      -2.659   3.738 126.000  0.00  0.00    -0.388 OA
ATOM     17  H   LIG A   1      -2.387   4.657 125.828  0.00  0.00    +0.210 HD
ENDBRANCH   1  16
BRANCH   8  18
ATOM     18  O   LIG A   1      -8.377   5.117 126.443  0.00  0.00    -0.387 OA
ATOM     19  H   LIG A   1      -9.186   5.320 126.951  0.00  0.00    +0.210 HD
ENDBRANCH   8  18
BRANCH   9  20
ATOM     20  O   LIG A   1      -7.951   5.390 129.362  0.00  0.00    -0.455 OA
BRANCH  20  21
ATOM     21  C   LIG A   1      -9.036   6.194 129.587  0.00  0.00    +0.332 C 
ATOM     22  O   LIG A   1      -9.809   6.618 128.782  0.00  0.00    -0.246 OA
BRANCH  21  23
ATOM     23  C   LIG A   1      -9.049   6.458 131.064  0.00  0.00    +0.091 C 
ATOM     24  C   LIG A   1      -8.733   5.519 131.971  0.00  0.00    +0.007 C 
BRANCH  24  25
ATOM     25  C   LIG A   1      -8.623   5.840 133.390  0.00  0.00    -0.004 C 
ATOM     26  C   LIG A   1      -8.202   4.942 134.303  0.00  0.00    -0.027 C 
BRANCH  26  27
ATOM     27  C   LIG A   1      -7.589   5.362 135.623  0.00  0.00    +0.027 C 
BRANCH  27  28
ATOM     28  C   LIG A   1      -6.124   5.866 135.596  0.00  0.00    +0.004 C 
BRANCH  28  29
ATOM     29  C   LIG A   1      -5.226   5.223 134.523  0.00  0.00    +0.000 C 
BRANCH  29  30
ATOM     30  C   LIG A   1      -4.539   6.220 133.571  0.00  0.00    -0.003 C 
ATOM     31  C   LIG A   1      -5.087   6.192 132.150  0.00  0.00    +0.004 C 
ENDBRANCH  29  30
ENDBRANCH  28  29
ENDBRANCH  27  28
ENDBRANCH  26  27
ENDBRANCH  24  25
ENDBRANCH  21  23
ENDBRANCH  20  21
ENDBRANCH   9  20
BRANCH  12  32
ATOM     32  C   LIG A   1      -5.541   1.258 129.881  0.00  0.00    +0.012 C 
BRANCH  32  33
ATOM     33  C   LIG A   1      -4.272   1.418 130.769  0.00  0.00    +0.035 C 
BRANCH  33  34
ATOM     34  C   LIG A   1      -4.494   1.858 132.210  0.00  0.00    -0.055 C 
ATOM     35  C   LIG A   1      -5.731   1.897 132.739  0.00  0.00    +0.012 C 
BRANCH  34  36
ATOM     36  C   LIG A   1      -3.337   2.116 133.046  0.00  0.00    -0.005 C 
ATOM     37  C   LIG A   1      -2.547   3.191 132.914  0.00  0.00    +0.008 C 
ENDBRANCH  34  36
ENDBRANCH  33  34
ENDBRANCH  32  33
ENDBRANCH  12  32
BRANCH   6  38
ATOM     38  O   LIG A   1      -8.886   1.782 126.573  0.00  0.00    -0.434 OA
BRANCH  38  39
ATOM     39  C   LIG A   1      -9.301   0.530 126.222  0.00  0.00    +0.306 C 
ATOM     40  C   LIG A   1      -8.279  -0.490 126.602  0.00  0.00    +0.136 C 
ATOM     41  O   LIG A   1     -10.299   0.261 125.563  0.00  0.00    -0.251 OA
ENDBRANCH  38  39
ENDBRANCH   6  38
BRANCH   4  42
ATOM     42  O   LIG A   1      -6.486   2.920 123.095  0.00  0.00    -0.431 OA
BRANCH  42  43
ATOM     43  C   LIG A   1      -6.615   3.426 121.841  0.00  0.00    +0.306 C 
ATOM     44  C   LIG A   1      -5.288   3.968 121.389  0.00  0.00    +0.136 C 
ATOM     45  O   LIG A   1      -7.666   3.586 121.229  0.00  0.00    -0.251 OA
ENDBRANCH  42  43
ENDBRANCH   4  42
TORSDOF 18
ENDMDL
