MODEL 1
REMARK VINA RESULT:      -7.1      0.000      0.000
REMARK  Name = NuBBE_2319
REMARK  14 active torsions:
REMARK  status: ('A' for Active; 'I' for Inactive)
REMARK    1  A    between atoms: C_1  and  O_31
REMARK    2  A    between atoms: C_3  and  C_28
REMARK    3  A    between atoms: C_5  and  O_8
REMARK    4  A    between atoms: O_8  and  C_9
REMARK    5  A    between atoms: C_10  and  C_27
REMARK    6  A    between atoms: C_12  and  O_15
REMARK    7  A    between atoms: O_15  and  C_16
REMARK    8  A    between atoms: C_16  and  C_17
REMARK    9  A    between atoms: C_20  and  O_25
REMARK   10  A    between atoms: C_21  and  O_23
REMARK   11  A    between atoms: O_23  and  C_24
REMARK   12  A    between atoms: O_25  and  C_26
REMARK   13  A    between atoms: C_28  and  C_29
REMARK   14  A    between atoms: O_31  and  C_32
REMARK                            x       y       z     vdW  Elec       q    Type
REMARK                         _______ _______ _______ _____ _____    ______ ____
ROOT
ATOM      1  C   LIG A   1      -8.884  -1.203 123.396  0.00  0.00    +0.203 C 
ATOM      2  C   LIG A   1      -7.785  -0.556 123.805  0.00  0.00    +0.153 C 
ATOM      3  C   LIG A   1      -6.762  -1.177 124.690  0.00  0.00    +0.046 C 
ATOM      4  C   LIG A   1      -7.469  -1.920 125.847  0.00  0.00    +0.055 C 
ATOM      5  C   LIG A   1      -8.949  -2.324 125.630  0.00  0.00    +0.193 C 
ATOM      6  C   LIG A   1      -9.278  -2.418 124.140  0.00  0.00    +0.229 C 
ATOM      7  O   LIG A   1      -9.925  -3.267 123.605  0.00  0.00    -0.286 OA
ATOM      8  C   LIG A   1      -5.947   0.097 125.045  0.00  0.00    +0.069 C 
ATOM      9  C   LIG A   1      -6.933   1.241 124.756  0.00  0.00    +0.311 C 
ATOM     10  O   LIG A   1      -7.434   0.755 123.506  0.00  0.00    -0.463 OA
ATOM     11  C   LIG A   1      -5.211   0.095 126.363  0.00  0.00    +0.015 C 
ENDROOT
BRANCH   5  12
ATOM     12  O   LIG A   1      -9.233  -3.490 126.383  0.00  0.00    -0.372 OA
ATOM     13  C   LIG A   1      -8.613  -3.497 127.669  0.00  0.00    +0.195 C 
ENDBRANCH   5  12
BRANCH   1  14
ATOM     14  O   LIG A   1      -9.762  -0.907 122.414  0.00  0.00    -0.489 OA
ATOM     15  C   LIG A   1     -10.267   0.357 122.639  0.00  0.00    +0.277 C 
ENDBRANCH   1  14
BRANCH   9  16
ATOM     16  O   LIG A   1      -8.008   1.399 125.688  0.00  0.00    -0.337 OA
BRANCH  16  17
ATOM     17  C   LIG A   1      -7.973   2.614 126.486  0.00  0.00    +0.199 C 
BRANCH  17  18
ATOM     18  C   LIG A   1      -8.093   2.510 128.012  0.00  0.00    -0.018 A 
ATOM     19  C   LIG A   1      -8.146   1.296 128.692  0.00  0.00    +0.010 A 
ATOM     20  C   LIG A   1      -8.478   1.266 130.072  0.00  0.00    +0.050 A 
ATOM     21  C   LIG A   1      -8.814   2.431 130.829  0.00  0.00    +0.162 A 
ATOM     22  C   LIG A   1      -8.632   3.668 130.188  0.00  0.00    +0.162 A 
ATOM     23  C   LIG A   1      -8.215   3.666 128.808  0.00  0.00    +0.055 A 
BRANCH  22  24
ATOM     24  O   LIG A   1      -8.912   4.964 130.535  0.00  0.00    -0.491 OA
ATOM     25  C   LIG A   1      -8.019   5.889 131.126  0.00  0.00    +0.277 C 
ENDBRANCH  22  24
BRANCH  21  26
ATOM     26  O   LIG A   1      -9.328   2.097 132.062  0.00  0.00    -0.491 OA
ATOM     27  C   LIG A   1      -9.178   2.886 133.245  0.00  0.00    +0.277 C 
ENDBRANCH  21  26
ENDBRANCH  17  18
ENDBRANCH  16  17
ENDBRANCH   9  16
BRANCH   3  28
ATOM     28  C   LIG A   1      -5.957  -2.090 123.702  0.00  0.00    +0.042 C 
BRANCH  28  29
ATOM     29  C   LIG A   1      -5.260  -3.256 124.323  0.00  0.00    -0.034 C 
ATOM     30  C   LIG A   1      -4.451  -4.069 123.633  0.00  0.00    +0.004 C 
ENDBRANCH  28  29
ENDBRANCH   3  28
TORSDOF 9
ENDMDL
MODEL 2
REMARK VINA RESULT:      -7.1      1.146      2.103
REMARK  Name = NuBBE_2319
REMARK  14 active torsions:
REMARK  status: ('A' for Active; 'I' for Inactive)
REMARK    1  A    between atoms: C_1  and  O_31
REMARK    2  A    between atoms: C_3  and  C_28
REMARK    3  A    between atoms: C_5  and  O_8
REMARK    4  A    between atoms: O_8  and  C_9
REMARK    5  A    between atoms: C_10  and  C_27
REMARK    6  A    between atoms: C_12  and  O_15
REMARK    7  A    between atoms: O_15  and  C_16
REMARK    8  A    between atoms: C_16  and  C_17
REMARK    9  A    between atoms: C_20  and  O_25
REMARK   10  A    between atoms: C_21  and  O_23
REMARK   11  A    between atoms: O_23  and  C_24
REMARK   12  A    between atoms: O_25  and  C_26
REMARK   13  A    between atoms: C_28  and  C_29
REMARK   14  A    between atoms: O_31  and  C_32
REMARK                            x       y       z     vdW  Elec       q    Type
REMARK                         _______ _______ _______ _____ _____    ______ ____
ROOT
ATOM      1  C   LIG A   1      -8.810  -1.207 123.302  0.00  0.00    +0.203 C 
ATOM      2  C   LIG A   1      -7.721  -0.585 123.773  0.00  0.00    +0.153 C 
ATOM      3  C   LIG A   1      -6.746  -1.241 124.686  0.00  0.00    +0.046 C 
ATOM      4  C   LIG A   1      -7.513  -1.998 125.795  0.00  0.00    +0.055 C 
ATOM      5  C   LIG A   1      -8.988  -2.374 125.505  0.00  0.00    +0.193 C 
ATOM      6  C   LIG A   1      -9.253  -2.431 124.000  0.00  0.00    +0.229 C 
ATOM      7  O   LIG A   1      -9.888  -3.258 123.419  0.00  0.00    -0.286 OA
ATOM      8  C   LIG A   1      -5.930   0.012 125.105  0.00  0.00    +0.069 C 
ATOM      9  C   LIG A   1      -6.885   1.177 124.800  0.00  0.00    +0.311 C 
ATOM     10  O   LIG A   1      -7.338   0.727 123.518  0.00  0.00    -0.463 OA
ATOM     11  C   LIG A   1      -5.251  -0.029 126.453  0.00  0.00    +0.015 C 
ENDROOT
BRANCH   5  12
ATOM     12  O   LIG A   1      -9.320  -3.553 126.219  0.00  0.00    -0.372 OA
ATOM     13  C   LIG A   1      -8.806  -3.571 127.550  0.00  0.00    +0.195 C 
ENDBRANCH   5  12
BRANCH   1  14
ATOM     14  O   LIG A   1      -9.641  -0.876 122.290  0.00  0.00    -0.489 OA
ATOM     15  C   LIG A   1     -10.308   0.284 122.627  0.00  0.00    +0.277 C 
ENDBRANCH   1  14
BRANCH   9  16
ATOM     16  O   LIG A   1      -7.997   1.331 125.687  0.00  0.00    -0.337 OA
BRANCH  16  17
ATOM     17  C   LIG A   1      -7.822   2.310 126.748  0.00  0.00    +0.199 C 
BRANCH  17  18
ATOM     18  C   LIG A   1      -8.156   1.916 128.192  0.00  0.00    -0.018 A 
ATOM     19  C   LIG A   1      -8.697   2.803 129.120  0.00  0.00    +0.010 A 
ATOM     20  C   LIG A   1      -8.776   2.442 130.490  0.00  0.00    +0.050 A 
ATOM     21  C   LIG A   1      -8.284   1.204 131.009  0.00  0.00    +0.162 A 
ATOM     22  C   LIG A   1      -7.864   0.252 130.066  0.00  0.00    +0.162 A 
ATOM     23  C   LIG A   1      -7.872   0.623 128.672  0.00  0.00    +0.055 A 
BRANCH  22  24
ATOM     24  O   LIG A   1      -7.270  -0.980 130.163  0.00  0.00    -0.491 OA
ATOM     25  C   LIG A   1      -7.582  -1.993 131.100  0.00  0.00    +0.277 C 
ENDBRANCH  22  24
BRANCH  21  26
ATOM     26  O   LIG A   1      -8.261   1.211 132.386  0.00  0.00    -0.491 OA
ATOM     27  C   LIG A   1      -8.135   2.387 133.191  0.00  0.00    +0.277 C 
ENDBRANCH  21  26
ENDBRANCH  17  18
ENDBRANCH  16  17
ENDBRANCH   9  16
BRANCH   3  28
ATOM     28  C   LIG A   1      -5.912  -2.144 123.714  0.00  0.00    +0.042 C 
BRANCH  28  29
ATOM     29  C   LIG A   1      -5.111  -3.225 124.363  0.00  0.00    -0.034 C 
ATOM     30  C   LIG A   1      -4.579  -4.245 123.679  0.00  0.00    +0.004 C 
ENDBRANCH  28  29
ENDBRANCH   3  28
TORSDOF 9
ENDMDL
MODEL 3
REMARK VINA RESULT:      -7.0      3.177      5.561
REMARK  Name = NuBBE_2319
REMARK  14 active torsions:
REMARK  status: ('A' for Active; 'I' for Inactive)
REMARK    1  A    between atoms: C_1  and  O_31
REMARK    2  A    between atoms: C_3  and  C_28
REMARK    3  A    between atoms: C_5  and  O_8
REMARK    4  A    between atoms: O_8  and  C_9
REMARK    5  A    between atoms: C_10  and  C_27
REMARK    6  A    between atoms: C_12  and  O_15
REMARK    7  A    between atoms: O_15  and  C_16
REMARK    8  A    between atoms: C_16  and  C_17
REMARK    9  A    between atoms: C_20  and  O_25
REMARK   10  A    between atoms: C_21  and  O_23
REMARK   11  A    between atoms: O_23  and  C_24
REMARK   12  A    between atoms: O_25  and  C_26
REMARK   13  A    between atoms: C_28  and  C_29
REMARK   14  A    between atoms: O_31  and  C_32
REMARK                            x       y       z     vdW  Elec       q    Type
REMARK                         _______ _______ _______ _____ _____    ______ ____
ROOT
ATOM      1  C   LIG A   1      -6.332  -0.107 126.168  0.00  0.00    +0.203 C 
ATOM      2  C   LIG A   1      -6.746  -1.279 125.669  0.00  0.00    +0.153 C 
ATOM      3  C   LIG A   1      -7.657  -1.384 124.497  0.00  0.00    +0.046 C 
ATOM      4  C   LIG A   1      -8.817  -0.374 124.658  0.00  0.00    +0.055 C 
ATOM      5  C   LIG A   1      -8.585   0.824 125.613  0.00  0.00    +0.193 C 
ATOM      6  C   LIG A   1      -7.092   1.103 125.789  0.00  0.00    +0.229 C 
ATOM      7  O   LIG A   1      -6.563   2.173 125.800  0.00  0.00    -0.286 OA
ATOM      8  C   LIG A   1      -8.002  -2.895 124.595  0.00  0.00    +0.069 C 
ATOM      9  C   LIG A   1      -7.677  -3.239 126.058  0.00  0.00    +0.311 C 
ATOM     10  O   LIG A   1      -6.428  -2.544 126.149  0.00  0.00    -0.463 OA
ATOM     11  C   LIG A   1      -9.331  -3.335 124.029  0.00  0.00    +0.015 C 
ENDROOT
BRANCH   5  12
ATOM     12  O   LIG A   1      -9.355   1.930 125.174  0.00  0.00    -0.372 OA
ATOM     13  C   LIG A   1     -10.200   1.626 124.065  0.00  0.00    +0.195 C 
ENDBRANCH   5  12
BRANCH   1  14
ATOM     14  O   LIG A   1      -5.332   0.176 127.029  0.00  0.00    -0.489 OA
ATOM     15  C   LIG A   1      -5.764  -0.090 128.311  0.00  0.00    +0.277 C 
ENDBRANCH   1  14
BRANCH   9  16
ATOM     16  O   LIG A   1      -8.589  -2.740 127.042  0.00  0.00    -0.337 OA
BRANCH  16  17
ATOM     17  C   LIG A   1      -8.683  -3.523 128.263  0.00  0.00    +0.199 C 
BRANCH  17  18
ATOM     18  C   LIG A   1      -7.783  -3.164 129.453  0.00  0.00    -0.018 A 
ATOM     19  C   LIG A   1      -8.101  -2.175 130.380  0.00  0.00    +0.010 A 
ATOM     20  C   LIG A   1      -7.132  -1.742 131.322  0.00  0.00    +0.050 A 
ATOM     21  C   LIG A   1      -5.792  -2.238 131.360  0.00  0.00    +0.162 A 
ATOM     22  C   LIG A   1      -5.503  -3.328 130.522  0.00  0.00    +0.162 A 
ATOM     23  C   LIG A   1      -6.537  -3.797 129.633  0.00  0.00    +0.055 A 
BRANCH  22  24
ATOM     24  O   LIG A   1      -4.354  -4.011 130.218  0.00  0.00    -0.491 OA
ATOM     25  C   LIG A   1      -3.292  -3.553 129.404  0.00  0.00    +0.277 C 
ENDBRANCH  22  24
BRANCH  21  26
ATOM     26  O   LIG A   1      -5.001  -1.483 132.197  0.00  0.00    -0.491 OA
ATOM     27  C   LIG A   1      -3.937  -0.634 131.762  0.00  0.00    +0.277 C 
ENDBRANCH  21  26
ENDBRANCH  17  18
ENDBRANCH  16  17
ENDBRANCH   9  16
BRANCH   3  28
ATOM     28  C   LIG A   1      -6.699  -1.113 123.286  0.00  0.00    +0.042 C 
BRANCH  28  29
ATOM     29  C   LIG A   1      -6.085  -2.324 122.665  0.00  0.00    -0.034 C 
ATOM     30  C   LIG A   1      -4.912  -2.829 123.065  0.00  0.00    +0.004 C 
ENDBRANCH  28  29
ENDBRANCH   3  28
TORSDOF 9
ENDMDL
MODEL 4
REMARK VINA RESULT:      -7.0      3.182      5.691
REMARK  Name = NuBBE_2319
REMARK  14 active torsions:
REMARK  status: ('A' for Active; 'I' for Inactive)
REMARK    1  A    between atoms: C_1  and  O_31
REMARK    2  A    between atoms: C_3  and  C_28
REMARK    3  A    between atoms: C_5  and  O_8
REMARK    4  A    between atoms: O_8  and  C_9
REMARK    5  A    between atoms: C_10  and  C_27
REMARK    6  A    between atoms: C_12  and  O_15
REMARK    7  A    between atoms: O_15  and  C_16
REMARK    8  A    between atoms: C_16  and  C_17
REMARK    9  A    between atoms: C_20  and  O_25
REMARK   10  A    between atoms: C_21  and  O_23
REMARK   11  A    between atoms: O_23  and  C_24
REMARK   12  A    between atoms: O_25  and  C_26
REMARK   13  A    between atoms: C_28  and  C_29
REMARK   14  A    between atoms: O_31  and  C_32
REMARK                            x       y       z     vdW  Elec       q    Type
REMARK                         _______ _______ _______ _____ _____    ______ ____
ROOT
ATOM      1  C   LIG A   1      -7.801  -2.468 127.336  0.00  0.00    +0.203 C 
ATOM      2  C   LIG A   1      -7.902  -2.290 126.012  0.00  0.00    +0.153 C 
ATOM      3  C   LIG A   1      -6.737  -1.953 125.149  0.00  0.00    +0.046 C 
ATOM      4  C   LIG A   1      -5.902  -0.841 125.827  0.00  0.00    +0.055 C 
ATOM      5  C   LIG A   1      -6.070  -0.664 127.358  0.00  0.00    +0.193 C 
ATOM      6  C   LIG A   1      -6.589  -1.949 128.004  0.00  0.00    +0.229 C 
ATOM      7  O   LIG A   1      -6.212  -2.434 129.028  0.00  0.00    -0.286 OA
ATOM      8  C   LIG A   1      -7.501  -1.584 123.848  0.00  0.00    +0.069 C 
ATOM      9  C   LIG A   1      -8.919  -1.263 124.348  0.00  0.00    +0.311 C 
ATOM     10  O   LIG A   1      -9.062  -2.366 125.251  0.00  0.00    -0.463 OA
ATOM     11  C   LIG A   1      -6.830  -0.611 122.910  0.00  0.00    +0.015 C 
ENDROOT
BRANCH   5  12
ATOM     12  O   LIG A   1      -4.865  -0.159 127.906  0.00  0.00    -0.372 OA
ATOM     13  C   LIG A   1      -5.065   0.943 128.790  0.00  0.00    +0.195 C 
ENDBRANCH   5  12
BRANCH   1  14
ATOM     14  O   LIG A   1      -8.664  -3.018 128.216  0.00  0.00    -0.489 OA
ATOM     15  C   LIG A   1      -8.930  -4.313 127.823  0.00  0.00    +0.277 C 
ENDBRANCH   1  14
BRANCH   9  16
ATOM     16  O   LIG A   1      -9.076  -0.028 125.054  0.00  0.00    -0.337 OA
BRANCH  16  17
ATOM     17  C   LIG A   1      -9.583   1.084 124.266  0.00  0.00    +0.199 C 
BRANCH  17  18
ATOM     18  C   LIG A   1      -8.607   2.164 123.781  0.00  0.00    -0.018 A 
ATOM     19  C   LIG A   1      -8.658   2.722 122.506  0.00  0.00    +0.010 A 
ATOM     20  C   LIG A   1      -7.600   3.548 122.046  0.00  0.00    +0.050 A 
ATOM     21  C   LIG A   1      -6.424   3.823 122.810  0.00  0.00    +0.162 A 
ATOM     22  C   LIG A   1      -6.425   3.378 124.143  0.00  0.00    +0.162 A 
ATOM     23  C   LIG A   1      -7.554   2.609 124.604  0.00  0.00    +0.055 A 
BRANCH  22  24
ATOM     24  O   LIG A   1      -5.485   3.373 125.140  0.00  0.00    -0.491 OA
ATOM     25  C   LIG A   1      -5.026   4.494 125.871  0.00  0.00    +0.277 C 
ENDBRANCH  22  24
BRANCH  21  26
ATOM     26  O   LIG A   1      -5.461   4.440 122.044  0.00  0.00    -0.491 OA
ATOM     27  C   LIG A   1      -5.200   4.141 120.671  0.00  0.00    +0.277 C 
ENDBRANCH  21  26
ENDBRANCH  17  18
ENDBRANCH  16  17
ENDBRANCH   9  16
BRANCH   3  28
ATOM     28  C   LIG A   1      -6.010  -3.332 124.992  0.00  0.00    +0.042 C 
BRANCH  28  29
ATOM     29  C   LIG A   1      -5.033  -3.423 123.865  0.00  0.00    -0.034 C 
ATOM     30  C   LIG A   1      -4.249  -4.490 123.670  0.00  0.00    +0.004 C 
ENDBRANCH  28  29
ENDBRANCH   3  28
TORSDOF 9
ENDMDL
MODEL 5
REMARK VINA RESULT:      -6.9      5.163      8.391
REMARK  Name = NuBBE_2319
REMARK  14 active torsions:
REMARK  status: ('A' for Active; 'I' for Inactive)
REMARK    1  A    between atoms: C_1  and  O_31
REMARK    2  A    between atoms: C_3  and  C_28
REMARK    3  A    between atoms: C_5  and  O_8
REMARK    4  A    between atoms: O_8  and  C_9
REMARK    5  A    between atoms: C_10  and  C_27
REMARK    6  A    between atoms: C_12  and  O_15
REMARK    7  A    between atoms: O_15  and  C_16
REMARK    8  A    between atoms: C_16  and  C_17
REMARK    9  A    between atoms: C_20  and  O_25
REMARK   10  A    between atoms: C_21  and  O_23
REMARK   11  A    between atoms: O_23  and  C_24
REMARK   12  A    between atoms: O_25  and  C_26
REMARK   13  A    between atoms: C_28  and  C_29
REMARK   14  A    between atoms: O_31  and  C_32
REMARK                            x       y       z     vdW  Elec       q    Type
REMARK                         _______ _______ _______ _____ _____    ______ ____
ROOT
ATOM      1  C   LIG A   1      -7.328   4.358 132.269  0.00  0.00    +0.203 C 
ATOM      2  C   LIG A   1      -7.895   3.457 131.456  0.00  0.00    +0.153 C 
ATOM      3  C   LIG A   1      -7.247   2.972 130.207  0.00  0.00    +0.046 C 
ATOM      4  C   LIG A   1      -6.666   4.177 129.430  0.00  0.00    +0.055 C 
ATOM      5  C   LIG A   1      -6.393   5.472 130.236  0.00  0.00    +0.193 C 
ATOM      6  C   LIG A   1      -6.218   5.166 131.723  0.00  0.00    +0.229 C 
ATOM      7  O   LIG A   1      -5.397   5.631 132.455  0.00  0.00    -0.286 OA
ATOM      8  C   LIG A   1      -8.459   2.231 129.580  0.00  0.00    +0.069 C 
ATOM      9  C   LIG A   1      -9.668   2.864 130.288  0.00  0.00    +0.311 C 
ATOM     10  O   LIG A   1      -9.139   2.859 131.619  0.00  0.00    -0.463 OA
ATOM     11  C   LIG A   1      -8.487   2.110 128.075  0.00  0.00    +0.015 C 
ENDROOT
BRANCH   5  12
ATOM     12  O   LIG A   1      -5.320   6.180 129.637  0.00  0.00    -0.372 OA
ATOM     13  C   LIG A   1      -4.388   5.332 128.967  0.00  0.00    +0.195 C 
ENDBRANCH   5  12
BRANCH   1  14
ATOM     14  O   LIG A   1      -7.632   4.710 133.536  0.00  0.00    -0.489 OA
ATOM     15  C   LIG A   1      -8.605   5.687 133.502  0.00  0.00    +0.277 C 
ENDBRANCH   1  14
BRANCH   9  16
ATOM     16  O   LIG A   1     -10.000   4.200 129.897  0.00  0.00    -0.337 OA
BRANCH  16  17
ATOM     17  C   LIG A   1     -11.113   4.804 130.613  0.00  0.00    +0.199 C 
BRANCH  17  18
ATOM     18  C   LIG A   1     -11.470   6.271 130.338  0.00  0.00    -0.018 A 
ATOM     19  C   LIG A   1     -12.420   6.975 131.073  0.00  0.00    +0.010 A 
ATOM     20  C   LIG A   1     -12.862   8.250 130.632  0.00  0.00    +0.050 A 
ATOM     21  C   LIG A   1     -12.415   8.864 129.421  0.00  0.00    +0.162 A 
ATOM     22  C   LIG A   1     -11.361   8.226 128.746  0.00  0.00    +0.162 A 
ATOM     23  C   LIG A   1     -10.879   6.971 129.267  0.00  0.00    +0.055 A 
BRANCH  22  24
ATOM     24  O   LIG A   1     -10.731   8.447 127.550  0.00  0.00    -0.491 OA
ATOM     25  C   LIG A   1     -10.949   7.747 126.340  0.00  0.00    +0.277 C 
ENDBRANCH  22  24
BRANCH  21  26
ATOM     26  O   LIG A   1     -13.175   9.970 129.110  0.00  0.00    -0.491 OA
ATOM     27  C   LIG A   1     -13.490  11.023 130.024  0.00  0.00    +0.277 C 
ENDBRANCH  21  26
ENDBRANCH  17  18
ENDBRANCH  16  17
ENDBRANCH   9  16
BRANCH   3  28
ATOM     28  C   LIG A   1      -6.187   1.948 130.740  0.00  0.00    +0.042 C 
BRANCH  28  29
ATOM     29  C   LIG A   1      -5.018   1.702 129.843  0.00  0.00    -0.034 C 
ATOM     30  C   LIG A   1      -4.125   0.731 130.066  0.00  0.00    +0.004 C 
ENDBRANCH  28  29
ENDBRANCH   3  28
TORSDOF 9
ENDMDL
MODEL 6
REMARK VINA RESULT:      -6.9      5.241      6.693
REMARK  Name = NuBBE_2319
REMARK  14 active torsions:
REMARK  status: ('A' for Active; 'I' for Inactive)
REMARK    1  A    between atoms: C_1  and  O_31
REMARK    2  A    between atoms: C_3  and  C_28
REMARK    3  A    between atoms: C_5  and  O_8
REMARK    4  A    between atoms: O_8  and  C_9
REMARK    5  A    between atoms: C_10  and  C_27
REMARK    6  A    between atoms: C_12  and  O_15
REMARK    7  A    between atoms: O_15  and  C_16
REMARK    8  A    between atoms: C_16  and  C_17
REMARK    9  A    between atoms: C_20  and  O_25
REMARK   10  A    between atoms: C_21  and  O_23
REMARK   11  A    between atoms: O_23  and  C_24
REMARK   12  A    between atoms: O_25  and  C_26
REMARK   13  A    between atoms: C_28  and  C_29
REMARK   14  A    between atoms: O_31  and  C_32
REMARK                            x       y       z     vdW  Elec       q    Type
REMARK                         _______ _______ _______ _____ _____    ______ ____
ROOT
ATOM      1  C   LIG A   1      -6.351   3.133 128.876  0.00  0.00    +0.203 C 
ATOM      2  C   LIG A   1      -5.324   3.982 129.009  0.00  0.00    +0.153 C 
ATOM      3  C   LIG A   1      -4.014   3.584 129.593  0.00  0.00    +0.046 C 
ATOM      4  C   LIG A   1      -4.257   2.754 130.875  0.00  0.00    +0.055 C 
ATOM      5  C   LIG A   1      -5.644   2.078 131.029  0.00  0.00    +0.193 C 
ATOM      6  C   LIG A   1      -6.313   1.886 129.668  0.00  0.00    +0.229 C 
ATOM      7  O   LIG A   1      -6.905   0.918 129.295  0.00  0.00    -0.286 OA
ATOM      8  C   LIG A   1      -3.387   4.995 129.760  0.00  0.00    +0.069 C 
ATOM      9  C   LIG A   1      -4.608   5.930 129.753  0.00  0.00    +0.311 C 
ATOM     10  O   LIG A   1      -5.308   5.327 128.658  0.00  0.00    -0.463 OA
ATOM     11  C   LIG A   1      -2.356   5.164 130.849  0.00  0.00    +0.015 C 
ENDROOT
BRANCH   5  12
ATOM     12  O   LIG A   1      -5.508   0.900 131.805  0.00  0.00    -0.372 OA
ATOM     13  C   LIG A   1      -6.549   0.733 132.766  0.00  0.00    +0.195 C 
ENDBRANCH   5  12
BRANCH   1  14
ATOM     14  O   LIG A   1      -7.487   3.236 128.153  0.00  0.00    -0.489 OA
ATOM     15  C   LIG A   1      -8.434   3.895 128.910  0.00  0.00    +0.277 C 
ENDBRANCH   1  14
BRANCH   9  16
ATOM     16  O   LIG A   1      -5.424   5.911 130.928  0.00  0.00    -0.337 OA
BRANCH  16  17
ATOM     17  C   LIG A   1      -6.403   6.982 131.029  0.00  0.00    +0.199 C 
BRANCH  17  18
ATOM     18  C   LIG A   1      -7.892   6.627 131.130  0.00  0.00    -0.018 A 
ATOM     19  C   LIG A   1      -8.881   7.264 130.383  0.00  0.00    +0.010 A 
ATOM     20  C   LIG A   1     -10.251   7.045 130.681  0.00  0.00    +0.050 A 
ATOM     21  C   LIG A   1     -10.703   6.221 131.758  0.00  0.00    +0.162 A 
ATOM     22  C   LIG A   1      -9.721   5.471 132.428  0.00  0.00    +0.162 A 
ATOM     23  C   LIG A   1      -8.343   5.656 132.045  0.00  0.00    +0.055 A 
BRANCH  22  24
ATOM     24  O   LIG A   1      -9.740   4.656 133.530  0.00  0.00    -0.491 OA
ATOM     25  C   LIG A   1      -8.675   3.853 134.002  0.00  0.00    +0.277 C 
ENDBRANCH  22  24
BRANCH  21  26
ATOM     26  O   LIG A   1     -12.053   6.377 131.976  0.00  0.00    -0.491 OA
ATOM     27  C   LIG A   1     -12.872   7.359 131.337  0.00  0.00    +0.277 C 
ENDBRANCH  21  26
ENDBRANCH  17  18
ENDBRANCH  16  17
ENDBRANCH   9  16
BRANCH   3  28
ATOM     28  C   LIG A   1      -3.329   2.809 128.416  0.00  0.00    +0.042 C 
BRANCH  28  29
ATOM     29  C   LIG A   1      -2.449   3.629 127.529  0.00  0.00    -0.034 C 
ATOM     30  C   LIG A   1      -1.602   3.086 126.647  0.00  0.00    +0.004 C 
ENDBRANCH  28  29
ENDBRANCH   3  28
TORSDOF 9
ENDMDL
MODEL 7
REMARK VINA RESULT:      -6.9      4.710      6.382
REMARK  Name = NuBBE_2319
REMARK  14 active torsions:
REMARK  status: ('A' for Active; 'I' for Inactive)
REMARK    1  A    between atoms: C_1  and  O_31
REMARK    2  A    between atoms: C_3  and  C_28
REMARK    3  A    between atoms: C_5  and  O_8
REMARK    4  A    between atoms: O_8  and  C_9
REMARK    5  A    between atoms: C_10  and  C_27
REMARK    6  A    between atoms: C_12  and  O_15
REMARK    7  A    between atoms: O_15  and  C_16
REMARK    8  A    between atoms: C_16  and  C_17
REMARK    9  A    between atoms: C_20  and  O_25
REMARK   10  A    between atoms: C_21  and  O_23
REMARK   11  A    between atoms: O_23  and  C_24
REMARK   12  A    between atoms: O_25  and  C_26
REMARK   13  A    between atoms: C_28  and  C_29
REMARK   14  A    between atoms: O_31  and  C_32
REMARK                            x       y       z     vdW  Elec       q    Type
REMARK                         _______ _______ _______ _____ _____    ______ ____
ROOT
ATOM      1  C   LIG A   1      -6.784   2.864 128.759  0.00  0.00    +0.203 C 
ATOM      2  C   LIG A   1      -5.757   3.675 129.048  0.00  0.00    +0.153 C 
ATOM      3  C   LIG A   1      -4.428   3.172 129.491  0.00  0.00    +0.046 C 
ATOM      4  C   LIG A   1      -4.627   2.074 130.561  0.00  0.00    +0.055 C 
ATOM      5  C   LIG A   1      -6.004   1.365 130.601  0.00  0.00    +0.193 C 
ATOM      6  C   LIG A   1      -6.715   1.473 129.252  0.00  0.00    +0.229 C 
ATOM      7  O   LIG A   1      -7.313   0.606 128.690  0.00  0.00    -0.286 OA
ATOM      8  C   LIG A   1      -3.803   4.518 129.949  0.00  0.00    +0.069 C 
ATOM      9  C   LIG A   1      -5.028   5.416 130.187  0.00  0.00    +0.311 C 
ATOM     10  O   LIG A   1      -5.759   5.064 129.006  0.00  0.00    -0.463 OA
ATOM     11  C   LIG A   1      -2.739   4.452 131.018  0.00  0.00    +0.015 C 
ENDROOT
BRANCH   5  12
ATOM     12  O   LIG A   1      -5.838   0.045 131.090  0.00  0.00    -0.372 OA
ATOM     13  C   LIG A   1      -6.844  -0.342 132.026  0.00  0.00    +0.195 C 
ENDBRANCH   5  12
BRANCH   1  14
ATOM     14  O   LIG A   1      -7.942   3.112 128.111  0.00  0.00    -0.489 OA
ATOM     15  C   LIG A   1      -7.659   3.387 126.789  0.00  0.00    +0.277 C 
ENDBRANCH   1  14
BRANCH   9  16
ATOM     16  O   LIG A   1      -5.807   5.126 131.351  0.00  0.00    -0.337 OA
BRANCH  16  17
ATOM     17  C   LIG A   1      -6.462   6.269 131.968  0.00  0.00    +0.199 C 
BRANCH  17  18
ATOM     18  C   LIG A   1      -7.960   6.494 131.724  0.00  0.00    -0.018 A 
ATOM     19  C   LIG A   1      -8.949   6.065 132.605  0.00  0.00    +0.010 A 
ATOM     20  C   LIG A   1     -10.314   6.106 132.219  0.00  0.00    +0.050 A 
ATOM     21  C   LIG A   1     -10.757   6.534 130.929  0.00  0.00    +0.162 A 
ATOM     22  C   LIG A   1      -9.783   7.094 130.086  0.00  0.00    +0.162 A 
ATOM     23  C   LIG A   1      -8.415   7.111 130.542  0.00  0.00    +0.055 A 
BRANCH  22  24
ATOM     24  O   LIG A   1      -9.792   7.529 128.786  0.00  0.00    -0.491 OA
ATOM     25  C   LIG A   1     -10.622   8.536 128.241  0.00  0.00    +0.277 C 
ENDBRANCH  22  24
BRANCH  21  26
ATOM     26  O   LIG A   1     -12.090   6.246 130.735  0.00  0.00    -0.491 OA
ATOM     27  C   LIG A   1     -13.093   7.215 130.424  0.00  0.00    +0.277 C 
ENDBRANCH  21  26
ENDBRANCH  17  18
ENDBRANCH  16  17
ENDBRANCH   9  16
BRANCH   3  28
ATOM     28  C   LIG A   1      -3.776   2.687 128.150  0.00  0.00    +0.042 C 
BRANCH  28  29
ATOM     29  C   LIG A   1      -2.684   3.554 127.612  0.00  0.00    -0.034 C 
ATOM     30  C   LIG A   1      -1.720   3.090 126.809  0.00  0.00    +0.004 C 
ENDBRANCH  28  29
ENDBRANCH   3  28
TORSDOF 9
ENDMDL
MODEL 8
REMARK VINA RESULT:      -6.8      3.023      7.132
REMARK  Name = NuBBE_2319
REMARK  14 active torsions:
REMARK  status: ('A' for Active; 'I' for Inactive)
REMARK    1  A    between atoms: C_1  and  O_31
REMARK    2  A    between atoms: C_3  and  C_28
REMARK    3  A    between atoms: C_5  and  O_8
REMARK    4  A    between atoms: O_8  and  C_9
REMARK    5  A    between atoms: C_10  and  C_27
REMARK    6  A    between atoms: C_12  and  O_15
REMARK    7  A    between atoms: O_15  and  C_16
REMARK    8  A    between atoms: C_16  and  C_17
REMARK    9  A    between atoms: C_20  and  O_25
REMARK   10  A    between atoms: C_21  and  O_23
REMARK   11  A    between atoms: O_23  and  C_24
REMARK   12  A    between atoms: O_25  and  C_26
REMARK   13  A    between atoms: C_28  and  C_29
REMARK   14  A    between atoms: O_31  and  C_32
REMARK                            x       y       z     vdW  Elec       q    Type
REMARK                         _______ _______ _______ _____ _____    ______ ____
ROOT
ATOM      1  C   LIG A   1      -7.085   3.966 127.195  0.00  0.00    +0.203 C 
ATOM      2  C   LIG A   1      -5.844   3.680 127.612  0.00  0.00    +0.153 C 
ATOM      3  C   LIG A   1      -4.623   4.144 126.899  0.00  0.00    +0.046 C 
ATOM      4  C   LIG A   1      -4.798   3.913 125.380  0.00  0.00    +0.055 C 
ATOM      5  C   LIG A   1      -6.246   3.770 124.848  0.00  0.00    +0.193 C 
ATOM      6  C   LIG A   1      -7.247   4.426 125.800  0.00  0.00    +0.229 C 
ATOM      7  O   LIG A   1      -8.180   5.105 125.496  0.00  0.00    -0.286 OA
ATOM      8  C   LIG A   1      -3.569   3.277 127.640  0.00  0.00    +0.069 C 
ATOM      9  C   LIG A   1      -4.404   2.130 128.232  0.00  0.00    +0.311 C 
ATOM     10  O   LIG A   1      -5.497   2.917 128.721  0.00  0.00    -0.463 OA
ATOM     11  C   LIG A   1      -2.307   2.935 126.885  0.00  0.00    +0.015 C 
ENDROOT
BRANCH   5  12
ATOM     12  O   LIG A   1      -6.301   4.228 123.508  0.00  0.00    -0.372 OA
ATOM     13  C   LIG A   1      -6.638   3.203 122.573  0.00  0.00    +0.195 C 
ENDBRANCH   5  12
BRANCH   1  14
ATOM     14  O   LIG A   1      -8.270   3.862 127.832  0.00  0.00    -0.489 OA
ATOM     15  C   LIG A   1      -8.230   4.639 128.971  0.00  0.00    +0.277 C 
ENDBRANCH   1  14
BRANCH   9  16
ATOM     16  O   LIG A   1      -4.881   1.152 127.304  0.00  0.00    -0.337 OA
BRANCH  16  17
ATOM     17  C   LIG A   1      -5.727   0.112 127.867  0.00  0.00    +0.199 C 
BRANCH  17  18
ATOM     18  C   LIG A   1      -6.936  -0.386 127.064  0.00  0.00    -0.018 A 
ATOM     19  C   LIG A   1      -7.365  -1.711 127.072  0.00  0.00    +0.010 A 
ATOM     20  C   LIG A   1      -8.345  -2.148 126.144  0.00  0.00    +0.050 A 
ATOM     21  C   LIG A   1      -8.913  -1.305 125.140  0.00  0.00    +0.162 A 
ATOM     22  C   LIG A   1      -8.590   0.060 125.212  0.00  0.00    +0.162 A 
ATOM     23  C   LIG A   1      -7.651   0.486 126.220  0.00  0.00    +0.055 A 
BRANCH  22  24
ATOM     24  O   LIG A   1      -8.856   1.140 124.410  0.00  0.00    -0.491 OA
ATOM     25  C   LIG A   1     -10.133   1.586 123.996  0.00  0.00    +0.277 C 
ENDBRANCH  22  24
BRANCH  21  26
ATOM     26  O   LIG A   1      -9.645  -2.033 124.229  0.00  0.00    -0.491 OA
ATOM     27  C   LIG A   1      -9.388  -3.397 123.884  0.00  0.00    +0.277 C 
ENDBRANCH  21  26
ENDBRANCH  17  18
ENDBRANCH  16  17
ENDBRANCH   9  16
BRANCH   3  28
ATOM     28  C   LIG A   1      -4.513   5.644 127.339  0.00  0.00    +0.042 C 
BRANCH  28  29
ATOM     29  C   LIG A   1      -3.526   5.929 128.423  0.00  0.00    -0.034 C 
ATOM     30  C   LIG A   1      -2.436   6.683 128.232  0.00  0.00    +0.004 C 
ENDBRANCH  28  29
ENDBRANCH   3  28
TORSDOF 9
ENDMDL
MODEL 9
REMARK VINA RESULT:      -6.8      2.970      7.831
REMARK  Name = NuBBE_2319
REMARK  14 active torsions:
REMARK  status: ('A' for Active; 'I' for Inactive)
REMARK    1  A    between atoms: C_1  and  O_31
REMARK    2  A    between atoms: C_3  and  C_28
REMARK    3  A    between atoms: C_5  and  O_8
REMARK    4  A    between atoms: O_8  and  C_9
REMARK    5  A    between atoms: C_10  and  C_27
REMARK    6  A    between atoms: C_12  and  O_15
REMARK    7  A    between atoms: O_15  and  C_16
REMARK    8  A    between atoms: C_16  and  C_17
REMARK    9  A    between atoms: C_20  and  O_25
REMARK   10  A    between atoms: C_21  and  O_23
REMARK   11  A    between atoms: O_23  and  C_24
REMARK   12  A    between atoms: O_25  and  C_26
REMARK   13  A    between atoms: C_28  and  C_29
REMARK   14  A    between atoms: O_31  and  C_32
REMARK                            x       y       z     vdW  Elec       q    Type
REMARK                         _______ _______ _______ _____ _____    ______ ____
ROOT
ATOM      1  C   LIG A   1      -7.621  -1.469 132.076  0.00  0.00    +0.203 C 
ATOM      2  C   LIG A   1      -6.974  -2.124 131.103  0.00  0.00    +0.153 C 
ATOM      3  C   LIG A   1      -6.072  -1.447 130.132  0.00  0.00    +0.046 C 
ATOM      4  C   LIG A   1      -6.749  -0.155 129.618  0.00  0.00    +0.055 C 
ATOM      5  C   LIG A   1      -7.875   0.449 130.493  0.00  0.00    +0.193 C 
ATOM      6  C   LIG A   1      -7.741  -0.002 131.948  0.00  0.00    +0.229 C 
ATOM      7  O   LIG A   1      -7.878   0.677 132.920  0.00  0.00    -0.286 OA
ATOM      8  C   LIG A   1      -5.887  -2.613 129.122  0.00  0.00    +0.069 C 
ATOM      9  C   LIG A   1      -7.100  -3.517 129.399  0.00  0.00    +0.311 C 
ATOM     10  O   LIG A   1      -7.044  -3.485 130.830  0.00  0.00    -0.463 OA
ATOM     11  C   LIG A   1      -5.577  -2.240 127.693  0.00  0.00    +0.015 C 
ENDROOT
BRANCH   5  12
ATOM     12  O   LIG A   1      -7.917   1.853 130.300  0.00  0.00    -0.372 OA
ATOM     13  C   LIG A   1      -8.754   2.250 129.215  0.00  0.00    +0.195 C 
ENDBRANCH   5  12
BRANCH   1  14
ATOM     14  O   LIG A   1      -8.252  -1.932 133.175  0.00  0.00    -0.489 OA
ATOM     15  C   LIG A   1      -7.318  -2.502 134.014  0.00  0.00    +0.277 C 
ENDBRANCH   1  14
BRANCH   9  16
ATOM     16  O   LIG A   1      -8.367  -3.030 128.946  0.00  0.00    -0.337 OA
BRANCH  16  17
ATOM     17  C   LIG A   1      -8.986  -3.795 127.876  0.00  0.00    +0.199 C 
BRANCH  17  18
ATOM     18  C   LIG A   1      -8.792  -3.342 126.422  0.00  0.00    -0.018 A 
ATOM     19  C   LIG A   1      -8.044  -4.058 125.493  0.00  0.00    +0.010 A 
ATOM     20  C   LIG A   1      -7.721  -3.479 124.238  0.00  0.00    +0.050 A 
ATOM     21  C   LIG A   1      -8.088  -2.149 123.865  0.00  0.00    +0.162 A 
ATOM     22  C   LIG A   1      -8.956  -1.470 124.738  0.00  0.00    +0.162 A 
ATOM     23  C   LIG A   1      -9.331  -2.121 125.969  0.00  0.00    +0.055 A 
BRANCH  22  24
ATOM     24  O   LIG A   1      -9.454  -0.194 124.775  0.00  0.00    -0.491 OA
ATOM     25  C   LIG A   1      -9.568   0.633 125.918  0.00  0.00    +0.277 C 
ENDBRANCH  22  24
BRANCH  21  26
ATOM     26  O   LIG A   1      -7.448  -1.756 122.712  0.00  0.00    -0.491 OA
ATOM     27  C   LIG A   1      -6.085  -2.053 122.398  0.00  0.00    +0.277 C 
ENDBRANCH  21  26
ENDBRANCH  17  18
ENDBRANCH  16  17
ENDBRANCH   9  16
BRANCH   3  28
ATOM     28  C   LIG A   1      -4.764  -1.228 130.968  0.00  0.00    +0.042 C 
BRANCH  28  29
ATOM     29  C   LIG A   1      -4.160   0.136 130.878  0.00  0.00    -0.034 C 
ATOM     30  C   LIG A   1      -4.118   0.980 131.915  0.00  0.00    +0.004 C 
ENDBRANCH  28  29
ENDBRANCH   3  28
TORSDOF 9
ENDMDL
