MODEL 1
REMARK VINA RESULT:      -6.7      0.000      0.000
REMARK  Name = NuBBE_601
REMARK  4 active torsions:
REMARK  status: ('A' for Active; 'I' for Inactive)
REMARK    1  A    between atoms: C_1  and  O_2
REMARK    2  A    between atoms: O_2  and  C_3
REMARK    3  A    between atoms: C_11  and  O_12
REMARK    4  A    between atoms: O_12  and  C_13
REMARK                            x       y       z     vdW  Elec       q    Type
REMARK                         _______ _______ _______ _____ _____    ______ ____
ROOT
ATOM      1  C   LIG A   1     -11.806   6.712 130.468  0.00  0.00    +0.142 A 
ATOM      2  C   LIG A   1     -12.047   6.827 129.086  0.00  0.00    +0.082 A 
ATOM      3  C   LIG A   1     -10.957   6.611 128.253  0.00  0.00    +0.231 A 
ATOM      4  O   LIG A   1     -11.317   6.755 126.948  0.00  0.00    -0.445 OA
ATOM      5  C   LIG A   1     -12.637   7.051 126.929  0.00  0.00    +0.198 A 
ATOM      6  C   LIG A   1     -13.136   7.101 128.208  0.00  0.00    +0.055 A 
ATOM      7  N   LIG A   1      -9.709   6.291 128.610  0.00  0.00    -0.208 NA
ATOM      8  C   LIG A   1      -9.477   6.138 129.917  0.00  0.00    +0.124 A 
ATOM      9  C   LIG A   1      -8.184   5.784 130.357  0.00  0.00    +0.192 A 
ATOM     10  C   LIG A   1      -7.940   5.667 131.718  0.00  0.00    +0.210 A 
ATOM     11  C   LIG A   1      -8.924   5.853 132.647  0.00  0.00    +0.171 A 
ATOM     12  O   LIG A   1      -8.489   5.684 133.922  0.00  0.00    -0.452 OA
ATOM     13  C   LIG A   1      -7.097   5.383 133.694  0.00  0.00    +0.467 C 
ATOM     14  O   LIG A   1      -6.746   5.348 132.299  0.00  0.00    -0.449 OA
ATOM     15  C   LIG A   1     -10.204   6.184 132.271  0.00  0.00    +0.063 A 
ATOM     16  C   LIG A   1     -10.501   6.340 130.897  0.00  0.00    +0.050 A 
ENDROOT
BRANCH   1  18
ATOM     17  C   LIG A   1     -13.147   8.194 131.775  0.00  0.00    +0.277 C 
ATOM     18  O   LIG A   1     -12.760   6.861 131.467  0.00  0.00    -0.494 OA
ENDBRANCH   1  18
BRANCH   9  19
ATOM     19  O   LIG A   1      -7.074   5.594 129.566  0.00  0.00    -0.489 OA
ATOM     20  C   LIG A   1      -6.873   4.281 129.055  0.00  0.00    +0.277 C 
ENDBRANCH   9  19
TORSDOF 2
ENDMDL
MODEL 2
REMARK VINA RESULT:      -6.7      6.834      9.099
REMARK  Name = NuBBE_601
REMARK  4 active torsions:
REMARK  status: ('A' for Active; 'I' for Inactive)
REMARK    1  A    between atoms: C_1  and  O_2
REMARK    2  A    between atoms: O_2  and  C_3
REMARK    3  A    between atoms: C_11  and  O_12
REMARK    4  A    between atoms: O_12  and  C_13
REMARK                            x       y       z     vdW  Elec       q    Type
REMARK                         _______ _______ _______ _____ _____    ______ ____
ROOT
ATOM      1  C   LIG A   1      -6.136   3.849 121.514  0.00  0.00    +0.142 A 
ATOM      2  C   LIG A   1      -7.132   3.984 120.529  0.00  0.00    +0.082 A 
ATOM      3  C   LIG A   1      -8.430   3.691 120.926  0.00  0.00    +0.231 A 
ATOM      4  O   LIG A   1      -9.295   3.855 119.887  0.00  0.00    -0.445 OA
ATOM      5  C   LIG A   1      -8.567   4.266 118.823  0.00  0.00    +0.198 A 
ATOM      6  C   LIG A   1      -7.240   4.368 119.160  0.00  0.00    +0.055 A 
ATOM      7  N   LIG A   1      -8.847   3.309 122.137  0.00  0.00    -0.208 NA
ATOM      8  C   LIG A   1      -7.915   3.217 123.092  0.00  0.00    +0.124 A 
ATOM      9  C   LIG A   1      -8.293   2.836 124.397  0.00  0.00    +0.192 A 
ATOM     10  C   LIG A   1      -7.317   2.702 125.373  0.00  0.00    +0.210 A 
ATOM     11  C   LIG A   1      -5.999   2.960 125.117  0.00  0.00    +0.171 A 
ATOM     12  O   LIG A   1      -5.204   2.782 126.203  0.00  0.00    -0.452 OA
ATOM     13  C   LIG A   1      -6.174   2.361 127.183  0.00  0.00    +0.467 C 
ATOM     14  O   LIG A   1      -7.518   2.329 126.671  0.00  0.00    -0.449 OA
ATOM     15  C   LIG A   1      -5.580   3.350 123.868  0.00  0.00    +0.063 A 
ATOM     16  C   LIG A   1      -6.532   3.478 122.830  0.00  0.00    +0.050 A 
ENDROOT
BRANCH   1  18
ATOM     17  C   LIG A   1      -4.424   5.487 121.213  0.00  0.00    +0.277 C 
ATOM     18  O   LIG A   1      -4.784   4.118 121.335  0.00  0.00    -0.494 OA
ENDBRANCH   1  18
BRANCH   9  19
ATOM     19  O   LIG A   1      -9.561   2.507 124.818  0.00  0.00    -0.489 OA
ATOM     20  C   LIG A   1      -9.998   1.180 124.547  0.00  0.00    +0.277 C 
ENDBRANCH   9  19
TORSDOF 2
ENDMDL
MODEL 3
REMARK VINA RESULT:      -6.6      1.821      5.406
REMARK  Name = NuBBE_601
REMARK  4 active torsions:
REMARK  status: ('A' for Active; 'I' for Inactive)
REMARK    1  A    between atoms: C_1  and  O_2
REMARK    2  A    between atoms: O_2  and  C_3
REMARK    3  A    between atoms: C_11  and  O_12
REMARK    4  A    between atoms: O_12  and  C_13
REMARK                            x       y       z     vdW  Elec       q    Type
REMARK                         _______ _______ _______ _____ _____    ______ ____
ROOT
ATOM      1  C   LIG A   1      -8.200   5.837 132.860  0.00  0.00    +0.142 A 
ATOM      2  C   LIG A   1      -6.862   6.017 132.460  0.00  0.00    +0.082 A 
ATOM      3  C   LIG A   1      -6.668   6.638 131.233  0.00  0.00    +0.231 A 
ATOM      4  O   LIG A   1      -5.339   6.748 130.959  0.00  0.00    -0.445 OA
ATOM      5  C   LIG A   1      -4.670   6.214 132.006  0.00  0.00    +0.198 A 
ATOM      6  C   LIG A   1      -5.551   5.757 132.956  0.00  0.00    +0.055 A 
ATOM      7  N   LIG A   1      -7.602   7.099 130.395  0.00  0.00    -0.208 NA
ATOM      8  C   LIG A   1      -8.874   6.971 130.784  0.00  0.00    +0.124 A 
ATOM      9  C   LIG A   1      -9.907   7.454 129.951  0.00  0.00    +0.192 A 
ATOM     10  C   LIG A   1     -11.228   7.281 130.341  0.00  0.00    +0.210 A 
ATOM     11  C   LIG A   1     -11.559   6.685 131.525  0.00  0.00    +0.171 A 
ATOM     12  O   LIG A   1     -12.900   6.621 131.729  0.00  0.00    -0.452 OA
ATOM     13  C   LIG A   1     -13.387   7.235 130.518  0.00  0.00    +0.467 C 
ATOM     14  O   LIG A   1     -12.333   7.676 129.643  0.00  0.00    -0.449 OA
ATOM     15  C   LIG A   1     -10.592   6.212 132.379  0.00  0.00    +0.063 A 
ATOM     16  C   LIG A   1      -9.231   6.341 132.018  0.00  0.00    +0.050 A 
ENDROOT
BRANCH   1  18
ATOM     17  C   LIG A   1      -8.491   3.852 134.156  0.00  0.00    +0.277 C 
ATOM     18  O   LIG A   1      -8.612   5.265 134.058  0.00  0.00    -0.494 OA
ENDBRANCH   1  18
BRANCH   9  19
ATOM     19  O   LIG A   1      -9.755   8.044 128.718  0.00  0.00    -0.489 OA
ATOM     20  C   LIG A   1     -10.313   7.352 127.607  0.00  0.00    +0.277 C 
ENDBRANCH   9  19
TORSDOF 2
ENDMDL
MODEL 4
REMARK VINA RESULT:      -6.5      2.259      4.907
REMARK  Name = NuBBE_601
REMARK  4 active torsions:
REMARK  status: ('A' for Active; 'I' for Inactive)
REMARK    1  A    between atoms: C_1  and  O_2
REMARK    2  A    between atoms: O_2  and  C_3
REMARK    3  A    between atoms: C_11  and  O_12
REMARK    4  A    between atoms: O_12  and  C_13
REMARK                            x       y       z     vdW  Elec       q    Type
REMARK                         _______ _______ _______ _____ _____    ______ ____
ROOT
ATOM      1  C   LIG A   1      -9.602   3.559 130.436  0.00  0.00    +0.142 A 
ATOM      2  C   LIG A   1      -8.537   3.221 129.581  0.00  0.00    +0.082 A 
ATOM      3  C   LIG A   1      -8.200   4.163 128.618  0.00  0.00    +0.231 A 
ATOM      4  O   LIG A   1      -7.164   3.717 127.856  0.00  0.00    -0.445 OA
ATOM      5  C   LIG A   1      -6.818   2.496 128.326  0.00  0.00    +0.198 A 
ATOM      6  C   LIG A   1      -7.620   2.146 129.385  0.00  0.00    +0.055 A 
ATOM      7  N   LIG A   1      -8.758   5.361 128.418  0.00  0.00    -0.208 NA
ATOM      8  C   LIG A   1      -9.743   5.711 129.250  0.00  0.00    +0.124 A 
ATOM      9  C   LIG A   1     -10.363   6.971 129.103  0.00  0.00    +0.192 A 
ATOM     10  C   LIG A   1     -11.413   7.312 129.944  0.00  0.00    +0.210 A 
ATOM     11  C   LIG A   1     -11.846   6.476 130.934  0.00  0.00    +0.171 A 
ATOM     12  O   LIG A   1     -12.874   6.995 131.654  0.00  0.00    -0.452 OA
ATOM     13  C   LIG A   1     -13.057   8.262 130.989  0.00  0.00    +0.467 C 
ATOM     14  O   LIG A   1     -12.121   8.480 129.918  0.00  0.00    -0.449 OA
ATOM     15  C   LIG A   1     -11.267   5.246 131.131  0.00  0.00    +0.063 A 
ATOM     16  C   LIG A   1     -10.208   4.839 130.285  0.00  0.00    +0.050 A 
ENDROOT
BRANCH   1  18
ATOM     17  C   LIG A   1      -9.235   2.657 132.616  0.00  0.00    +0.277 C 
ATOM     18  O   LIG A   1     -10.079   2.775 131.478  0.00  0.00    -0.494 OA
ENDBRANCH   1  18
BRANCH   9  19
ATOM     19  O   LIG A   1     -10.078   7.915 128.143  0.00  0.00    -0.489 OA
ATOM     20  C   LIG A   1     -10.812   7.829 126.927  0.00  0.00    +0.277 C 
ENDBRANCH   9  19
TORSDOF 2
ENDMDL
MODEL 5
REMARK VINA RESULT:      -6.3      7.577      9.546
REMARK  Name = NuBBE_601
REMARK  4 active torsions:
REMARK  status: ('A' for Active; 'I' for Inactive)
REMARK    1  A    between atoms: C_1  and  O_2
REMARK    2  A    between atoms: O_2  and  C_3
REMARK    3  A    between atoms: C_11  and  O_12
REMARK    4  A    between atoms: O_12  and  C_13
REMARK                            x       y       z     vdW  Elec       q    Type
REMARK                         _______ _______ _______ _____ _____    ______ ____
ROOT
ATOM      1  C   LIG A   1      -6.941  -1.164 125.098  0.00  0.00    +0.142 A 
ATOM      2  C   LIG A   1      -7.948  -1.904 124.450  0.00  0.00    +0.082 A 
ATOM      3  C   LIG A   1      -8.870  -1.172 123.714  0.00  0.00    +0.231 A 
ATOM      4  O   LIG A   1      -9.789  -1.997 123.143  0.00  0.00    -0.445 OA
ATOM      5  C   LIG A   1      -9.462  -3.263 123.494  0.00  0.00    +0.198 A 
ATOM      6  C   LIG A   1      -8.340  -3.265 124.287  0.00  0.00    +0.055 A 
ATOM      7  N   LIG A   1      -8.905   0.153 123.536  0.00  0.00    -0.208 NA
ATOM      8  C   LIG A   1      -7.930   0.862 124.112  0.00  0.00    +0.124 A 
ATOM      9  C   LIG A   1      -7.900   2.264 123.948  0.00  0.00    +0.192 A 
ATOM     10  C   LIG A   1      -6.909   3.000 124.583  0.00  0.00    +0.210 A 
ATOM     11  C   LIG A   1      -5.940   2.403 125.339  0.00  0.00    +0.171 A 
ATOM     12  O   LIG A   1      -5.058   3.291 125.866  0.00  0.00    -0.452 OA
ATOM     13  C   LIG A   1      -5.595   4.533 125.367  0.00  0.00    +0.467 C 
ATOM     14  O   LIG A   1      -6.755   4.355 124.535  0.00  0.00    -0.449 OA
ATOM     15  C   LIG A   1      -5.913   1.041 125.518  0.00  0.00    +0.063 A 
ATOM     16  C   LIG A   1      -6.915   0.247 124.912  0.00  0.00    +0.050 A 
ENDROOT
BRANCH   1  18
ATOM     17  C   LIG A   1      -6.261  -2.170 127.155  0.00  0.00    +0.277 C 
ATOM     18  O   LIG A   1      -5.911  -1.701 125.859  0.00  0.00    -0.494 OA
ENDBRANCH   1  18
BRANCH   9  19
ATOM     19  O   LIG A   1      -8.812   3.026 123.255  0.00  0.00    -0.489 OA
ATOM     20  C   LIG A   1      -8.583   3.180 121.859  0.00  0.00    +0.277 C 
ENDBRANCH   9  19
TORSDOF 2
ENDMDL
MODEL 6
REMARK VINA RESULT:      -6.2      6.518      8.630
REMARK  Name = NuBBE_601
REMARK  4 active torsions:
REMARK  status: ('A' for Active; 'I' for Inactive)
REMARK    1  A    between atoms: C_1  and  O_2
REMARK    2  A    between atoms: O_2  and  C_3
REMARK    3  A    between atoms: C_11  and  O_12
REMARK    4  A    between atoms: O_12  and  C_13
REMARK                            x       y       z     vdW  Elec       q    Type
REMARK                         _______ _______ _______ _____ _____    ______ ____
ROOT
ATOM      1  C   LIG A   1      -8.238  -2.009 126.516  0.00  0.00    +0.142 A 
ATOM      2  C   LIG A   1      -8.729  -2.471 125.280  0.00  0.00    +0.082 A 
ATOM      3  C   LIG A   1      -9.211  -1.501 124.411  0.00  0.00    +0.231 A 
ATOM      4  O   LIG A   1      -9.659  -2.072 123.259  0.00  0.00    -0.445 OA
ATOM      5  C   LIG A   1      -9.458  -3.406 123.371  0.00  0.00    +0.198 A 
ATOM      6  C   LIG A   1      -8.886  -3.705 124.584  0.00  0.00    +0.055 A 
ATOM      7  N   LIG A   1      -9.250  -0.179 124.604  0.00  0.00    -0.208 NA
ATOM      8  C   LIG A   1      -8.748   0.275 125.756  0.00  0.00    +0.124 A 
ATOM      9  C   LIG A   1      -8.744   1.663 126.014  0.00  0.00    +0.192 A 
ATOM     10  C   LIG A   1      -8.259   2.125 127.229  0.00  0.00    +0.210 A 
ATOM     11  C   LIG A   1      -7.756   1.277 128.175  0.00  0.00    +0.171 A 
ATOM     12  O   LIG A   1      -7.323   1.923 129.289  0.00  0.00    -0.452 OA
ATOM     13  C   LIG A   1      -7.629   3.290 128.944  0.00  0.00    +0.467 C 
ATOM     14  O   LIG A   1      -8.202   3.429 127.632  0.00  0.00    -0.449 OA
ATOM     15  C   LIG A   1      -7.722  -0.081 127.969  0.00  0.00    +0.063 A 
ATOM     16  C   LIG A   1      -8.226  -0.606 126.756  0.00  0.00    +0.050 A 
ENDROOT
BRANCH   1  18
ATOM     17  C   LIG A   1      -8.593  -3.642 128.222  0.00  0.00    +0.277 C 
ATOM     18  O   LIG A   1      -7.689  -2.806 127.513  0.00  0.00    -0.494 OA
ENDBRANCH   1  18
BRANCH   9  19
ATOM     19  O   LIG A   1      -9.241   2.648 125.192  0.00  0.00    -0.489 OA
ATOM     20  C   LIG A   1      -8.344   3.186 124.228  0.00  0.00    +0.277 C 
ENDBRANCH   9  19
TORSDOF 2
ENDMDL
MODEL 7
REMARK VINA RESULT:      -6.0      3.493      5.354
REMARK  Name = NuBBE_601
REMARK  4 active torsions:
REMARK  status: ('A' for Active; 'I' for Inactive)
REMARK    1  A    between atoms: C_1  and  O_2
REMARK    2  A    between atoms: O_2  and  C_3
REMARK    3  A    between atoms: C_11  and  O_12
REMARK    4  A    between atoms: O_12  and  C_13
REMARK                            x       y       z     vdW  Elec       q    Type
REMARK                         _______ _______ _______ _____ _____    ______ ____
ROOT
ATOM      1  C   LIG A   1      -6.832   5.747 132.881  0.00  0.00    +0.142 A 
ATOM      2  C   LIG A   1      -7.888   6.193 132.064  0.00  0.00    +0.082 A 
ATOM      3  C   LIG A   1      -7.529   6.957 130.961  0.00  0.00    +0.231 A 
ATOM      4  O   LIG A   1      -8.634   7.329 130.259  0.00  0.00    -0.445 OA
ATOM      5  C   LIG A   1      -9.707   6.800 130.892  0.00  0.00    +0.198 A 
ATOM      6  C   LIG A   1      -9.308   6.090 131.998  0.00  0.00    +0.055 A 
ATOM      7  N   LIG A   1      -6.298   7.306 130.576  0.00  0.00    -0.208 NA
ATOM      8  C   LIG A   1      -5.284   6.853 131.320  0.00  0.00    +0.124 A 
ATOM      9  C   LIG A   1      -3.958   7.171 130.956  0.00  0.00    +0.192 A 
ATOM     10  C   LIG A   1      -2.912   6.733 131.756  0.00  0.00    +0.210 A 
ATOM     11  C   LIG A   1      -3.126   5.973 132.871  0.00  0.00    +0.171 A 
ATOM     12  O   LIG A   1      -1.976   5.637 133.511  0.00  0.00    -0.452 OA
ATOM     13  C   LIG A   1      -1.000   6.291 132.675  0.00  0.00    +0.467 C 
ATOM     14  O   LIG A   1      -1.583   6.969 131.548  0.00  0.00    -0.449 OA
ATOM     15  C   LIG A   1      -4.396   5.622 133.261  0.00  0.00    +0.063 A 
ATOM     16  C   LIG A   1      -5.499   6.063 132.494  0.00  0.00    +0.050 A 
ENDROOT
BRANCH   1  18
ATOM     17  C   LIG A   1      -7.557   5.570 135.150  0.00  0.00    +0.277 C 
ATOM     18  O   LIG A   1      -6.969   4.952 134.012  0.00  0.00    -0.494 OA
ENDBRANCH   1  18
BRANCH   9  19
ATOM     19  O   LIG A   1      -3.567   7.950 129.892  0.00  0.00    -0.489 OA
ATOM     20  C   LIG A   1      -3.431   7.293 128.637  0.00  0.00    +0.277 C 
ENDBRANCH   9  19
TORSDOF 2
ENDMDL
MODEL 8
REMARK VINA RESULT:      -6.0      5.372      7.684
REMARK  Name = NuBBE_601
REMARK  4 active torsions:
REMARK  status: ('A' for Active; 'I' for Inactive)
REMARK    1  A    between atoms: C_1  and  O_2
REMARK    2  A    between atoms: O_2  and  C_3
REMARK    3  A    between atoms: C_11  and  O_12
REMARK    4  A    between atoms: O_12  and  C_13
REMARK                            x       y       z     vdW  Elec       q    Type
REMARK                         _______ _______ _______ _____ _____    ______ ____
ROOT
ATOM      1  C   LIG A   1      -7.275   2.593 123.380  0.00  0.00    +0.142 A 
ATOM      2  C   LIG A   1      -6.423   3.226 122.456  0.00  0.00    +0.082 A 
ATOM      3  C   LIG A   1      -5.584   4.206 122.968  0.00  0.00    +0.231 A 
ATOM      4  O   LIG A   1      -4.818   4.744 121.979  0.00  0.00    -0.445 OA
ATOM      5  C   LIG A   1      -5.147   4.108 120.830  0.00  0.00    +0.198 A 
ATOM      6  C   LIG A   1      -6.118   3.166 121.064  0.00  0.00    +0.055 A 
ATOM      7  N   LIG A   1      -5.479   4.609 124.238  0.00  0.00    -0.208 NA
ATOM      8  C   LIG A   1      -6.253   3.985 125.132  0.00  0.00    +0.124 A 
ATOM      9  C   LIG A   1      -6.176   4.352 126.493  0.00  0.00    +0.192 A 
ATOM     10  C   LIG A   1      -7.012   3.730 127.410  0.00  0.00    +0.210 A 
ATOM     11  C   LIG A   1      -7.887   2.748 127.039  0.00  0.00    +0.171 A 
ATOM     12  O   LIG A   1      -8.607   2.258 128.081  0.00  0.00    -0.452 OA
ATOM     13  C   LIG A   1      -8.096   3.063 129.164  0.00  0.00    +0.467 C 
ATOM     14  O   LIG A   1      -7.069   3.982 128.751  0.00  0.00    -0.449 OA
ATOM     15  C   LIG A   1      -7.990   2.343 125.730  0.00  0.00    +0.063 A 
ATOM     16  C   LIG A   1      -7.178   2.961 124.751  0.00  0.00    +0.050 A 
ENDROOT
BRANCH   1  18
ATOM     17  C   LIG A   1      -9.394   1.962 122.476  0.00  0.00    +0.277 C 
ATOM     18  O   LIG A   1      -8.169   1.572 123.082  0.00  0.00    -0.494 OA
ENDBRANCH   1  18
BRANCH   9  19
ATOM     19  O   LIG A   1      -5.382   5.338 127.031  0.00  0.00    -0.489 OA
ATOM     20  C   LIG A   1      -4.068   4.956 127.420  0.00  0.00    +0.277 C 
ENDBRANCH   9  19
TORSDOF 2
ENDMDL
MODEL 9
REMARK VINA RESULT:      -5.9      7.671      9.729
REMARK  Name = NuBBE_601
REMARK  4 active torsions:
REMARK  status: ('A' for Active; 'I' for Inactive)
REMARK    1  A    between atoms: C_1  and  O_2
REMARK    2  A    between atoms: O_2  and  C_3
REMARK    3  A    between atoms: C_11  and  O_12
REMARK    4  A    between atoms: O_12  and  C_13
REMARK                            x       y       z     vdW  Elec       q    Type
REMARK                         _______ _______ _______ _____ _____    ______ ____
ROOT
ATOM      1  C   LIG A   1      -7.802   2.245 123.972  0.00  0.00    +0.142 A 
ATOM      2  C   LIG A   1      -6.740   2.930 124.592  0.00  0.00    +0.082 A 
ATOM      3  C   LIG A   1      -5.862   2.155 125.338  0.00  0.00    +0.231 A 
ATOM      4  O   LIG A   1      -4.888   2.932 125.888  0.00  0.00    -0.445 OA
ATOM      5  C   LIG A   1      -5.122   4.205 125.492  0.00  0.00    +0.198 A 
ATOM      6  C   LIG A   1      -6.238   4.261 124.692  0.00  0.00    +0.055 A 
ATOM      7  N   LIG A   1      -5.898   0.832 125.524  0.00  0.00    -0.208 NA
ATOM      8  C   LIG A   1      -6.877   0.164 124.906  0.00  0.00    +0.124 A 
ATOM      9  C   LIG A   1      -6.959  -1.238 125.048  0.00  0.00    +0.192 A 
ATOM     10  C   LIG A   1      -8.001  -1.921 124.438  0.00  0.00    +0.210 A 
ATOM     11  C   LIG A   1      -8.936  -1.279 123.675  0.00  0.00    +0.171 A 
ATOM     12  O   LIG A   1      -9.866  -2.122 123.157  0.00  0.00    -0.452 OA
ATOM     13  C   LIG A   1      -9.421  -3.382 123.698  0.00  0.00    +0.467 C 
ATOM     14  O   LIG A   1      -8.227  -3.266 124.493  0.00  0.00    -0.449 OA
ATOM     15  C   LIG A   1      -8.893   0.082 123.491  0.00  0.00    +0.063 A 
ATOM     16  C   LIG A   1      -7.864   0.829 124.111  0.00  0.00    +0.050 A 
ENDROOT
BRANCH   1  18
ATOM     17  C   LIG A   1      -8.347   3.245 121.873  0.00  0.00    +0.277 C 
ATOM     18  O   LIG A   1      -8.771   2.824 123.163  0.00  0.00    -0.494 OA
ENDBRANCH   1  18
BRANCH   9  19
ATOM     19  O   LIG A   1      -6.128  -2.033 125.803  0.00  0.00    -0.489 OA
ATOM     20  C   LIG A   1      -6.466  -2.183 127.177  0.00  0.00    +0.277 C 
ENDBRANCH   9  19
TORSDOF 2
ENDMDL
