MODEL 1
REMARK VINA RESULT:      -7.5      0.000      0.000
REMARK  Name = NuBBE_231
REMARK  24 active torsions:
REMARK  status: ('A' for Active; 'I' for Inactive)
REMARK    1  A    between atoms: C_1  and  C_2
REMARK    2  A    between atoms: C_4  and  O_6
REMARK    3  A    between atoms: O_6  and  C_7
REMARK    4  A    between atoms: C_7  and  C_8
REMARK    5  A    between atoms: C_8  and  C_9
REMARK    6  A    between atoms: C_9  and  C_10
REMARK    7  A    between atoms: C_12  and  O_14
REMARK    8  A    between atoms: O_14  and  C_15
REMARK    9  A    between atoms: C_15  and  C_16
REMARK   10  A    between atoms: C_20  and  O_22
REMARK   11  A    between atoms: O_22  and  C_23
REMARK   12  A    between atoms: C_23  and  C_24
REMARK   13  A    between atoms: C_27  and  O_29
REMARK   14  A    between atoms: O_29  and  C_30
REMARK   15  A    between atoms: C_30  and  C_31
REMARK   16  A    between atoms: C_31  and  C_32
REMARK   17  A    between atoms: C_32  and  C_33
REMARK   18  A    between atoms: C_36  and  O_38
REMARK   19  A    between atoms: O_38  and  C_39
REMARK   20  A    between atoms: C_43  and  C_44
REMARK   21  A    between atoms: C_43  and  C_45
REMARK   22  A    between atoms: C_45  and  C_46
REMARK   23  A    between atoms: C_47  and  C_48
REMARK   24  A    between atoms: C_47  and  C_50
REMARK                            x       y       z     vdW  Elec       q    Type
REMARK                         _______ _______ _______ _____ _____    ______ ____
ROOT
ATOM      1  C   LIG A   1      -3.759   2.512 132.394  0.00  0.00    +0.012 C 
ATOM      2  C   LIG A   1      -4.370   2.482 130.977  0.00  0.00    +0.037 C 
ATOM      3  C   LIG A   1      -4.758   3.890 130.505  0.00  0.00    +0.221 C 
ATOM      4  C   LIG A   1      -6.221   3.906 130.108  0.00  0.00    +0.234 C 
ATOM      5  C   LIG A   1      -6.680   3.144 128.798  0.00  0.00    +0.104 C 
ATOM      6  C   LIG A   1      -6.135   3.091 127.302  0.00  0.00    +0.013 C 
ATOM      7  C   LIG A   1      -7.074   3.814 126.343  0.00  0.00    +0.343 C 
ATOM      8  O   LIG A   1      -8.315   3.509 126.943  0.00  0.00    -0.297 OA
ATOM      9  C   LIG A   1      -8.168   3.705 128.353  0.00  0.00    +0.328 C 
ATOM     10  C   LIG A   1      -5.403   2.109 126.732  0.00  0.00    +0.010 C 
ATOM     11  C   LIG A   1      -5.433   0.734 127.291  0.00  0.00    +0.141 C 
ATOM     12  C   LIG A   1      -6.575   0.630 128.294  0.00  0.00    +0.041 C 
ATOM     13  C   LIG A   1      -6.521   1.655 129.376  0.00  0.00    +0.018 C 
ATOM     14  C   LIG A   1      -5.311   1.229 130.480  0.00  0.00    -0.018 C 
ATOM     15  C   LIG A   1      -4.155   0.304 130.071  0.00  0.00    +0.012 C 
ENDROOT
BRANCH  11  16
ATOM     16  O   LIG A   1      -5.549  -0.286 126.293  0.00  0.00    -0.376 OA
ATOM     17  C   LIG A   1      -5.727  -1.600 126.779  0.00  0.00    +0.194 C 
ENDBRANCH  11  16
BRANCH   7  18
ATOM     18  O   LIG A   1      -6.976   3.305 124.993  0.00  0.00    -0.431 OA
BRANCH  18  19
ATOM     19  C   LIG A   1      -6.355   4.037 124.033  0.00  0.00    +0.306 C 
ATOM     20  C   LIG A   1      -6.415   3.318 122.714  0.00  0.00    +0.136 C 
ATOM     21  O   LIG A   1      -5.850   5.144 124.141  0.00  0.00    -0.251 OA
ENDBRANCH  18  19
ENDBRANCH   7  18
BRANCH   9  22
ATOM     22  O   LIG A   1      -8.633   5.095 128.524  0.00  0.00    -0.434 OA
BRANCH  22  23
ATOM     23  C   LIG A   1      -9.542   5.482 129.446  0.00  0.00    +0.309 C 
ATOM     24  O   LIG A   1     -10.478   4.775 129.793  0.00  0.00    -0.251 OA
BRANCH  23  25
ATOM     25  C   LIG A   1      -9.440   6.890 130.017  0.00  0.00    +0.120 C 
BRANCH  25  26
ATOM     26  C   LIG A   1     -10.713   7.671 129.593  0.00  0.00    +0.008 C 
ATOM     27  C   LIG A   1     -10.449   8.369 128.275  0.00  0.00    +0.004 C 
ENDBRANCH  25  26
ENDBRANCH  23  25
ENDBRANCH  22  23
ENDBRANCH   9  22
BRANCH   4  28
ATOM     28  O   LIG A   1      -6.910   3.164 131.343  0.00  0.00    -0.457 OA
BRANCH  28  29
ATOM     29  C   LIG A   1      -7.938   3.489 132.181  0.00  0.00    +0.304 C 
ATOM     30  C   LIG A   1      -8.933   2.345 132.471  0.00  0.00    +0.136 C 
ATOM     31  O   LIG A   1      -8.124   4.619 132.618  0.00  0.00    -0.251 OA
ENDBRANCH  28  29
ENDBRANCH   4  28
BRANCH  14  32
ATOM     32  C   LIG A   1      -6.058   0.255 131.532  0.00  0.00    +0.034 C 
BRANCH  32  33
ATOM     33  C   LIG A   1      -6.117  -1.293 131.586  0.00  0.00    -0.023 C 
ATOM     34  C   LIG A   1      -6.782  -2.313 130.992  0.00  0.00    -0.055 C 
ATOM     35  C   LIG A   1      -6.397  -3.758 131.228  0.00  0.00    +0.043 C 
BRANCH  34  36
ATOM     36  C   LIG A   1      -7.886  -2.300 130.045  0.00  0.00    -0.005 C 
ATOM     37  C   LIG A   1      -8.137  -3.269 129.158  0.00  0.00    +0.008 C 
ENDBRANCH  34  36
ENDBRANCH  32  33
ENDBRANCH  14  32
BRANCH   3  38
ATOM     38  O   LIG A   1      -3.630   4.444 129.762  0.00  0.00    -0.457 OA
BRANCH  38  39
ATOM     39  C   LIG A   1      -3.688   5.409 128.814  0.00  0.00    +0.307 C 
ATOM     40  O   LIG A   1      -4.516   6.214 128.704  0.00  0.00    -0.251 OA
BRANCH  39  41
ATOM     41  C   LIG A   1      -2.627   5.171 127.750  0.00  0.00    +0.120 C 
BRANCH  41  42
ATOM     42  C   LIG A   1      -2.439   3.662 127.760  0.00  0.00    +0.008 C 
ATOM     43  C   LIG A   1      -1.780   3.082 126.530  0.00  0.00    +0.004 C 
ENDBRANCH  41  42
ENDBRANCH  39  41
ENDBRANCH  38  39
ENDBRANCH   3  38
TORSDOF 16
ENDMDL
MODEL 2
REMARK VINA RESULT:      -7.4      2.146      5.454
REMARK  Name = NuBBE_231
REMARK  24 active torsions:
REMARK  status: ('A' for Active; 'I' for Inactive)
REMARK    1  A    between atoms: C_1  and  C_2
REMARK    2  A    between atoms: C_4  and  O_6
REMARK    3  A    between atoms: O_6  and  C_7
REMARK    4  A    between atoms: C_7  and  C_8
REMARK    5  A    between atoms: C_8  and  C_9
REMARK    6  A    between atoms: C_9  and  C_10
REMARK    7  A    between atoms: C_12  and  O_14
REMARK    8  A    between atoms: O_14  and  C_15
REMARK    9  A    between atoms: C_15  and  C_16
REMARK   10  A    between atoms: C_20  and  O_22
REMARK   11  A    between atoms: O_22  and  C_23
REMARK   12  A    between atoms: C_23  and  C_24
REMARK   13  A    between atoms: C_27  and  O_29
REMARK   14  A    between atoms: O_29  and  C_30
REMARK   15  A    between atoms: C_30  and  C_31
REMARK   16  A    between atoms: C_31  and  C_32
REMARK   17  A    between atoms: C_32  and  C_33
REMARK   18  A    between atoms: C_36  and  O_38
REMARK   19  A    between atoms: O_38  and  C_39
REMARK   20  A    between atoms: C_43  and  C_44
REMARK   21  A    between atoms: C_43  and  C_45
REMARK   22  A    between atoms: C_45  and  C_46
REMARK   23  A    between atoms: C_47  and  C_48
REMARK   24  A    between atoms: C_47  and  C_50
REMARK                            x       y       z     vdW  Elec       q    Type
REMARK                         _______ _______ _______ _____ _____    ______ ____
ROOT
ATOM      1  C   LIG A   1      -5.476   3.837 130.003  0.00  0.00    +0.012 C 
ATOM      2  C   LIG A   1      -5.600   2.563 129.142  0.00  0.00    +0.037 C 
ATOM      3  C   LIG A   1      -5.092   2.801 127.713  0.00  0.00    +0.221 C 
ATOM      4  C   LIG A   1      -6.180   2.435 126.722  0.00  0.00    +0.234 C 
ATOM      5  C   LIG A   1      -6.570   0.913 126.522  0.00  0.00    +0.104 C 
ATOM      6  C   LIG A   1      -5.731  -0.423 126.303  0.00  0.00    +0.013 C 
ATOM      7  C   LIG A   1      -5.882  -0.945 124.878  0.00  0.00    +0.343 C 
ATOM      8  O   LIG A   1      -7.221  -0.579 124.626  0.00  0.00    -0.297 OA
ATOM      9  C   LIG A   1      -7.396   0.760 125.100  0.00  0.00    +0.328 C 
ATOM     10  C   LIG A   1      -5.454  -1.376 127.220  0.00  0.00    +0.010 C 
ATOM     11  C   LIG A   1      -6.314  -1.530 128.420  0.00  0.00    +0.141 C 
ATOM     12  C   LIG A   1      -7.585  -0.712 128.230  0.00  0.00    +0.041 C 
ATOM     13  C   LIG A   1      -7.336   0.725 127.921  0.00  0.00    +0.018 C 
ATOM     14  C   LIG A   1      -6.856   1.520 129.337  0.00  0.00    -0.018 C 
ATOM     15  C   LIG A   1      -6.247   0.743 130.513  0.00  0.00    +0.012 C 
ENDROOT
BRANCH  11  16
ATOM     16  O   LIG A   1      -6.635  -2.891 128.722  0.00  0.00    -0.376 OA
ATOM     17  C   LIG A   1      -7.954  -3.123 129.173  0.00  0.00    +0.194 C 
ENDBRANCH  11  16
BRANCH   7  18
ATOM     18  O   LIG A   1      -5.677  -2.374 124.794  0.00  0.00    -0.431 OA
BRANCH  18  19
ATOM     19  C   LIG A   1      -5.299  -2.940 123.619  0.00  0.00    +0.306 C 
ATOM     20  C   LIG A   1      -4.539  -4.210 123.876  0.00  0.00    +0.136 C 
ATOM     21  O   LIG A   1      -5.553  -2.559 122.486  0.00  0.00    -0.251 OA
ENDBRANCH  18  19
ENDBRANCH   7  18
BRANCH   9  22
ATOM     22  O   LIG A   1      -7.139   1.557 123.885  0.00  0.00    -0.434 OA
BRANCH  22  23
ATOM     23  C   LIG A   1      -8.108   2.117 123.127  0.00  0.00    +0.309 C 
ATOM     24  O   LIG A   1      -9.267   1.724 123.136  0.00  0.00    -0.251 OA
BRANCH  23  25
ATOM     25  C   LIG A   1      -7.722   3.232 122.165  0.00  0.00    +0.120 C 
BRANCH  25  26
ATOM     26  C   LIG A   1      -6.196   3.478 122.307  0.00  0.00    +0.008 C 
ATOM     27  C   LIG A   1      -5.534   3.266 120.961  0.00  0.00    +0.004 C 
ENDBRANCH  25  26
ENDBRANCH  23  25
ENDBRANCH  22  23
ENDBRANCH   9  22
BRANCH   4  28
ATOM     28  O   LIG A   1      -7.458   3.165 127.342  0.00  0.00    -0.457 OA
BRANCH  28  29
ATOM     29  C   LIG A   1      -8.075   4.357 127.092  0.00  0.00    +0.304 C 
ATOM     30  C   LIG A   1      -7.942   4.871 125.642  0.00  0.00    +0.136 C 
ATOM     31  O   LIG A   1      -8.629   5.028 127.955  0.00  0.00    -0.251 OA
ENDBRANCH  28  29
ENDBRANCH   4  28
BRANCH  14  32
ATOM     32  C   LIG A   1      -8.245   1.978 130.025  0.00  0.00    +0.034 C 
BRANCH  32  33
ATOM     33  C   LIG A   1      -8.542   2.384 131.492  0.00  0.00    -0.023 C 
ATOM     34  C   LIG A   1      -8.661   3.509 132.238  0.00  0.00    -0.055 C 
ATOM     35  C   LIG A   1      -9.151   3.465 133.670  0.00  0.00    +0.043 C 
BRANCH  34  36
ATOM     36  C   LIG A   1      -8.422   4.902 131.896  0.00  0.00    -0.005 C 
ATOM     37  C   LIG A   1      -9.370   5.843 131.836  0.00  0.00    +0.008 C 
ENDBRANCH  34  36
ENDBRANCH  32  33
ENDBRANCH  14  32
BRANCH   3  38
ATOM     38  O   LIG A   1      -3.684   2.425 127.665  0.00  0.00    -0.457 OA
BRANCH  38  39
ATOM     39  C   LIG A   1      -2.663   3.187 127.205  0.00  0.00    +0.307 C 
ATOM     40  O   LIG A   1      -1.567   2.844 127.049  0.00  0.00    -0.251 OA
BRANCH  39  41
ATOM     41  C   LIG A   1      -3.088   4.647 127.123  0.00  0.00    +0.120 C 
BRANCH  41  42
ATOM     42  C   LIG A   1      -2.433   5.281 128.340  0.00  0.00    +0.008 C 
ATOM     43  C   LIG A   1      -2.292   6.785 128.291  0.00  0.00    +0.004 C 
ENDBRANCH  41  42
ENDBRANCH  39  41
ENDBRANCH  38  39
ENDBRANCH   3  38
TORSDOF 16
ENDMDL
MODEL 3
REMARK VINA RESULT:      -7.3      2.314      4.934
REMARK  Name = NuBBE_231
REMARK  24 active torsions:
REMARK  status: ('A' for Active; 'I' for Inactive)
REMARK    1  A    between atoms: C_1  and  C_2
REMARK    2  A    between atoms: C_4  and  O_6
REMARK    3  A    between atoms: O_6  and  C_7
REMARK    4  A    between atoms: C_7  and  C_8
REMARK    5  A    between atoms: C_8  and  C_9
REMARK    6  A    between atoms: C_9  and  C_10
REMARK    7  A    between atoms: C_12  and  O_14
REMARK    8  A    between atoms: O_14  and  C_15
REMARK    9  A    between atoms: C_15  and  C_16
REMARK   10  A    between atoms: C_20  and  O_22
REMARK   11  A    between atoms: O_22  and  C_23
REMARK   12  A    between atoms: C_23  and  C_24
REMARK   13  A    between atoms: C_27  and  O_29
REMARK   14  A    between atoms: O_29  and  C_30
REMARK   15  A    between atoms: C_30  and  C_31
REMARK   16  A    between atoms: C_31  and  C_32
REMARK   17  A    between atoms: C_32  and  C_33
REMARK   18  A    between atoms: C_36  and  O_38
REMARK   19  A    between atoms: O_38  and  C_39
REMARK   20  A    between atoms: C_43  and  C_44
REMARK   21  A    between atoms: C_43  and  C_45
REMARK   22  A    between atoms: C_45  and  C_46
REMARK   23  A    between atoms: C_47  and  C_48
REMARK   24  A    between atoms: C_47  and  C_50
REMARK                            x       y       z     vdW  Elec       q    Type
REMARK                         _______ _______ _______ _____ _____    ______ ____
ROOT
ATOM      1  C   LIG A   1      -4.952  -1.734 128.026  0.00  0.00    +0.012 C 
ATOM      2  C   LIG A   1      -5.768  -0.426 127.977  0.00  0.00    +0.037 C 
ATOM      3  C   LIG A   1      -5.612   0.381 129.274  0.00  0.00    +0.221 C 
ATOM      4  C   LIG A   1      -6.981   0.661 129.863  0.00  0.00    +0.234 C 
ATOM      5  C   LIG A   1      -7.948   1.681 129.132  0.00  0.00    +0.104 C 
ATOM      6  C   LIG A   1      -7.759   3.142 128.526  0.00  0.00    +0.013 C 
ATOM      7  C   LIG A   1      -8.470   4.190 129.374  0.00  0.00    +0.343 C 
ATOM      8  O   LIG A   1      -9.591   3.444 129.794  0.00  0.00    -0.297 OA
ATOM      9  C   LIG A   1      -9.120   2.153 130.196  0.00  0.00    +0.328 C 
ATOM     10  C   LIG A   1      -7.622   3.476 127.224  0.00  0.00    +0.010 C 
ATOM     11  C   LIG A   1      -8.120   2.566 126.162  0.00  0.00    +0.141 C 
ATOM     12  C   LIG A   1      -8.996   1.494 126.797  0.00  0.00    +0.041 C 
ATOM     13  C   LIG A   1      -8.322   0.735 127.890  0.00  0.00    +0.018 C 
ATOM     14  C   LIG A   1      -7.220  -0.353 127.208  0.00  0.00    -0.018 C 
ATOM     15  C   LIG A   1      -6.652  -0.128 125.799  0.00  0.00    +0.012 C 
ENDROOT
BRANCH  11  16
ATOM     16  O   LIG A   1      -8.832   3.241 125.120  0.00  0.00    -0.376 OA
ATOM     17  C   LIG A   1      -8.450   2.905 123.802  0.00  0.00    +0.194 C 
ENDBRANCH  11  16
BRANCH   7  18
ATOM     18  O   LIG A   1      -8.843   5.357 128.604  0.00  0.00    -0.431 OA
BRANCH  18  19
ATOM     19  C   LIG A   1      -9.803   6.199 129.065  0.00  0.00    +0.306 C 
ATOM     20  C   LIG A   1      -9.291   6.970 130.248  0.00  0.00    +0.136 C 
ATOM     21  O   LIG A   1     -10.918   6.392 128.603  0.00  0.00    -0.251 OA
ENDBRANCH  18  19
ENDBRANCH   7  18
BRANCH   9  22
ATOM     22  O   LIG A   1      -8.922   2.331 131.647  0.00  0.00    -0.434 OA
BRANCH  22  23
ATOM     23  C   LIG A   1      -8.166   3.308 132.194  0.00  0.00    +0.309 C 
ATOM     24  O   LIG A   1      -6.948   3.343 132.088  0.00  0.00    -0.251 OA
BRANCH  23  25
ATOM     25  C   LIG A   1      -8.856   4.366 133.044  0.00  0.00    +0.120 C 
BRANCH  25  26
ATOM     26  C   LIG A   1      -8.358   4.205 134.506  0.00  0.00    +0.008 C 
ATOM     27  C   LIG A   1      -7.757   5.514 134.971  0.00  0.00    +0.004 C 
ENDBRANCH  25  26
ENDBRANCH  23  25
ENDBRANCH  22  23
ENDBRANCH   9  22
BRANCH   4  28
ATOM     28  O   LIG A   1      -7.677  -0.774 129.789  0.00  0.00    -0.457 OA
BRANCH  28  29
ATOM     29  C   LIG A   1      -7.753  -1.829 130.653  0.00  0.00    +0.304 C 
ATOM     30  C   LIG A   1      -7.765  -3.221 129.986  0.00  0.00    +0.136 C 
ATOM     31  O   LIG A   1      -7.885  -1.704 131.865  0.00  0.00    -0.251 OA
ENDBRANCH  28  29
ENDBRANCH   4  28
BRANCH  14  32
ATOM     32  C   LIG A   1      -8.099  -1.680 126.921  0.00  0.00    +0.034 C 
BRANCH  32  33
ATOM     33  C   LIG A   1      -8.747  -2.178 125.604  0.00  0.00    -0.023 C 
ATOM     34  C   LIG A   1      -8.481  -3.045 124.597  0.00  0.00    -0.055 C 
ATOM     35  C   LIG A   1      -9.511  -3.369 123.535  0.00  0.00    +0.043 C 
BRANCH  34  36
ATOM     36  C   LIG A   1      -7.295  -3.839 124.318  0.00  0.00    -0.005 C 
ATOM     37  C   LIG A   1      -6.066  -3.338 124.162  0.00  0.00    +0.008 C 
ENDBRANCH  34  36
ENDBRANCH  32  33
ENDBRANCH  14  32
BRANCH   3  38
ATOM     38  O   LIG A   1      -4.514   1.323 129.090  0.00  0.00    -0.457 OA
BRANCH  38  39
ATOM     39  C   LIG A   1      -4.108   2.266 129.973  0.00  0.00    +0.307 C 
ATOM     40  O   LIG A   1      -4.046   2.146 131.125  0.00  0.00    -0.251 OA
BRANCH  39  41
ATOM     41  C   LIG A   1      -3.948   3.610 129.277  0.00  0.00    +0.120 C 
BRANCH  41  42
ATOM     42  C   LIG A   1      -3.692   3.235 127.826  0.00  0.00    +0.008 C 
ATOM     43  C   LIG A   1      -2.292   3.500 127.324  0.00  0.00    +0.004 C 
ENDBRANCH  41  42
ENDBRANCH  39  41
ENDBRANCH  38  39
ENDBRANCH   3  38
TORSDOF 16
ENDMDL
MODEL 4
REMARK VINA RESULT:      -7.1      2.234      4.715
REMARK  Name = NuBBE_231
REMARK  24 active torsions:
REMARK  status: ('A' for Active; 'I' for Inactive)
REMARK    1  A    between atoms: C_1  and  C_2
REMARK    2  A    between atoms: C_4  and  O_6
REMARK    3  A    between atoms: O_6  and  C_7
REMARK    4  A    between atoms: C_7  and  C_8
REMARK    5  A    between atoms: C_8  and  C_9
REMARK    6  A    between atoms: C_9  and  C_10
REMARK    7  A    between atoms: C_12  and  O_14
REMARK    8  A    between atoms: O_14  and  C_15
REMARK    9  A    between atoms: C_15  and  C_16
REMARK   10  A    between atoms: C_20  and  O_22
REMARK   11  A    between atoms: O_22  and  C_23
REMARK   12  A    between atoms: C_23  and  C_24
REMARK   13  A    between atoms: C_27  and  O_29
REMARK   14  A    between atoms: O_29  and  C_30
REMARK   15  A    between atoms: C_30  and  C_31
REMARK   16  A    between atoms: C_31  and  C_32
REMARK   17  A    between atoms: C_32  and  C_33
REMARK   18  A    between atoms: C_36  and  O_38
REMARK   19  A    between atoms: O_38  and  C_39
REMARK   20  A    between atoms: C_43  and  C_44
REMARK   21  A    between atoms: C_43  and  C_45
REMARK   22  A    between atoms: C_45  and  C_46
REMARK   23  A    between atoms: C_47  and  C_48
REMARK   24  A    between atoms: C_47  and  C_50
REMARK                            x       y       z     vdW  Elec       q    Type
REMARK                         _______ _______ _______ _____ _____    ______ ____
ROOT
ATOM      1  C   LIG A   1      -6.187   4.313 130.913  0.00  0.00    +0.012 C 
ATOM      2  C   LIG A   1      -6.306   3.101 129.965  0.00  0.00    +0.037 C 
ATOM      3  C   LIG A   1      -6.408   3.545 128.499  0.00  0.00    +0.221 C 
ATOM      4  C   LIG A   1      -7.659   2.953 127.878  0.00  0.00    +0.234 C 
ATOM      5  C   LIG A   1      -7.726   1.396 127.599  0.00  0.00    +0.104 C 
ATOM      6  C   LIG A   1      -6.731   0.349 126.926  0.00  0.00    +0.013 C 
ATOM      7  C   LIG A   1      -7.251  -0.116 125.570  0.00  0.00    +0.343 C 
ATOM      8  O   LIG A   1      -8.639  -0.112 125.827  0.00  0.00    -0.297 OA
ATOM      9  C   LIG A   1      -8.942   1.103 126.520  0.00  0.00    +0.328 C 
ATOM     10  C   LIG A   1      -5.933  -0.542 127.554  0.00  0.00    +0.010 C 
ATOM     11  C   LIG A   1      -6.250  -0.987 128.934  0.00  0.00    +0.141 C 
ATOM     12  C   LIG A   1      -7.659  -0.532 129.291  0.00  0.00    +0.041 C 
ATOM     13  C   LIG A   1      -7.880   0.933 129.129  0.00  0.00    +0.018 C 
ATOM     14  C   LIG A   1      -7.129   1.749 130.408  0.00  0.00    -0.018 C 
ATOM     15  C   LIG A   1      -5.979   1.103 131.194  0.00  0.00    +0.012 C 
ENDROOT
BRANCH  11  16
ATOM     16  O   LIG A   1      -6.115  -2.399 129.124  0.00  0.00    -0.376 OA
ATOM     17  C   LIG A   1      -7.324  -3.115 129.265  0.00  0.00    +0.194 C 
ENDBRANCH  11  16
BRANCH   7  18
ATOM     18  O   LIG A   1      -6.760  -1.430 125.217  0.00  0.00    -0.431 OA
BRANCH  18  19
ATOM     19  C   LIG A   1      -7.104  -1.989 124.028  0.00  0.00    +0.306 C 
ATOM     20  C   LIG A   1      -6.590  -1.148 122.894  0.00  0.00    +0.136 C 
ATOM     21  O   LIG A   1      -7.693  -3.042 123.835  0.00  0.00    -0.251 OA
ENDBRANCH  18  19
ENDBRANCH   7  18
BRANCH   9  22
ATOM     22  O   LIG A   1      -9.327   2.004 125.417  0.00  0.00    -0.434 OA
BRANCH  22  23
ATOM     23  C   LIG A   1      -9.979   1.603 124.304  0.00  0.00    +0.309 C 
ATOM     24  O   LIG A   1     -11.119   1.158 124.327  0.00  0.00    -0.251 OA
BRANCH  23  25
ATOM     25  C   LIG A   1      -9.234   1.636 122.977  0.00  0.00    +0.120 C 
BRANCH  25  26
ATOM     26  C   LIG A   1      -8.399   2.943 122.929  0.00  0.00    +0.008 C 
ATOM     27  C   LIG A   1      -6.926   2.589 122.924  0.00  0.00    +0.004 C 
ENDBRANCH  25  26
ENDBRANCH  23  25
ENDBRANCH  22  23
ENDBRANCH   9  22
BRANCH   4  28
ATOM     28  O   LIG A   1      -8.766   3.277 128.982  0.00  0.00    -0.457 OA
BRANCH  28  29
ATOM     29  C   LIG A   1      -9.460   4.404 129.316  0.00  0.00    +0.304 C 
ATOM     30  C   LIG A   1     -10.616   4.188 130.317  0.00  0.00    +0.136 C 
ATOM     31  O   LIG A   1      -9.253   5.502 128.812  0.00  0.00    -0.251 OA
ENDBRANCH  28  29
ENDBRANCH   4  28
BRANCH  14  32
ATOM     32  C   LIG A   1      -8.251   1.778 131.573  0.00  0.00    +0.034 C 
BRANCH  32  33
ATOM     33  C   LIG A   1      -8.438   2.770 132.749  0.00  0.00    -0.023 C 
ATOM     34  C   LIG A   1      -7.761   3.201 133.841  0.00  0.00    -0.055 C 
ATOM     35  C   LIG A   1      -8.256   4.363 134.677  0.00  0.00    +0.043 C 
BRANCH  34  36
ATOM     36  C   LIG A   1      -6.503   2.749 134.416  0.00  0.00    -0.005 C 
ATOM     37  C   LIG A   1      -5.361   3.443 134.383  0.00  0.00    +0.008 C 
ENDBRANCH  34  36
ENDBRANCH  32  33
ENDBRANCH  14  32
BRANCH   3  38
ATOM     38  O   LIG A   1      -5.062   3.566 127.938  0.00  0.00    -0.457 OA
BRANCH  38  39
ATOM     39  C   LIG A   1      -4.338   4.667 127.626  0.00  0.00    +0.307 C 
ATOM     40  O   LIG A   1      -4.702   5.571 126.997  0.00  0.00    -0.251 OA
BRANCH  39  41
ATOM     41  C   LIG A   1      -2.882   4.475 128.023  0.00  0.00    +0.120 C 
BRANCH  41  42
ATOM     42  C   LIG A   1      -2.559   3.071 127.535  0.00  0.00    +0.008 C 
ATOM     43  C   LIG A   1      -1.601   2.994 126.369  0.00  0.00    +0.004 C 
ENDBRANCH  41  42
ENDBRANCH  39  41
ENDBRANCH  38  39
ENDBRANCH   3  38
TORSDOF 16
ENDMDL
MODEL 5
REMARK VINA RESULT:      -7.1      2.274      6.945
REMARK  Name = NuBBE_231
REMARK  24 active torsions:
REMARK  status: ('A' for Active; 'I' for Inactive)
REMARK    1  A    between atoms: C_1  and  C_2
REMARK    2  A    between atoms: C_4  and  O_6
REMARK    3  A    between atoms: O_6  and  C_7
REMARK    4  A    between atoms: C_7  and  C_8
REMARK    5  A    between atoms: C_8  and  C_9
REMARK    6  A    between atoms: C_9  and  C_10
REMARK    7  A    between atoms: C_12  and  O_14
REMARK    8  A    between atoms: O_14  and  C_15
REMARK    9  A    between atoms: C_15  and  C_16
REMARK   10  A    between atoms: C_20  and  O_22
REMARK   11  A    between atoms: O_22  and  C_23
REMARK   12  A    between atoms: C_23  and  C_24
REMARK   13  A    between atoms: C_27  and  O_29
REMARK   14  A    between atoms: O_29  and  C_30
REMARK   15  A    between atoms: C_30  and  C_31
REMARK   16  A    between atoms: C_31  and  C_32
REMARK   17  A    between atoms: C_32  and  C_33
REMARK   18  A    between atoms: C_36  and  O_38
REMARK   19  A    between atoms: O_38  and  C_39
REMARK   20  A    between atoms: C_43  and  C_44
REMARK   21  A    between atoms: C_43  and  C_45
REMARK   22  A    between atoms: C_45  and  C_46
REMARK   23  A    between atoms: C_47  and  C_48
REMARK   24  A    between atoms: C_47  and  C_50
REMARK                            x       y       z     vdW  Elec       q    Type
REMARK                         _______ _______ _______ _____ _____    ______ ____
ROOT
ATOM      1  C   LIG A   1     -11.117   3.529 130.342  0.00  0.00    +0.012 C 
ATOM      2  C   LIG A   1      -9.794   3.966 131.004  0.00  0.00    +0.037 C 
ATOM      3  C   LIG A   1      -9.214   5.215 130.326  0.00  0.00    +0.221 C 
ATOM      4  C   LIG A   1      -7.795   4.931 129.873  0.00  0.00    +0.234 C 
ATOM      5  C   LIG A   1      -6.651   4.768 130.957  0.00  0.00    +0.104 C 
ATOM      6  C   LIG A   1      -6.220   5.603 132.243  0.00  0.00    +0.013 C 
ATOM      7  C   LIG A   1      -4.902   6.335 132.012  0.00  0.00    +0.343 C 
ATOM      8  O   LIG A   1      -4.243   5.396 131.190  0.00  0.00    -0.297 OA
ATOM      9  C   LIG A   1      -5.187   4.946 130.213  0.00  0.00    +0.328 C 
ATOM     10  C   LIG A   1      -6.473   5.305 133.536  0.00  0.00    +0.010 C 
ATOM     11  C   LIG A   1      -6.765   3.906 133.937  0.00  0.00    +0.141 C 
ATOM     12  C   LIG A   1      -6.424   2.976 132.780  0.00  0.00    +0.041 C 
ATOM     13  C   LIG A   1      -7.106   3.328 131.502  0.00  0.00    +0.018 C 
ATOM     14  C   LIG A   1      -8.731   2.861 131.597  0.00  0.00    -0.018 C 
ATOM     15  C   LIG A   1      -9.423   2.673 132.955  0.00  0.00    +0.012 C 
ENDROOT
BRANCH  11  16
ATOM     16  O   LIG A   1      -6.081   3.498 135.126  0.00  0.00    -0.376 OA
ATOM     17  C   LIG A   1      -4.672   3.592 135.084  0.00  0.00    +0.194 C 
ENDBRANCH  11  16
BRANCH   7  18
ATOM     18  O   LIG A   1      -4.189   6.581 133.246  0.00  0.00    -0.431 OA
BRANCH  18  19
ATOM     19  C   LIG A   1      -2.851   6.809 133.226  0.00  0.00    +0.306 C 
ATOM     20  C   LIG A   1      -2.566   8.169 132.654  0.00  0.00    +0.136 C 
ATOM     21  O   LIG A   1      -1.959   6.087 133.644  0.00  0.00    -0.251 OA
ENDBRANCH  18  19
ENDBRANCH   7  18
BRANCH   9  22
ATOM     22  O   LIG A   1      -4.921   5.853 129.080  0.00  0.00    -0.434 OA
BRANCH  22  23
ATOM     23  C   LIG A   1      -4.367   5.464 127.911  0.00  0.00    +0.309 C 
ATOM     24  O   LIG A   1      -5.003   5.386 126.869  0.00  0.00    -0.251 OA
BRANCH  23  25
ATOM     25  C   LIG A   1      -2.908   5.028 127.911  0.00  0.00    +0.120 C 
BRANCH  25  26
ATOM     26  C   LIG A   1      -2.868   3.490 127.701  0.00  0.00    +0.008 C 
ATOM     27  C   LIG A   1      -1.777   3.155 126.706  0.00  0.00    +0.004 C 
ENDBRANCH  25  26
ENDBRANCH  23  25
ENDBRANCH  22  23
ENDBRANCH   9  22
BRANCH   4  28
ATOM     28  O   LIG A   1      -7.951   3.519 129.146  0.00  0.00    -0.457 OA
BRANCH  28  29
ATOM     29  C   LIG A   1      -7.659   3.069 127.890  0.00  0.00    +0.304 C 
ATOM     30  C   LIG A   1      -6.424   2.148 127.794  0.00  0.00    +0.136 C 
ATOM     31  O   LIG A   1      -8.267   3.423 126.886  0.00  0.00    -0.251 OA
ENDBRANCH  28  29
ENDBRANCH   4  28
BRANCH  14  32
ATOM     32  C   LIG A   1      -8.732   1.324 131.095  0.00  0.00    +0.034 C 
BRANCH  32  33
ATOM     33  C   LIG A   1      -8.498   0.016 131.895  0.00  0.00    -0.023 C 
ATOM     34  C   LIG A   1      -7.466  -0.756 132.313  0.00  0.00    -0.055 C 
ATOM     35  C   LIG A   1      -7.676  -1.918 133.261  0.00  0.00    +0.043 C 
BRANCH  34  36
ATOM     36  C   LIG A   1      -6.041  -0.666 132.035  0.00  0.00    -0.005 C 
ATOM     37  C   LIG A   1      -5.309  -1.646 131.497  0.00  0.00    +0.008 C 
ENDBRANCH  34  36
ENDBRANCH  32  33
ENDBRANCH  14  32
BRANCH   3  38
ATOM     38  O   LIG A   1      -9.700   6.387 131.046  0.00  0.00    -0.457 OA
BRANCH  38  39
ATOM     39  C   LIG A   1     -10.979   6.829 131.090  0.00  0.00    +0.307 C 
ATOM     40  O   LIG A   1     -11.707   6.733 131.987  0.00  0.00    -0.251 OA
BRANCH  39  41
ATOM     41  C   LIG A   1     -11.430   7.286 129.710  0.00  0.00    +0.120 C 
BRANCH  41  42
ATOM     42  C   LIG A   1     -12.900   6.902 129.667  0.00  0.00    +0.008 C 
ATOM     43  C   LIG A   1     -13.558   7.002 128.310  0.00  0.00    +0.004 C 
ENDBRANCH  41  42
ENDBRANCH  39  41
ENDBRANCH  38  39
ENDBRANCH   3  38
TORSDOF 16
ENDMDL
MODEL 6
REMARK VINA RESULT:      -7.1      2.343      7.072
REMARK  Name = NuBBE_231
REMARK  24 active torsions:
REMARK  status: ('A' for Active; 'I' for Inactive)
REMARK    1  A    between atoms: C_1  and  C_2
REMARK    2  A    between atoms: C_4  and  O_6
REMARK    3  A    between atoms: O_6  and  C_7
REMARK    4  A    between atoms: C_7  and  C_8
REMARK    5  A    between atoms: C_8  and  C_9
REMARK    6  A    between atoms: C_9  and  C_10
REMARK    7  A    between atoms: C_12  and  O_14
REMARK    8  A    between atoms: O_14  and  C_15
REMARK    9  A    between atoms: C_15  and  C_16
REMARK   10  A    between atoms: C_20  and  O_22
REMARK   11  A    between atoms: O_22  and  C_23
REMARK   12  A    between atoms: C_23  and  C_24
REMARK   13  A    between atoms: C_27  and  O_29
REMARK   14  A    between atoms: O_29  and  C_30
REMARK   15  A    between atoms: C_30  and  C_31
REMARK   16  A    between atoms: C_31  and  C_32
REMARK   17  A    between atoms: C_32  and  C_33
REMARK   18  A    between atoms: C_36  and  O_38
REMARK   19  A    between atoms: O_38  and  C_39
REMARK   20  A    between atoms: C_43  and  C_44
REMARK   21  A    between atoms: C_43  and  C_45
REMARK   22  A    between atoms: C_45  and  C_46
REMARK   23  A    between atoms: C_47  and  C_48
REMARK   24  A    between atoms: C_47  and  C_50
REMARK                            x       y       z     vdW  Elec       q    Type
REMARK                         _______ _______ _______ _____ _____    ______ ____
ROOT
ATOM      1  C   LIG A   1      -6.630   4.486 129.780  0.00  0.00    +0.012 C 
ATOM      2  C   LIG A   1      -7.057   3.474 128.696  0.00  0.00    +0.037 C 
ATOM      3  C   LIG A   1      -7.846   2.305 129.300  0.00  0.00    +0.221 C 
ATOM      4  C   LIG A   1      -7.183   0.996 128.918  0.00  0.00    +0.234 C 
ATOM      5  C   LIG A   1      -7.250   0.500 127.416  0.00  0.00    +0.104 C 
ATOM      6  C   LIG A   1      -8.422   0.377 126.344  0.00  0.00    +0.013 C 
ATOM      7  C   LIG A   1      -8.784  -1.081 126.084  0.00  0.00    +0.343 C 
ATOM      8  O   LIG A   1      -7.511  -1.676 126.213  0.00  0.00    -0.297 OA
ATOM      9  C   LIG A   1      -6.891  -1.112 127.374  0.00  0.00    +0.328 C 
ATOM     10  C   LIG A   1      -8.675   1.208 125.309  0.00  0.00    +0.010 C 
ATOM     11  C   LIG A   1      -7.596   2.066 124.758  0.00  0.00    +0.141 C 
ATOM     12  C   LIG A   1      -6.259   1.608 125.324  0.00  0.00    +0.041 C 
ATOM     13  C   LIG A   1      -6.215   1.570 126.814  0.00  0.00    +0.018 C 
ATOM     14  C   LIG A   1      -6.094   3.152 127.403  0.00  0.00    -0.018 C 
ATOM     15  C   LIG A   1      -6.545   4.350 126.555  0.00  0.00    +0.012 C 
ENDROOT
BRANCH  11  16
ATOM     16  O   LIG A   1      -7.556   2.085 123.328  0.00  0.00    -0.376 OA
ATOM     17  C   LIG A   1      -8.295   3.117 122.708  0.00  0.00    +0.194 C 
ENDBRANCH  11  16
BRANCH   7  18
ATOM     18  O   LIG A   1      -9.353  -1.278 124.769  0.00  0.00    -0.431 OA
BRANCH  18  19
ATOM     19  C   LIG A   1      -8.667  -1.977 123.828  0.00  0.00    +0.306 C 
ATOM     20  C   LIG A   1      -9.308  -3.318 123.609  0.00  0.00    +0.136 C 
ATOM     21  O   LIG A   1      -7.699  -1.613 123.178  0.00  0.00    -0.251 OA
ENDBRANCH  18  19
ENDBRANCH   7  18
BRANCH   9  22
ATOM     22  O   LIG A   1      -7.252  -2.084 128.423  0.00  0.00    -0.434 OA
BRANCH  22  23
ATOM     23  C   LIG A   1      -6.355  -2.830 129.105  0.00  0.00    +0.309 C 
ATOM     24  O   LIG A   1      -5.171  -2.885 128.803  0.00  0.00    -0.251 OA
BRANCH  23  25
ATOM     25  C   LIG A   1      -6.858  -3.700 130.250  0.00  0.00    +0.120 C 
BRANCH  25  26
ATOM     26  C   LIG A   1      -5.737  -4.711 130.610  0.00  0.00    +0.008 C 
ATOM     27  C   LIG A   1      -5.542  -4.720 132.111  0.00  0.00    +0.004 C 
ENDBRANCH  25  26
ENDBRANCH  23  25
ENDBRANCH  22  23
ENDBRANCH   9  22
BRANCH   4  28
ATOM     28  O   LIG A   1      -5.648   1.291 129.243  0.00  0.00    -0.457 OA
BRANCH  28  29
ATOM     29  C   LIG A   1      -4.799   0.880 130.230  0.00  0.00    +0.304 C 
ATOM     30  C   LIG A   1      -4.877   1.693 131.541  0.00  0.00    +0.136 C 
ATOM     31  O   LIG A   1      -3.970  -0.011 130.083  0.00  0.00    -0.251 OA
ENDBRANCH  28  29
ENDBRANCH   4  28
BRANCH  14  32
ATOM     32  C   LIG A   1      -4.504   3.444 127.432  0.00  0.00    +0.034 C 
BRANCH  32  33
ATOM     33  C   LIG A   1      -3.741   4.792 127.492  0.00  0.00    -0.023 C 
ATOM     34  C   LIG A   1      -3.229   5.637 128.420  0.00  0.00    -0.055 C 
ATOM     35  C   LIG A   1      -2.370   6.821 128.029  0.00  0.00    +0.043 C 
BRANCH  34  36
ATOM     36  C   LIG A   1      -3.318   5.617 129.871  0.00  0.00    -0.005 C 
ATOM     37  C   LIG A   1      -2.905   4.606 130.643  0.00  0.00    +0.008 C 
ENDBRANCH  34  36
ENDBRANCH  32  33
ENDBRANCH  14  32
BRANCH   3  38
ATOM     38  O   LIG A   1      -9.266   2.635 129.232  0.00  0.00    -0.457 OA
BRANCH  38  39
ATOM     39  C   LIG A   1     -10.018   3.156 130.230  0.00  0.00    +0.307 C 
ATOM     40  O   LIG A   1     -10.574   4.174 130.211  0.00  0.00    -0.251 OA
BRANCH  39  41
ATOM     41  C   LIG A   1      -9.867   2.326 131.497  0.00  0.00    +0.120 C 
BRANCH  41  42
ATOM     42  C   LIG A   1      -9.287   3.308 132.503  0.00  0.00    +0.008 C 
ATOM     43  C   LIG A   1      -8.170   2.769 133.366  0.00  0.00    +0.004 C 
ENDBRANCH  41  42
ENDBRANCH  39  41
ENDBRANCH  38  39
ENDBRANCH   3  38
TORSDOF 16
ENDMDL
MODEL 7
REMARK VINA RESULT:      -7.0      2.126      6.620
REMARK  Name = NuBBE_231
REMARK  24 active torsions:
REMARK  status: ('A' for Active; 'I' for Inactive)
REMARK    1  A    between atoms: C_1  and  C_2
REMARK    2  A    between atoms: C_4  and  O_6
REMARK    3  A    between atoms: O_6  and  C_7
REMARK    4  A    between atoms: C_7  and  C_8
REMARK    5  A    between atoms: C_8  and  C_9
REMARK    6  A    between atoms: C_9  and  C_10
REMARK    7  A    between atoms: C_12  and  O_14
REMARK    8  A    between atoms: O_14  and  C_15
REMARK    9  A    between atoms: C_15  and  C_16
REMARK   10  A    between atoms: C_20  and  O_22
REMARK   11  A    between atoms: O_22  and  C_23
REMARK   12  A    between atoms: C_23  and  C_24
REMARK   13  A    between atoms: C_27  and  O_29
REMARK   14  A    between atoms: O_29  and  C_30
REMARK   15  A    between atoms: C_30  and  C_31
REMARK   16  A    between atoms: C_31  and  C_32
REMARK   17  A    between atoms: C_32  and  C_33
REMARK   18  A    between atoms: C_36  and  O_38
REMARK   19  A    between atoms: O_38  and  C_39
REMARK   20  A    between atoms: C_43  and  C_44
REMARK   21  A    between atoms: C_43  and  C_45
REMARK   22  A    between atoms: C_45  and  C_46
REMARK   23  A    between atoms: C_47  and  C_48
REMARK   24  A    between atoms: C_47  and  C_50
REMARK                            x       y       z     vdW  Elec       q    Type
REMARK                         _______ _______ _______ _____ _____    ______ ____
ROOT
ATOM      1  C   LIG A   1      -9.123   1.276 125.903  0.00  0.00    +0.012 C 
ATOM      2  C   LIG A   1      -8.280   1.085 127.181  0.00  0.00    +0.037 C 
ATOM      3  C   LIG A   1      -8.313   2.339 128.066  0.00  0.00    +0.221 C 
ATOM      4  C   LIG A   1      -6.896   2.804 128.339  0.00  0.00    +0.234 C 
ATOM      5  C   LIG A   1      -5.963   1.941 129.284  0.00  0.00    +0.104 C 
ATOM      6  C   LIG A   1      -6.160   1.263 130.711  0.00  0.00    +0.013 C 
ATOM      7  C   LIG A   1      -5.358   1.989 131.786  0.00  0.00    +0.343 C 
ATOM      8  O   LIG A   1      -4.227   2.367 131.031  0.00  0.00    -0.297 OA
ATOM      9  C   LIG A   1      -4.699   2.881 129.781  0.00  0.00    +0.328 C 
ATOM     10  C   LIG A   1      -6.389  -0.043 130.973  0.00  0.00    +0.010 C 
ATOM     11  C   LIG A   1      -5.999  -1.082 129.987  0.00  0.00    +0.141 C 
ATOM     12  C   LIG A   1      -5.105  -0.452 128.927  0.00  0.00    +0.041 C 
ATOM     13  C   LIG A   1      -5.711   0.733 128.255  0.00  0.00    +0.018 C 
ATOM     14  C   LIG A   1      -6.891   0.205 127.163  0.00  0.00    -0.018 C 
ATOM     15  C   LIG A   1      -7.561  -1.167 127.322  0.00  0.00    +0.012 C 
ENDROOT
BRANCH  11  16
ATOM     16  O   LIG A   1      -5.354  -2.215 130.577  0.00  0.00    -0.376 OA
ATOM     17  C   LIG A   1      -4.123  -1.953 131.219  0.00  0.00    +0.194 C 
ENDBRANCH  11  16
BRANCH   7  18
ATOM     18  O   LIG A   1      -5.016   1.123 132.893  0.00  0.00    -0.431 OA
BRANCH  18  19
ATOM     19  C   LIG A   1      -5.681   1.229 134.072  0.00  0.00    +0.306 C 
ATOM     20  C   LIG A   1      -5.319   2.517 134.755  0.00  0.00    +0.136 C 
ATOM     21  O   LIG A   1      -6.506   0.460 134.542  0.00  0.00    -0.251 OA
ENDBRANCH  18  19
ENDBRANCH   7  18
BRANCH   9  22
ATOM     22  O   LIG A   1      -4.779   4.329 130.050  0.00  0.00    -0.434 OA
BRANCH  22  23
ATOM     23  C   LIG A   1      -4.113   5.269 129.343  0.00  0.00    +0.309 C 
ATOM     24  O   LIG A   1      -4.618   6.334 129.014  0.00  0.00    -0.251 OA
BRANCH  23  25
ATOM     25  C   LIG A   1      -2.701   4.954 128.871  0.00  0.00    +0.120 C 
BRANCH  25  26
ATOM     26  C   LIG A   1      -2.769   4.606 127.359  0.00  0.00    +0.008 C 
ATOM     27  C   LIG A   1      -2.108   3.262 127.131  0.00  0.00    +0.004 C 
ENDBRANCH  25  26
ENDBRANCH  23  25
ENDBRANCH  22  23
ENDBRANCH   9  22
BRANCH   4  28
ATOM     28  O   LIG A   1      -6.245   2.765 126.881  0.00  0.00    -0.457 OA
BRANCH  28  29
ATOM     29  C   LIG A   1      -6.065   3.703 125.906  0.00  0.00    +0.304 C 
ATOM     30  C   LIG A   1      -5.891   3.139 124.479  0.00  0.00    +0.136 C 
ATOM     31  O   LIG A   1      -5.963   4.904 126.131  0.00  0.00    -0.251 OA
ENDBRANCH  28  29
ENDBRANCH   4  28
BRANCH  14  32
ATOM     32  C   LIG A   1      -6.073  -0.066 125.795  0.00  0.00    +0.034 C 
BRANCH  32  33
ATOM     33  C   LIG A   1      -5.493  -1.388 125.229  0.00  0.00    -0.023 C 
ATOM     34  C   LIG A   1      -5.894  -2.439 124.473  0.00  0.00    -0.055 C 
ATOM     35  C   LIG A   1      -4.915  -3.489 123.990  0.00  0.00    +0.043 C 
BRANCH  34  36
ATOM     36  C   LIG A   1      -7.205  -2.783 123.946  0.00  0.00    -0.005 C 
ATOM     37  C   LIG A   1      -8.019  -3.701 124.475  0.00  0.00    +0.008 C 
ENDBRANCH  34  36
ENDBRANCH  32  33
ENDBRANCH  14  32
BRANCH   3  38
ATOM     38  O   LIG A   1      -9.398   2.182 129.030  0.00  0.00    -0.457 OA
BRANCH  38  39
ATOM     39  C   LIG A   1      -9.756   3.071 129.987  0.00  0.00    +0.307 C 
ATOM     40  O   LIG A   1      -9.993   4.195 129.826  0.00  0.00    -0.251 OA
BRANCH  39  41
ATOM     41  C   LIG A   1      -9.595   2.454 131.369  0.00  0.00    +0.120 C 
BRANCH  41  42
ATOM     42  C   LIG A   1      -8.856   3.526 132.156  0.00  0.00    +0.008 C 
ATOM     43  C   LIG A   1      -8.802   3.311 133.651  0.00  0.00    +0.004 C 
ENDBRANCH  41  42
ENDBRANCH  39  41
ENDBRANCH  38  39
ENDBRANCH   3  38
TORSDOF 16
ENDMDL
MODEL 8
REMARK VINA RESULT:      -7.0      2.585      6.380
REMARK  Name = NuBBE_231
REMARK  24 active torsions:
REMARK  status: ('A' for Active; 'I' for Inactive)
REMARK    1  A    between atoms: C_1  and  C_2
REMARK    2  A    between atoms: C_4  and  O_6
REMARK    3  A    between atoms: O_6  and  C_7
REMARK    4  A    between atoms: C_7  and  C_8
REMARK    5  A    between atoms: C_8  and  C_9
REMARK    6  A    between atoms: C_9  and  C_10
REMARK    7  A    between atoms: C_12  and  O_14
REMARK    8  A    between atoms: O_14  and  C_15
REMARK    9  A    between atoms: C_15  and  C_16
REMARK   10  A    between atoms: C_20  and  O_22
REMARK   11  A    between atoms: O_22  and  C_23
REMARK   12  A    between atoms: C_23  and  C_24
REMARK   13  A    between atoms: C_27  and  O_29
REMARK   14  A    between atoms: O_29  and  C_30
REMARK   15  A    between atoms: C_30  and  C_31
REMARK   16  A    between atoms: C_31  and  C_32
REMARK   17  A    between atoms: C_32  and  C_33
REMARK   18  A    between atoms: C_36  and  O_38
REMARK   19  A    between atoms: O_38  and  C_39
REMARK   20  A    between atoms: C_43  and  C_44
REMARK   21  A    between atoms: C_43  and  C_45
REMARK   22  A    between atoms: C_45  and  C_46
REMARK   23  A    between atoms: C_47  and  C_48
REMARK   24  A    between atoms: C_47  and  C_50
REMARK                            x       y       z     vdW  Elec       q    Type
REMARK                         _______ _______ _______ _____ _____    ______ ____
ROOT
ATOM      1  C   LIG A   1      -5.967   2.769 134.667  0.00  0.00    +0.012 C 
ATOM      2  C   LIG A   1      -6.633   2.850 133.278  0.00  0.00    +0.037 C 
ATOM      3  C   LIG A   1      -5.700   2.323 132.178  0.00  0.00    +0.221 C 
ATOM      4  C   LIG A   1      -5.526   3.385 131.110  0.00  0.00    +0.234 C 
ATOM      5  C   LIG A   1      -6.742   3.739 130.160  0.00  0.00    +0.104 C 
ATOM      6  C   LIG A   1      -7.777   2.868 129.318  0.00  0.00    +0.013 C 
ATOM      7  C   LIG A   1      -7.509   2.983 127.821  0.00  0.00    +0.343 C 
ATOM      8  O   LIG A   1      -7.078   4.326 127.754  0.00  0.00    -0.297 OA
ATOM      9  C   LIG A   1      -6.164   4.537 128.834  0.00  0.00    +0.328 C 
ATOM     10  C   LIG A   1      -9.060   2.588 129.635  0.00  0.00    +0.010 C 
ATOM     11  C   LIG A   1      -9.807   3.464 130.571  0.00  0.00    +0.141 C 
ATOM     12  C   LIG A   1      -9.017   4.749 130.787  0.00  0.00    +0.041 C 
ATOM     13  C   LIG A   1      -7.618   4.525 131.252  0.00  0.00    +0.018 C 
ATOM     14  C   LIG A   1      -7.644   4.087 132.887  0.00  0.00    -0.018 C 
ATOM     15  C   LIG A   1      -8.902   3.482 133.526  0.00  0.00    +0.012 C 
ENDROOT
BRANCH  11  16
ATOM     16  O   LIG A   1     -11.137   3.762 130.136  0.00  0.00    -0.376 OA
ATOM     17  C   LIG A   1     -11.539   5.109 130.273  0.00  0.00    +0.194 C 
ENDBRANCH  11  16
BRANCH   7  18
ATOM     18  O   LIG A   1      -8.698   2.746 127.032  0.00  0.00    -0.431 OA
BRANCH  18  19
ATOM     19  C   LIG A   1      -8.618   2.042 125.874  0.00  0.00    +0.306 C 
ATOM     20  C   LIG A   1      -9.424   0.778 125.980  0.00  0.00    +0.136 C 
ATOM     21  O   LIG A   1      -8.041   2.354 124.843  0.00  0.00    -0.251 OA
ENDBRANCH  18  19
ENDBRANCH   7  18
BRANCH   9  22
ATOM     22  O   LIG A   1      -4.860   4.276 128.195  0.00  0.00    -0.434 OA
BRANCH  22  23
ATOM     23  C   LIG A   1      -3.958   5.236 127.895  0.00  0.00    +0.309 C 
ATOM     24  O   LIG A   1      -4.274   6.395 127.663  0.00  0.00    -0.251 OA
BRANCH  23  25
ATOM     25  C   LIG A   1      -2.494   4.839 127.764  0.00  0.00    +0.120 C 
BRANCH  25  26
ATOM     26  C   LIG A   1      -2.431   3.299 127.576  0.00  0.00    +0.008 C 
ATOM     27  C   LIG A   1      -1.526   2.980 126.405  0.00  0.00    +0.004 C 
ENDBRANCH  25  26
ENDBRANCH  23  25
ENDBRANCH  22  23
ENDBRANCH   9  22
BRANCH   4  28
ATOM     28  O   LIG A   1      -5.222   4.689 131.981  0.00  0.00    -0.457 OA
BRANCH  28  29
ATOM     29  C   LIG A   1      -4.123   5.486 132.130  0.00  0.00    +0.304 C 
ATOM     30  C   LIG A   1      -4.120   6.366 133.398  0.00  0.00    +0.136 C 
ATOM     31  O   LIG A   1      -3.233   5.575 131.292  0.00  0.00    -0.251 OA
ENDBRANCH  28  29
ENDBRANCH   4  28
BRANCH  14  32
ATOM     32  C   LIG A   1      -7.609   5.498 133.676  0.00  0.00    +0.034 C 
BRANCH  32  33
ATOM     33  C   LIG A   1      -7.983   5.825 135.145  0.00  0.00    -0.023 C 
ATOM     34  C   LIG A   1      -7.371   6.010 136.339  0.00  0.00    -0.055 C 
ATOM     35  C   LIG A   1      -8.130   6.505 137.553  0.00  0.00    +0.043 C 
BRANCH  34  36
ATOM     36  C   LIG A   1      -5.978   5.848 136.726  0.00  0.00    -0.005 C 
ATOM     37  C   LIG A   1      -5.546   5.011 137.675  0.00  0.00    +0.008 C 
ENDBRANCH  34  36
ENDBRANCH  32  33
ENDBRANCH  14  32
BRANCH   3  38
ATOM     38  O   LIG A   1      -5.988   0.906 131.983  0.00  0.00    -0.457 OA
BRANCH  38  39
ATOM     39  C   LIG A   1      -5.259   0.032 131.249  0.00  0.00    +0.307 C 
ATOM     40  O   LIG A   1      -4.238   0.246 130.742  0.00  0.00    -0.251 OA
BRANCH  39  41
ATOM     41  C   LIG A   1      -6.063  -1.231 130.978  0.00  0.00    +0.120 C 
BRANCH  41  42
ATOM     42  C   LIG A   1      -7.370  -0.709 130.402  0.00  0.00    +0.008 C 
ATOM     43  C   LIG A   1      -7.490  -0.779 128.897  0.00  0.00    +0.004 C 
ENDBRANCH  41  42
ENDBRANCH  39  41
ENDBRANCH  38  39
ENDBRANCH   3  38
TORSDOF 16
ENDMDL
MODEL 9
REMARK VINA RESULT:      -7.0      2.200      6.403
REMARK  Name = NuBBE_231
REMARK  24 active torsions:
REMARK  status: ('A' for Active; 'I' for Inactive)
REMARK    1  A    between atoms: C_1  and  C_2
REMARK    2  A    between atoms: C_4  and  O_6
REMARK    3  A    between atoms: O_6  and  C_7
REMARK    4  A    between atoms: C_7  and  C_8
REMARK    5  A    between atoms: C_8  and  C_9
REMARK    6  A    between atoms: C_9  and  C_10
REMARK    7  A    between atoms: C_12  and  O_14
REMARK    8  A    between atoms: O_14  and  C_15
REMARK    9  A    between atoms: C_15  and  C_16
REMARK   10  A    between atoms: C_20  and  O_22
REMARK   11  A    between atoms: O_22  and  C_23
REMARK   12  A    between atoms: C_23  and  C_24
REMARK   13  A    between atoms: C_27  and  O_29
REMARK   14  A    between atoms: O_29  and  C_30
REMARK   15  A    between atoms: C_30  and  C_31
REMARK   16  A    between atoms: C_31  and  C_32
REMARK   17  A    between atoms: C_32  and  C_33
REMARK   18  A    between atoms: C_36  and  O_38
REMARK   19  A    between atoms: O_38  and  C_39
REMARK   20  A    between atoms: C_43  and  C_44
REMARK   21  A    between atoms: C_43  and  C_45
REMARK   22  A    between atoms: C_45  and  C_46
REMARK   23  A    between atoms: C_47  and  C_48
REMARK   24  A    between atoms: C_47  and  C_50
REMARK                            x       y       z     vdW  Elec       q    Type
REMARK                         _______ _______ _______ _____ _____    ______ ____
ROOT
ATOM      1  C   LIG A   1      -8.714   6.220 131.813  0.00  0.00    +0.012 C 
ATOM      2  C   LIG A   1      -7.951   5.679 130.586  0.00  0.00    +0.037 C 
ATOM      3  C   LIG A   1      -8.898   4.978 129.602  0.00  0.00    +0.221 C 
ATOM      4  C   LIG A   1      -8.405   3.567 129.345  0.00  0.00    +0.234 C 
ATOM      5  C   LIG A   1      -7.080   3.347 128.506  0.00  0.00    +0.104 C 
ATOM      6  C   LIG A   1      -6.531   3.936 127.131  0.00  0.00    +0.013 C 
ATOM      7  C   LIG A   1      -6.544   2.879 126.032  0.00  0.00    +0.343 C 
ATOM      8  O   LIG A   1      -6.240   1.731 126.794  0.00  0.00    -0.297 OA
ATOM      9  C   LIG A   1      -7.039   1.782 127.981  0.00  0.00    +0.328 C 
ATOM     10  C   LIG A   1      -5.600   4.901 126.967  0.00  0.00    +0.010 C 
ATOM     11  C   LIG A   1      -4.622   5.186 128.046  0.00  0.00    +0.141 C 
ATOM     12  C   LIG A   1      -4.687   4.073 129.084  0.00  0.00    +0.041 C 
ATOM     13  C   LIG A   1      -6.052   3.843 129.636  0.00  0.00    +0.018 C 
ATOM     14  C   LIG A   1      -6.424   5.085 130.724  0.00  0.00    -0.018 C 
ATOM     15  C   LIG A   1      -5.709   6.442 130.651  0.00  0.00    +0.012 C 
ENDROOT
BRANCH  11  16
ATOM     16  O   LIG A   1      -3.281   5.351 127.572  0.00  0.00    -0.376 OA
ATOM     17  C   LIG A   1      -2.447   6.167 128.369  0.00  0.00    +0.194 C 
ENDBRANCH  11  16
BRANCH   7  18
ATOM     18  O   LIG A   1      -5.553   3.140 125.011  0.00  0.00    -0.431 OA
BRANCH  18  19
ATOM     19  C   LIG A   1      -5.938   3.577 123.784  0.00  0.00    +0.306 C 
ATOM     20  C   LIG A   1      -7.297   3.035 123.444  0.00  0.00    +0.136 C 
ATOM     21  O   LIG A   1      -5.344   4.341 123.038  0.00  0.00    -0.251 OA
ENDBRANCH  18  19
ENDBRANCH   7  18
BRANCH   9  22
ATOM     22  O   LIG A   1      -8.223   0.990 127.594  0.00  0.00    -0.434 OA
BRANCH  22  23
ATOM     23  C   LIG A   1      -8.166  -0.265 127.098  0.00  0.00    +0.309 C 
ATOM     24  O   LIG A   1      -8.576  -0.558 125.983  0.00  0.00    -0.251 OA
BRANCH  23  25
ATOM     25  C   LIG A   1      -7.639  -1.375 127.997  0.00  0.00    +0.120 C 
BRANCH  25  26
ATOM     26  C   LIG A   1      -7.989  -2.735 127.333  0.00  0.00    +0.008 C 
ATOM     27  C   LIG A   1      -8.662  -3.626 128.356  0.00  0.00    +0.004 C 
ENDBRANCH  25  26
ENDBRANCH  23  25
ENDBRANCH  22  23
ENDBRANCH   9  22
BRANCH   4  28
ATOM     28  O   LIG A   1      -8.113   3.039 130.823  0.00  0.00    -0.457 OA
BRANCH  28  29
ATOM     29  C   LIG A   1      -8.763   2.180 131.661  0.00  0.00    +0.304 C 
ATOM     30  C   LIG A   1      -9.049   2.734 133.074  0.00  0.00    +0.136 C 
ATOM     31  O   LIG A   1      -9.037   1.023 131.365  0.00  0.00    -0.251 OA
ENDBRANCH  28  29
ENDBRANCH   4  28
BRANCH  14  32
ATOM     32  C   LIG A   1      -5.838   4.563 132.138  0.00  0.00    +0.034 C 
BRANCH  32  33
ATOM     33  C   LIG A   1      -5.415   5.364 133.396  0.00  0.00    -0.023 C 
ATOM     34  C   LIG A   1      -5.894   5.660 134.629  0.00  0.00    -0.055 C 
ATOM     35  C   LIG A   1      -5.046   6.371 135.661  0.00  0.00    +0.043 C 
BRANCH  34  36
ATOM     36  C   LIG A   1      -7.182   5.372 135.239  0.00  0.00    -0.005 C 
ATOM     37  C   LIG A   1      -7.679   6.011 136.303  0.00  0.00    +0.008 C 
ENDBRANCH  34  36
ENDBRANCH  32  33
ENDBRANCH  14  32
BRANCH   3  38
ATOM     38  O   LIG A   1      -9.333   5.961 128.616  0.00  0.00    -0.457 OA
BRANCH  38  39
ATOM     39  C   LIG A   1     -10.202   6.978 128.825  0.00  0.00    +0.307 C 
ATOM     40  O   LIG A   1      -9.951   8.110 128.804  0.00  0.00    -0.251 OA
BRANCH  39  41
ATOM     41  C   LIG A   1     -11.537   6.441 129.321  0.00  0.00    +0.120 C 
BRANCH  41  42
ATOM     42  C   LIG A   1     -12.205   7.657 129.944  0.00  0.00    +0.008 C 
ATOM     43  C   LIG A   1     -12.708   7.468 131.356  0.00  0.00    +0.004 C 
ENDBRANCH  41  42
ENDBRANCH  39  41
ENDBRANCH  38  39
ENDBRANCH   3  38
TORSDOF 16
ENDMDL
