MODEL 1
REMARK VINA RESULT:      -6.0      0.000      0.000
REMARK  Name = NuBBE_2423
REMARK  30 active torsions:
REMARK  status: ('A' for Active; 'I' for Inactive)
REMARK    1  A    between atoms: C_1  and  C_30
REMARK    2  A    between atoms: C_2  and  C_3
REMARK    3  A    between atoms: C_3  and  O_5
REMARK    4  A    between atoms: O_5  and  C_6
REMARK    5  A    between atoms: C_6  and  C_7
REMARK    6  A    between atoms: C_7  and  C_8
REMARK    7  A    between atoms: C_8  and  C_9
REMARK    8  A    between atoms: C_9  and  C_10
REMARK    9  A    between atoms: C_10  and  C_11
REMARK   10  A    between atoms: C_11  and  C_12
REMARK   11  A    between atoms: C_12  and  C_13
REMARK   12  A    between atoms: C_13  and  C_14
REMARK   13  A    between atoms: C_14  and  C_15
REMARK   14  A    between atoms: C_15  and  C_16
REMARK   15  A    between atoms: C_16  and  C_17
REMARK   16  A    between atoms: C_17  and  C_18
REMARK   17  A    between atoms: C_18  and  C_19
REMARK   18  A    between atoms: C_19  and  C_20
REMARK   19  A    between atoms: C_20  and  C_21
REMARK   20  A    between atoms: C_21  and  C_22
REMARK   21  A    between atoms: C_22  and  C_23
REMARK   22  A    between atoms: C_23  and  C_24
REMARK   23  A    between atoms: C_24  and  C_25
REMARK   24  A    between atoms: C_25  and  C_26
REMARK   25  A    between atoms: C_26  and  C_27
REMARK   26  A    between atoms: C_27  and  C_28
REMARK   27  A    between atoms: C_28  and  C_29
REMARK   28  A    between atoms: C_32  and  O_33
REMARK   29  A    between atoms: O_33  and  C_34
REMARK   30  A    between atoms: C_35  and  O_38
REMARK                            x       y       z     vdW  Elec       q    Type
REMARK                         _______ _______ _______ _____ _____    ______ ____
ROOT
ATOM      1  C   LIG A   1      -6.661   2.901 129.889  0.00  0.00    -0.000 C 
ENDROOT
BRANCH   1   2
ATOM      2  C   LIG A   1      -5.334   2.134 129.712  0.00  0.00    -0.000 C 
BRANCH   2   3
ATOM      3  C   LIG A   1      -4.126   2.873 129.117  0.00  0.00    -0.000 C 
BRANCH   3   4
ATOM      4  C   LIG A   1      -3.807   2.317 127.713  0.00  0.00    -0.000 C 
BRANCH   4   5
ATOM      5  C   LIG A   1      -4.823   2.756 126.655  0.00  0.00    -0.000 C 
BRANCH   5   6
ATOM      6  C   LIG A   1      -5.348   1.552 125.865  0.00  0.00    -0.000 C 
BRANCH   6   7
ATOM      7  C   LIG A   1      -5.048   0.224 126.565  0.00  0.00    -0.000 C 
BRANCH   7   8
ATOM      8  C   LIG A   1      -5.571  -0.991 125.783  0.00  0.00    -0.000 C 
BRANCH   8   9
ATOM      9  C   LIG A   1      -6.264  -0.627 124.459  0.00  0.00    -0.000 C 
BRANCH   9  10
ATOM     10  C   LIG A   1      -6.068  -1.708 123.387  0.00  0.00    -0.000 C 
BRANCH  10  11
ATOM     11  C   LIG A   1      -7.383  -2.421 123.018  0.00  0.00    -0.000 C 
BRANCH  11  12
ATOM     12  C   LIG A   1      -7.837  -3.379 124.131  0.00  0.00    -0.000 C 
BRANCH  12  13
ATOM     13  C   LIG A   1      -9.296  -3.171 124.580  0.00  0.00    -0.000 C 
BRANCH  13  14
ATOM     14  C   LIG A   1      -9.355  -2.731 126.054  0.00  0.00    -0.000 C 
BRANCH  14  15
ATOM     15  C   LIG A   1      -8.377  -3.494 126.956  0.00  0.00    -0.000 C 
BRANCH  15  16
ATOM     16  C   LIG A   1      -8.949  -3.689 128.370  0.00  0.00    -0.000 C 
BRANCH  16  17
ATOM     17  C   LIG A   1      -8.025  -3.182 129.488  0.00  0.00    -0.000 C 
BRANCH  17  18
ATOM     18  C   LIG A   1      -6.843  -2.377 128.944  0.00  0.00    -0.000 C 
BRANCH  18  19
ATOM     19  C   LIG A   1      -5.501  -3.060 129.194  0.00  0.00    -0.003 C 
ATOM     20  C   LIG A   1      -5.628  -4.100 130.297  0.00  0.00    +0.004 C 
ENDBRANCH  18  19
ENDBRANCH  17  18
ENDBRANCH  16  17
ENDBRANCH  15  16
ENDBRANCH  14  15
ENDBRANCH  13  14
ENDBRANCH  12  13
ENDBRANCH  11  12
ENDBRANCH  10  11
ENDBRANCH   9  10
ENDBRANCH   8   9
ENDBRANCH   7   8
ENDBRANCH   6   7
ENDBRANCH   5   6
ENDBRANCH   4   5
ENDBRANCH   3   4
ENDBRANCH   2   3
ENDBRANCH   1   2
BRANCH   1  21
ATOM     21  C   LIG A   1      -7.746   2.695 128.814  0.00  0.00    +0.000 C 
BRANCH  21  22
ATOM     22  C   LIG A   1      -8.288   1.244 128.799  0.00  0.00    +0.003 C 
BRANCH  22  23
ATOM     23  C   LIG A   1      -8.430   0.582 127.410  0.00  0.00    +0.041 C 
BRANCH  23  24
ATOM     24  C   LIG A   1      -8.995   1.486 126.315  0.00  0.00    +0.232 C 
BRANCH  24  25
ATOM     25  O   LIG A   1      -9.310   0.738 125.121  0.00  0.00    -0.462 OA
BRANCH  25  26
ATOM     26  C   LIG A   1      -9.802   1.410 124.093  0.00  0.00    +0.332 C 
ATOM     27  O   LIG A   1     -10.929   1.263 123.615  0.00  0.00    -0.246 OA
BRANCH  26  29
ATOM     28  C   LIG A   1      -7.736   2.080 122.868  0.00  0.00    +0.015 C 
ATOM     29  C   LIG A   1      -8.864   2.385 123.538  0.00  0.00    +0.092 C 
BRANCH  28  30
ATOM     30  C   LIG A   1      -6.771   3.075 122.366  0.00  0.00    -0.021 A 
ATOM     31  C   LIG A   1      -6.706   3.449 121.014  0.00  0.00    +0.057 A 
ATOM     32  C   LIG A   1      -5.828   4.443 120.575  0.00  0.00    +0.162 A 
ATOM     33  C   LIG A   1      -4.979   5.048 121.506  0.00  0.00    +0.159 A 
ATOM     34  C   LIG A   1      -4.994   4.665 122.843  0.00  0.00    +0.050 A 
ATOM     35  C   LIG A   1      -5.878   3.670 123.268  0.00  0.00    +0.012 A 
BRANCH  33  36
ATOM     36  O   LIG A   1      -4.096   6.026 121.138  0.00  0.00    -0.503 OA
ATOM     37  H   LIG A   1      -4.617   6.677 120.630  0.00  0.00    +0.292 HD
ENDBRANCH  33  36
BRANCH  32  38
ATOM     38  O   LIG A   1      -5.736   4.885 119.275  0.00  0.00    -0.491 OA
ATOM     39  C   LIG A   1      -6.948   4.820 118.521  0.00  0.00    +0.277 C 
ENDBRANCH  32  38
ENDBRANCH  28  30
ENDBRANCH  26  29
ENDBRANCH  25  26
ENDBRANCH  24  25
ENDBRANCH  23  24
ENDBRANCH  22  23
ENDBRANCH  21  22
ENDBRANCH   1  21
TORSDOF 28
ENDMDL
MODEL 2
REMARK VINA RESULT:      -5.9      3.062      7.602
REMARK  Name = NuBBE_2423
REMARK  30 active torsions:
REMARK  status: ('A' for Active; 'I' for Inactive)
REMARK    1  A    between atoms: C_1  and  C_30
REMARK    2  A    between atoms: C_2  and  C_3
REMARK    3  A    between atoms: C_3  and  O_5
REMARK    4  A    between atoms: O_5  and  C_6
REMARK    5  A    between atoms: C_6  and  C_7
REMARK    6  A    between atoms: C_7  and  C_8
REMARK    7  A    between atoms: C_8  and  C_9
REMARK    8  A    between atoms: C_9  and  C_10
REMARK    9  A    between atoms: C_10  and  C_11
REMARK   10  A    between atoms: C_11  and  C_12
REMARK   11  A    between atoms: C_12  and  C_13
REMARK   12  A    between atoms: C_13  and  C_14
REMARK   13  A    between atoms: C_14  and  C_15
REMARK   14  A    between atoms: C_15  and  C_16
REMARK   15  A    between atoms: C_16  and  C_17
REMARK   16  A    between atoms: C_17  and  C_18
REMARK   17  A    between atoms: C_18  and  C_19
REMARK   18  A    between atoms: C_19  and  C_20
REMARK   19  A    between atoms: C_20  and  C_21
REMARK   20  A    between atoms: C_21  and  C_22
REMARK   21  A    between atoms: C_22  and  C_23
REMARK   22  A    between atoms: C_23  and  C_24
REMARK   23  A    between atoms: C_24  and  C_25
REMARK   24  A    between atoms: C_25  and  C_26
REMARK   25  A    between atoms: C_26  and  C_27
REMARK   26  A    between atoms: C_27  and  C_28
REMARK   27  A    between atoms: C_28  and  C_29
REMARK   28  A    between atoms: C_32  and  O_33
REMARK   29  A    between atoms: O_33  and  C_34
REMARK   30  A    between atoms: C_35  and  O_38
REMARK                            x       y       z     vdW  Elec       q    Type
REMARK                         _______ _______ _______ _____ _____    ______ ____
ROOT
ATOM      1  C   LIG A   1      -9.496  -3.172 126.268  0.00  0.00    -0.000 C 
ENDROOT
BRANCH   1   2
ATOM      2  C   LIG A   1      -9.013  -3.400 124.821  0.00  0.00    -0.000 C 
BRANCH   2   3
ATOM      3  C   LIG A   1      -8.932  -2.195 123.871  0.00  0.00    -0.000 C 
BRANCH   3   4
ATOM      4  C   LIG A   1      -7.602  -2.230 123.088  0.00  0.00    -0.000 C 
BRANCH   4   5
ATOM      5  C   LIG A   1      -6.465  -2.886 123.877  0.00  0.00    -0.000 C 
BRANCH   5   6
ATOM      6  C   LIG A   1      -5.617  -1.832 124.596  0.00  0.00    -0.000 C 
BRANCH   6   7
ATOM      7  C   LIG A   1      -6.042  -1.642 126.055  0.00  0.00    -0.000 C 
BRANCH   7   8
ATOM      8  C   LIG A   1      -5.309  -0.478 126.740  0.00  0.00    -0.000 C 
BRANCH   8   9
ATOM      9  C   LIG A   1      -6.162   0.267 127.781  0.00  0.00    -0.000 C 
BRANCH   9  10
ATOM     10  C   LIG A   1      -7.660  -0.025 127.617  0.00  0.00    -0.000 C 
BRANCH  10  11
ATOM     11  C   LIG A   1      -8.446   1.192 127.092  0.00  0.00    -0.000 C 
BRANCH  11  12
ATOM     12  C   LIG A   1      -9.360   0.809 125.917  0.00  0.00    -0.000 C 
BRANCH  12  13
ATOM     13  C   LIG A   1      -8.996   1.499 124.589  0.00  0.00    -0.000 C 
BRANCH  13  14
ATOM     14  C   LIG A   1      -7.509   1.287 124.253  0.00  0.00    -0.000 C 
BRANCH  14  15
ATOM     15  C   LIG A   1      -7.029   2.128 123.064  0.00  0.00    -0.000 C 
BRANCH  15  16
ATOM     16  C   LIG A   1      -6.823   3.600 123.463  0.00  0.00    -0.000 C 
BRANCH  16  17
ATOM     17  C   LIG A   1      -5.548   3.848 124.283  0.00  0.00    -0.000 C 
BRANCH  17  18
ATOM     18  C   LIG A   1      -5.848   4.093 125.764  0.00  0.00    -0.000 C 
BRANCH  18  19
ATOM     19  C   LIG A   1      -4.589   4.102 126.626  0.00  0.00    -0.003 C 
ATOM     20  C   LIG A   1      -3.770   2.841 126.389  0.00  0.00    +0.004 C 
ENDBRANCH  18  19
ENDBRANCH  17  18
ENDBRANCH  16  17
ENDBRANCH  15  16
ENDBRANCH  14  15
ENDBRANCH  13  14
ENDBRANCH  12  13
ENDBRANCH  11  12
ENDBRANCH  10  11
ENDBRANCH   9  10
ENDBRANCH   8   9
ENDBRANCH   7   8
ENDBRANCH   6   7
ENDBRANCH   5   6
ENDBRANCH   4   5
ENDBRANCH   3   4
ENDBRANCH   2   3
ENDBRANCH   1   2
BRANCH   1  21
ATOM     21  C   LIG A   1      -8.775  -3.952 127.386  0.00  0.00    +0.000 C 
BRANCH  21  22
ATOM     22  C   LIG A   1      -8.426  -3.050 128.597  0.00  0.00    +0.003 C 
BRANCH  22  23
ATOM     23  C   LIG A   1      -7.319  -3.574 129.540  0.00  0.00    +0.041 C 
BRANCH  23  24
ATOM     24  C   LIG A   1      -6.792  -2.555 130.551  0.00  0.00    +0.232 C 
BRANCH  24  25
ATOM     25  O   LIG A   1      -7.639  -2.480 131.718  0.00  0.00    -0.462 OA
BRANCH  25  26
ATOM     26  C   LIG A   1      -7.676  -1.329 132.370  0.00  0.00    +0.332 C 
ATOM     27  O   LIG A   1      -7.426  -1.176 133.568  0.00  0.00    -0.246 OA
BRANCH  26  29
ATOM     28  C   LIG A   1      -7.444   1.002 131.515  0.00  0.00    +0.015 C 
ATOM     29  C   LIG A   1      -8.056  -0.198 131.524  0.00  0.00    +0.092 C 
BRANCH  28  30
ATOM     30  C   LIG A   1      -7.876   2.151 130.699  0.00  0.00    -0.021 A 
ATOM     31  C   LIG A   1      -9.219   2.551 130.609  0.00  0.00    +0.057 A 
ATOM     32  C   LIG A   1      -9.594   3.685 129.883  0.00  0.00    +0.162 A 
ATOM     33  C   LIG A   1      -8.606   4.409 129.211  0.00  0.00    +0.159 A 
ATOM     34  C   LIG A   1      -7.274   4.009 129.249  0.00  0.00    +0.050 A 
ATOM     35  C   LIG A   1      -6.914   2.874 129.980  0.00  0.00    +0.012 A 
BRANCH  33  36
ATOM     36  O   LIG A   1      -8.910   5.526 128.482  0.00  0.00    -0.503 OA
ATOM     37  H   LIG A   1      -8.218   5.592 127.796  0.00  0.00    +0.292 HD
ENDBRANCH  33  36
BRANCH  32  38
ATOM     38  O   LIG A   1     -10.883   4.155 129.781  0.00  0.00    -0.491 OA
ATOM     39  C   LIG A   1     -11.245   5.156 130.735  0.00  0.00    +0.277 C 
ENDBRANCH  32  38
ENDBRANCH  28  30
ENDBRANCH  26  29
ENDBRANCH  25  26
ENDBRANCH  24  25
ENDBRANCH  23  24
ENDBRANCH  22  23
ENDBRANCH  21  22
ENDBRANCH   1  21
TORSDOF 28
ENDMDL
MODEL 3
REMARK VINA RESULT:      -5.9      4.186      7.878
REMARK  Name = NuBBE_2423
REMARK  30 active torsions:
REMARK  status: ('A' for Active; 'I' for Inactive)
REMARK    1  A    between atoms: C_1  and  C_30
REMARK    2  A    between atoms: C_2  and  C_3
REMARK    3  A    between atoms: C_3  and  O_5
REMARK    4  A    between atoms: O_5  and  C_6
REMARK    5  A    between atoms: C_6  and  C_7
REMARK    6  A    between atoms: C_7  and  C_8
REMARK    7  A    between atoms: C_8  and  C_9
REMARK    8  A    between atoms: C_9  and  C_10
REMARK    9  A    between atoms: C_10  and  C_11
REMARK   10  A    between atoms: C_11  and  C_12
REMARK   11  A    between atoms: C_12  and  C_13
REMARK   12  A    between atoms: C_13  and  C_14
REMARK   13  A    between atoms: C_14  and  C_15
REMARK   14  A    between atoms: C_15  and  C_16
REMARK   15  A    between atoms: C_16  and  C_17
REMARK   16  A    between atoms: C_17  and  C_18
REMARK   17  A    between atoms: C_18  and  C_19
REMARK   18  A    between atoms: C_19  and  C_20
REMARK   19  A    between atoms: C_20  and  C_21
REMARK   20  A    between atoms: C_21  and  C_22
REMARK   21  A    between atoms: C_22  and  C_23
REMARK   22  A    between atoms: C_23  and  C_24
REMARK   23  A    between atoms: C_24  and  C_25
REMARK   24  A    between atoms: C_25  and  C_26
REMARK   25  A    between atoms: C_26  and  C_27
REMARK   26  A    between atoms: C_27  and  C_28
REMARK   27  A    between atoms: C_28  and  C_29
REMARK   28  A    between atoms: C_32  and  O_33
REMARK   29  A    between atoms: O_33  and  C_34
REMARK   30  A    between atoms: C_35  and  O_38
REMARK                            x       y       z     vdW  Elec       q    Type
REMARK                         _______ _______ _______ _____ _____    ______ ____
ROOT
ATOM      1  C   LIG A   1      -7.344  -3.295 129.429  0.00  0.00    -0.000 C 
ENDROOT
BRANCH   1   2
ATOM      2  C   LIG A   1      -8.653  -3.256 128.613  0.00  0.00    -0.000 C 
BRANCH   2   3
ATOM      3  C   LIG A   1      -8.662  -3.865 127.202  0.00  0.00    -0.000 C 
BRANCH   3   4
ATOM      4  C   LIG A   1      -9.379  -2.912 126.221  0.00  0.00    -0.000 C 
BRANCH   4   5
ATOM      5  C   LIG A   1      -8.829  -3.003 124.795  0.00  0.00    -0.000 C 
BRANCH   5   6
ATOM      6  C   LIG A   1      -7.742  -4.078 124.694  0.00  0.00    -0.000 C 
BRANCH   6   7
ATOM      7  C   LIG A   1      -6.415  -3.515 124.180  0.00  0.00    -0.000 C 
BRANCH   7   8
ATOM      8  C   LIG A   1      -6.234  -2.025 124.510  0.00  0.00    -0.000 C 
BRANCH   8   9
ATOM      9  C   LIG A   1      -5.834  -1.755 125.971  0.00  0.00    -0.000 C 
BRANCH   9  10
ATOM     10  C   LIG A   1      -6.510  -0.496 126.532  0.00  0.00    -0.000 C 
BRANCH  10  11
ATOM     11  C   LIG A   1      -7.216   0.333 125.442  0.00  0.00    -0.000 C 
BRANCH  11  12
ATOM     12  C   LIG A   1      -8.673   0.642 125.823  0.00  0.00    -0.000 C 
BRANCH  12  13
ATOM     13  C   LIG A   1      -9.392   1.583 124.838  0.00  0.00    -0.000 C 
BRANCH  13  14
ATOM     14  C   LIG A   1      -8.809   1.437 123.421  0.00  0.00    -0.000 C 
BRANCH  14  15
ATOM     15  C   LIG A   1      -8.337   2.767 122.819  0.00  0.00    -0.000 C 
BRANCH  15  16
ATOM     16  C   LIG A   1      -6.802   2.864 122.803  0.00  0.00    -0.000 C 
BRANCH  16  17
ATOM     17  C   LIG A   1      -6.246   4.036 123.624  0.00  0.00    -0.000 C 
BRANCH  17  18
ATOM     18  C   LIG A   1      -5.555   3.571 124.908  0.00  0.00    -0.000 C 
BRANCH  18  19
ATOM     19  C   LIG A   1      -6.411   3.796 126.152  0.00  0.00    -0.003 C 
ATOM     20  C   LIG A   1      -7.591   4.703 125.832  0.00  0.00    +0.004 C 
ENDBRANCH  18  19
ENDBRANCH  17  18
ENDBRANCH  16  17
ENDBRANCH  15  16
ENDBRANCH  14  15
ENDBRANCH  13  14
ENDBRANCH  12  13
ENDBRANCH  11  12
ENDBRANCH  10  11
ENDBRANCH   9  10
ENDBRANCH   8   9
ENDBRANCH   7   8
ENDBRANCH   6   7
ENDBRANCH   5   6
ENDBRANCH   4   5
ENDBRANCH   3   4
ENDBRANCH   2   3
ENDBRANCH   1   2
BRANCH   1  21
ATOM     21  C   LIG A   1      -6.763  -1.947 129.900  0.00  0.00    +0.000 C 
BRANCH  21  22
ATOM     22  C   LIG A   1      -7.859  -0.865 130.071  0.00  0.00    +0.003 C 
BRANCH  22  23
ATOM     23  C   LIG A   1      -8.075  -0.333 131.506  0.00  0.00    +0.041 C 
BRANCH  23  24
ATOM     24  C   LIG A   1      -9.290   0.577 131.685  0.00  0.00    +0.232 C 
BRANCH  24  25
ATOM     25  O   LIG A   1      -8.999   1.934 131.285  0.00  0.00    -0.462 OA
BRANCH  25  26
ATOM     26  C   LIG A   1      -9.383   2.904 132.098  0.00  0.00    +0.332 C 
ATOM     27  O   LIG A   1      -9.174   2.947 133.312  0.00  0.00    -0.246 OA
BRANCH  26  29
ATOM     28  C   LIG A   1      -9.911   5.291 131.606  0.00  0.00    +0.015 C 
ATOM     29  C   LIG A   1     -10.114   3.973 131.416  0.00  0.00    +0.092 C 
BRANCH  28  30
ATOM     30  C   LIG A   1     -10.696   6.356 130.955  0.00  0.00    -0.021 A 
ATOM     31  C   LIG A   1     -10.250   7.027 129.806  0.00  0.00    +0.057 A 
ATOM     32  C   LIG A   1     -11.043   7.986 129.168  0.00  0.00    +0.162 A 
ATOM     33  C   LIG A   1     -12.291   8.296 129.715  0.00  0.00    +0.159 A 
ATOM     34  C   LIG A   1     -12.737   7.676 130.877  0.00  0.00    +0.050 A 
ATOM     35  C   LIG A   1     -11.934   6.719 131.503  0.00  0.00    +0.012 A 
BRANCH  33  36
ATOM     36  O   LIG A   1     -13.112   9.227 129.139  0.00  0.00    -0.503 OA
ATOM     37  H   LIG A   1     -13.923   8.745 128.886  0.00  0.00    +0.292 HD
ENDBRANCH  33  36
BRANCH  32  38
ATOM     38  O   LIG A   1     -10.686   8.656 128.020  0.00  0.00    -0.491 OA
ATOM     39  C   LIG A   1     -10.769   7.890 126.816  0.00  0.00    +0.277 C 
ENDBRANCH  32  38
ENDBRANCH  28  30
ENDBRANCH  26  29
ENDBRANCH  25  26
ENDBRANCH  24  25
ENDBRANCH  23  24
ENDBRANCH  22  23
ENDBRANCH  21  22
ENDBRANCH   1  21
TORSDOF 28
ENDMDL
MODEL 4
REMARK VINA RESULT:      -5.8      4.198      7.706
REMARK  Name = NuBBE_2423
REMARK  30 active torsions:
REMARK  status: ('A' for Active; 'I' for Inactive)
REMARK    1  A    between atoms: C_1  and  C_30
REMARK    2  A    between atoms: C_2  and  C_3
REMARK    3  A    between atoms: C_3  and  O_5
REMARK    4  A    between atoms: O_5  and  C_6
REMARK    5  A    between atoms: C_6  and  C_7
REMARK    6  A    between atoms: C_7  and  C_8
REMARK    7  A    between atoms: C_8  and  C_9
REMARK    8  A    between atoms: C_9  and  C_10
REMARK    9  A    between atoms: C_10  and  C_11
REMARK   10  A    between atoms: C_11  and  C_12
REMARK   11  A    between atoms: C_12  and  C_13
REMARK   12  A    between atoms: C_13  and  C_14
REMARK   13  A    between atoms: C_14  and  C_15
REMARK   14  A    between atoms: C_15  and  C_16
REMARK   15  A    between atoms: C_16  and  C_17
REMARK   16  A    between atoms: C_17  and  C_18
REMARK   17  A    between atoms: C_18  and  C_19
REMARK   18  A    between atoms: C_19  and  C_20
REMARK   19  A    between atoms: C_20  and  C_21
REMARK   20  A    between atoms: C_21  and  C_22
REMARK   21  A    between atoms: C_22  and  C_23
REMARK   22  A    between atoms: C_23  and  C_24
REMARK   23  A    between atoms: C_24  and  C_25
REMARK   24  A    between atoms: C_25  and  C_26
REMARK   25  A    between atoms: C_26  and  C_27
REMARK   26  A    between atoms: C_27  and  C_28
REMARK   27  A    between atoms: C_28  and  C_29
REMARK   28  A    between atoms: C_32  and  O_33
REMARK   29  A    between atoms: O_33  and  C_34
REMARK   30  A    between atoms: C_35  and  O_38
REMARK                            x       y       z     vdW  Elec       q    Type
REMARK                         _______ _______ _______ _____ _____    ______ ____
ROOT
ATOM      1  C   LIG A   1      -8.268  -2.574 129.809  0.00  0.00    -0.000 C 
ENDROOT
BRANCH   1   2
ATOM      2  C   LIG A   1      -7.911  -3.488 128.618  0.00  0.00    -0.000 C 
BRANCH   2   3
ATOM      3  C   LIG A   1      -9.045  -4.016 127.726  0.00  0.00    -0.000 C 
BRANCH   3   4
ATOM      4  C   LIG A   1      -9.068  -3.242 126.391  0.00  0.00    -0.000 C 
BRANCH   4   5
ATOM      5  C   LIG A   1      -8.502  -4.055 125.223  0.00  0.00    -0.000 C 
BRANCH   5   6
ATOM      6  C   LIG A   1      -8.882  -3.424 123.880  0.00  0.00    -0.000 C 
BRANCH   6   7
ATOM      7  C   LIG A   1      -8.833  -1.894 123.922  0.00  0.00    -0.000 C 
BRANCH   7   8
ATOM      8  C   LIG A   1      -7.589  -1.320 123.225  0.00  0.00    -0.000 C 
BRANCH   8   9
ATOM      9  C   LIG A   1      -6.296  -2.097 123.521  0.00  0.00    -0.000 C 
BRANCH   9  10
ATOM     10  C   LIG A   1      -5.435  -1.403 124.586  0.00  0.00    -0.000 C 
BRANCH  10  11
ATOM     11  C   LIG A   1      -5.620  -2.014 125.988  0.00  0.00    -0.000 C 
BRANCH  11  12
ATOM     12  C   LIG A   1      -6.021  -0.948 127.020  0.00  0.00    -0.000 C 
BRANCH  12  13
ATOM     13  C   LIG A   1      -7.161  -0.023 126.554  0.00  0.00    -0.000 C 
BRANCH  13  14
ATOM     14  C   LIG A   1      -7.108   1.325 127.296  0.00  0.00    -0.000 C 
BRANCH  14  15
ATOM     15  C   LIG A   1      -6.983   2.531 126.357  0.00  0.00    -0.000 C 
BRANCH  15  16
ATOM     16  C   LIG A   1      -6.086   2.212 125.148  0.00  0.00    -0.000 C 
BRANCH  16  17
ATOM     17  C   LIG A   1      -6.836   2.193 123.808  0.00  0.00    -0.000 C 
BRANCH  17  18
ATOM     18  C   LIG A   1      -8.155   2.967 123.869  0.00  0.00    -0.000 C 
BRANCH  18  19
ATOM     19  C   LIG A   1      -9.340   2.153 123.358  0.00  0.00    -0.003 C 
ATOM     20  C   LIG A   1     -10.005   1.403 124.503  0.00  0.00    +0.004 C 
ENDBRANCH  18  19
ENDBRANCH  17  18
ENDBRANCH  16  17
ENDBRANCH  15  16
ENDBRANCH  14  15
ENDBRANCH  13  14
ENDBRANCH  12  13
ENDBRANCH  11  12
ENDBRANCH  10  11
ENDBRANCH   9  10
ENDBRANCH   8   9
ENDBRANCH   7   8
ENDBRANCH   6   7
ENDBRANCH   5   6
ENDBRANCH   4   5
ENDBRANCH   3   4
ENDBRANCH   2   3
ENDBRANCH   1   2
BRANCH   1  21
ATOM     21  C   LIG A   1      -7.105  -2.055 130.677  0.00  0.00    +0.000 C 
BRANCH  21  22
ATOM     22  C   LIG A   1      -6.917  -0.522 130.548  0.00  0.00    +0.003 C 
BRANCH  22  23
ATOM     23  C   LIG A   1      -7.854   0.355 131.409  0.00  0.00    +0.041 C 
BRANCH  23  24
ATOM     24  C   LIG A   1      -8.552   1.490 130.659  0.00  0.00    +0.232 C 
BRANCH  24  25
ATOM     25  O   LIG A   1      -9.677   2.004 131.405  0.00  0.00    -0.462 OA
BRANCH  25  26
ATOM     26  C   LIG A   1      -9.535   3.184 131.984  0.00  0.00    +0.332 C 
ATOM     27  O   LIG A   1      -9.009   3.385 133.081  0.00  0.00    -0.246 OA
BRANCH  26  29
ATOM     28  C   LIG A   1     -10.387   5.507 131.669  0.00  0.00    +0.015 C 
ATOM     29  C   LIG A   1     -10.077   4.287 131.190  0.00  0.00    +0.092 C 
BRANCH  28  30
ATOM     30  C   LIG A   1     -10.988   6.589 130.867  0.00  0.00    -0.021 A 
ATOM     31  C   LIG A   1     -10.412   7.054 129.675  0.00  0.00    +0.057 A 
ATOM     32  C   LIG A   1     -11.036   8.034 128.897  0.00  0.00    +0.162 A 
ATOM     33  C   LIG A   1     -12.244   8.576 129.345  0.00  0.00    +0.159 A 
ATOM     34  C   LIG A   1     -12.813   8.163 130.545  0.00  0.00    +0.050 A 
ATOM     35  C   LIG A   1     -12.178   7.182 131.311  0.00  0.00    +0.012 A 
BRANCH  33  36
ATOM     36  O   LIG A   1     -12.902   9.540 128.631  0.00  0.00    -0.503 OA
ATOM     37  H   LIG A   1     -13.766   9.653 129.072  0.00  0.00    +0.292 HD
ENDBRANCH  33  36
BRANCH  32  38
ATOM     38  O   LIG A   1     -10.549   8.510 127.702  0.00  0.00    -0.491 OA
ATOM     39  C   LIG A   1     -10.838   7.701 126.559  0.00  0.00    +0.277 C 
ENDBRANCH  32  38
ENDBRANCH  28  30
ENDBRANCH  26  29
ENDBRANCH  25  26
ENDBRANCH  24  25
ENDBRANCH  23  24
ENDBRANCH  22  23
ENDBRANCH  21  22
ENDBRANCH   1  21
TORSDOF 28
ENDMDL
MODEL 5
REMARK VINA RESULT:      -5.7      3.031      7.030
REMARK  Name = NuBBE_2423
REMARK  30 active torsions:
REMARK  status: ('A' for Active; 'I' for Inactive)
REMARK    1  A    between atoms: C_1  and  C_30
REMARK    2  A    between atoms: C_2  and  C_3
REMARK    3  A    between atoms: C_3  and  O_5
REMARK    4  A    between atoms: O_5  and  C_6
REMARK    5  A    between atoms: C_6  and  C_7
REMARK    6  A    between atoms: C_7  and  C_8
REMARK    7  A    between atoms: C_8  and  C_9
REMARK    8  A    between atoms: C_9  and  C_10
REMARK    9  A    between atoms: C_10  and  C_11
REMARK   10  A    between atoms: C_11  and  C_12
REMARK   11  A    between atoms: C_12  and  C_13
REMARK   12  A    between atoms: C_13  and  C_14
REMARK   13  A    between atoms: C_14  and  C_15
REMARK   14  A    between atoms: C_15  and  C_16
REMARK   15  A    between atoms: C_16  and  C_17
REMARK   16  A    between atoms: C_17  and  C_18
REMARK   17  A    between atoms: C_18  and  C_19
REMARK   18  A    between atoms: C_19  and  C_20
REMARK   19  A    between atoms: C_20  and  C_21
REMARK   20  A    between atoms: C_21  and  C_22
REMARK   21  A    between atoms: C_22  and  C_23
REMARK   22  A    between atoms: C_23  and  C_24
REMARK   23  A    between atoms: C_24  and  C_25
REMARK   24  A    between atoms: C_25  and  C_26
REMARK   25  A    between atoms: C_26  and  C_27
REMARK   26  A    between atoms: C_27  and  C_28
REMARK   27  A    between atoms: C_28  and  C_29
REMARK   28  A    between atoms: C_32  and  O_33
REMARK   29  A    between atoms: O_33  and  C_34
REMARK   30  A    between atoms: C_35  and  O_38
REMARK                            x       y       z     vdW  Elec       q    Type
REMARK                         _______ _______ _______ _____ _____    ______ ____
ROOT
ATOM      1  C   LIG A   1      -7.748  -1.328 130.209  0.00  0.00    -0.000 C 
ENDROOT
BRANCH   1   2
ATOM      2  C   LIG A   1      -7.486  -2.817 129.899  0.00  0.00    -0.000 C 
BRANCH   2   3
ATOM      3  C   LIG A   1      -7.548  -3.288 128.438  0.00  0.00    -0.000 C 
BRANCH   3   4
ATOM      4  C   LIG A   1      -8.936  -3.894 128.137  0.00  0.00    -0.000 C 
BRANCH   4   5
ATOM      5  C   LIG A   1      -9.515  -3.419 126.801  0.00  0.00    -0.000 C 
BRANCH   5   6
ATOM      6  C   LIG A   1      -8.507  -3.618 125.665  0.00  0.00    -0.000 C 
BRANCH   6   7
ATOM      7  C   LIG A   1      -9.146  -3.441 124.285  0.00  0.00    -0.000 C 
BRANCH   7   8
ATOM      8  C   LIG A   1      -8.746  -2.120 123.610  0.00  0.00    -0.000 C 
BRANCH   8   9
ATOM      9  C   LIG A   1      -7.847  -2.300 122.375  0.00  0.00    -0.000 C 
BRANCH   9  10
ATOM     10  C   LIG A   1      -6.450  -1.699 122.584  0.00  0.00    -0.000 C 
BRANCH  10  11
ATOM     11  C   LIG A   1      -5.741  -2.267 123.829  0.00  0.00    -0.000 C 
BRANCH  11  12
ATOM     12  C   LIG A   1      -5.338  -1.150 124.806  0.00  0.00    -0.000 C 
BRANCH  12  13
ATOM     13  C   LIG A   1      -5.951  -1.296 126.212  0.00  0.00    -0.000 C 
BRANCH  13  14
ATOM     14  C   LIG A   1      -5.797   0.010 127.013  0.00  0.00    -0.000 C 
BRANCH  14  15
ATOM     15  C   LIG A   1      -7.091   0.829 127.092  0.00  0.00    -0.000 C 
BRANCH  15  16
ATOM     16  C   LIG A   1      -8.325  -0.035 126.777  0.00  0.00    -0.000 C 
BRANCH  16  17
ATOM     17  C   LIG A   1      -9.378   0.679 125.917  0.00  0.00    -0.000 C 
BRANCH  17  18
ATOM     18  C   LIG A   1      -8.794   1.867 125.150  0.00  0.00    -0.000 C 
BRANCH  18  19
ATOM     19  C   LIG A   1      -8.436   1.518 123.708  0.00  0.00    -0.003 C 
ATOM     20  C   LIG A   1      -6.977   1.847 123.425  0.00  0.00    +0.004 C 
ENDBRANCH  18  19
ENDBRANCH  17  18
ENDBRANCH  16  17
ENDBRANCH  15  16
ENDBRANCH  14  15
ENDBRANCH  13  14
ENDBRANCH  12  13
ENDBRANCH  11  12
ENDBRANCH  10  11
ENDBRANCH   9  10
ENDBRANCH   8   9
ENDBRANCH   7   8
ENDBRANCH   6   7
ENDBRANCH   5   6
ENDBRANCH   4   5
ENDBRANCH   3   4
ENDBRANCH   2   3
ENDBRANCH   1   2
BRANCH   1  21
ATOM     21  C   LIG A   1      -7.772  -0.909 131.693  0.00  0.00    +0.000 C 
BRANCH  21  22
ATOM     22  C   LIG A   1      -7.411  -2.081 132.639  0.00  0.00    +0.003 C 
BRANCH  22  23
ATOM     23  C   LIG A   1      -6.008  -2.030 133.284  0.00  0.00    +0.041 C 
BRANCH  23  24
ATOM     24  C   LIG A   1      -4.955  -2.918 132.621  0.00  0.00    +0.232 C 
BRANCH  24  25
ATOM     25  O   LIG A   1      -3.818  -2.148 132.174  0.00  0.00    -0.462 OA
BRANCH  25  26
ATOM     26  C   LIG A   1      -3.586  -2.103 130.873  0.00  0.00    +0.332 C 
ATOM     27  O   LIG A   1      -3.017  -2.977 130.216  0.00  0.00    -0.246 OA
BRANCH  26  29
ATOM     28  C   LIG A   1      -4.106   0.336 130.824  0.00  0.00    +0.015 C 
ATOM     29  C   LIG A   1      -4.076  -0.878 130.241  0.00  0.00    +0.092 C 
BRANCH  28  30
ATOM     30  C   LIG A   1      -4.657   1.550 130.195  0.00  0.00    -0.021 A 
ATOM     31  C   LIG A   1      -3.978   2.253 129.188  0.00  0.00    +0.057 A 
ATOM     32  C   LIG A   1      -4.552   3.362 128.559  0.00  0.00    +0.162 A 
ATOM     33  C   LIG A   1      -5.818   3.788 128.974  0.00  0.00    +0.159 A 
ATOM     34  C   LIG A   1      -6.492   3.134 129.999  0.00  0.00    +0.050 A 
ATOM     35  C   LIG A   1      -5.906   2.026 130.617  0.00  0.00    +0.012 A 
BRANCH  33  36
ATOM     36  O   LIG A   1      -6.431   4.867 128.399  0.00  0.00    -0.503 OA
ATOM     37  H   LIG A   1      -6.749   4.559 127.529  0.00  0.00    +0.292 HD
ENDBRANCH  33  36
BRANCH  32  38
ATOM     38  O   LIG A   1      -3.962   4.076 127.542  0.00  0.00    -0.491 OA
ATOM     39  C   LIG A   1      -2.729   4.715 127.881  0.00  0.00    +0.277 C 
ENDBRANCH  32  38
ENDBRANCH  28  30
ENDBRANCH  26  29
ENDBRANCH  25  26
ENDBRANCH  24  25
ENDBRANCH  23  24
ENDBRANCH  22  23
ENDBRANCH  21  22
ENDBRANCH   1  21
TORSDOF 28
ENDMDL
MODEL 6
REMARK VINA RESULT:      -5.7      4.436      7.208
REMARK  Name = NuBBE_2423
REMARK  30 active torsions:
REMARK  status: ('A' for Active; 'I' for Inactive)
REMARK    1  A    between atoms: C_1  and  C_30
REMARK    2  A    between atoms: C_2  and  C_3
REMARK    3  A    between atoms: C_3  and  O_5
REMARK    4  A    between atoms: O_5  and  C_6
REMARK    5  A    between atoms: C_6  and  C_7
REMARK    6  A    between atoms: C_7  and  C_8
REMARK    7  A    between atoms: C_8  and  C_9
REMARK    8  A    between atoms: C_9  and  C_10
REMARK    9  A    between atoms: C_10  and  C_11
REMARK   10  A    between atoms: C_11  and  C_12
REMARK   11  A    between atoms: C_12  and  C_13
REMARK   12  A    between atoms: C_13  and  C_14
REMARK   13  A    between atoms: C_14  and  C_15
REMARK   14  A    between atoms: C_15  and  C_16
REMARK   15  A    between atoms: C_16  and  C_17
REMARK   16  A    between atoms: C_17  and  C_18
REMARK   17  A    between atoms: C_18  and  C_19
REMARK   18  A    between atoms: C_19  and  C_20
REMARK   19  A    between atoms: C_20  and  C_21
REMARK   20  A    between atoms: C_21  and  C_22
REMARK   21  A    between atoms: C_22  and  C_23
REMARK   22  A    between atoms: C_23  and  C_24
REMARK   23  A    between atoms: C_24  and  C_25
REMARK   24  A    between atoms: C_25  and  C_26
REMARK   25  A    between atoms: C_26  and  C_27
REMARK   26  A    between atoms: C_27  and  C_28
REMARK   27  A    between atoms: C_28  and  C_29
REMARK   28  A    between atoms: C_32  and  O_33
REMARK   29  A    between atoms: O_33  and  C_34
REMARK   30  A    between atoms: C_35  and  O_38
REMARK                            x       y       z     vdW  Elec       q    Type
REMARK                         _______ _______ _______ _____ _____    ______ ____
ROOT
ATOM      1  C   LIG A   1      -7.315   3.841 127.889  0.00  0.00    -0.000 C 
ENDROOT
BRANCH   1   2
ATOM      2  C   LIG A   1      -5.993   3.956 127.104  0.00  0.00    -0.000 C 
BRANCH   2   3
ATOM      3  C   LIG A   1      -4.943   2.844 127.257  0.00  0.00    -0.000 C 
BRANCH   3   4
ATOM      4  C   LIG A   1      -5.150   1.770 126.167  0.00  0.00    -0.000 C 
BRANCH   4   5
ATOM      5  C   LIG A   1      -5.697   0.454 126.728  0.00  0.00    -0.000 C 
BRANCH   5   6
ATOM      6  C   LIG A   1      -7.191   0.306 126.423  0.00  0.00    -0.000 C 
BRANCH   6   7
ATOM      7  C   LIG A   1      -8.041   0.264 127.696  0.00  0.00    -0.000 C 
BRANCH   7   8
ATOM      8  C   LIG A   1      -7.247  -0.205 128.925  0.00  0.00    -0.000 C 
BRANCH   8   9
ATOM      9  C   LIG A   1      -7.761  -1.522 129.532  0.00  0.00    -0.000 C 
BRANCH   9  10
ATOM     10  C   LIG A   1      -7.411  -2.736 128.660  0.00  0.00    -0.000 C 
BRANCH  10  11
ATOM     11  C   LIG A   1      -8.660  -3.501 128.181  0.00  0.00    -0.000 C 
BRANCH  11  12
ATOM     12  C   LIG A   1      -8.570  -3.848 126.686  0.00  0.00    -0.000 C 
BRANCH  12  13
ATOM     13  C   LIG A   1      -9.416  -2.934 125.779  0.00  0.00    -0.000 C 
BRANCH  13  14
ATOM     14  C   LIG A   1      -9.178  -3.267 124.294  0.00  0.00    -0.000 C 
BRANCH  14  15
ATOM     15  C   LIG A   1      -9.040  -2.023 123.408  0.00  0.00    -0.000 C 
BRANCH  15  16
ATOM     16  C   LIG A   1      -7.565  -1.634 123.209  0.00  0.00    -0.000 C 
BRANCH  16  17
ATOM     17  C   LIG A   1      -6.572  -2.717 123.657  0.00  0.00    -0.000 C 
BRANCH  17  18
ATOM     18  C   LIG A   1      -5.197  -2.549 123.007  0.00  0.00    -0.000 C 
BRANCH  18  19
ATOM     19  C   LIG A   1      -4.179  -3.567 123.514  0.00  0.00    -0.003 C 
ATOM     20  C   LIG A   1      -4.857  -4.894 123.822  0.00  0.00    +0.004 C 
ENDBRANCH  18  19
ENDBRANCH  17  18
ENDBRANCH  16  17
ENDBRANCH  15  16
ENDBRANCH  14  15
ENDBRANCH  13  14
ENDBRANCH  12  13
ENDBRANCH  11  12
ENDBRANCH  10  11
ENDBRANCH   9  10
ENDBRANCH   8   9
ENDBRANCH   7   8
ENDBRANCH   6   7
ENDBRANCH   5   6
ENDBRANCH   4   5
ENDBRANCH   3   4
ENDBRANCH   2   3
ENDBRANCH   1   2
BRANCH   1  21
ATOM     21  C   LIG A   1      -7.295   4.252 129.375  0.00  0.00    +0.000 C 
BRANCH  21  22
ATOM     22  C   LIG A   1      -7.221   3.028 130.321  0.00  0.00    +0.003 C 
BRANCH  22  23
ATOM     23  C   LIG A   1      -6.529   3.258 131.684  0.00  0.00    +0.041 C 
BRANCH  23  24
ATOM     24  C   LIG A   1      -6.430   4.719 132.123  0.00  0.00    +0.232 C 
BRANCH  24  25
ATOM     25  O   LIG A   1      -7.068   4.932 133.400  0.00  0.00    -0.462 OA
BRANCH  25  26
ATOM     26  C   LIG A   1      -8.387   4.842 133.445  0.00  0.00    +0.332 C 
ATOM     27  O   LIG A   1      -9.027   4.017 134.101  0.00  0.00    -0.246 OA
BRANCH  26  29
ATOM     28  C   LIG A   1     -10.159   5.610 131.866  0.00  0.00    +0.015 C 
ATOM     29  C   LIG A   1      -9.063   5.840 132.615  0.00  0.00    +0.092 C 
BRANCH  28  30
ATOM     30  C   LIG A   1     -10.793   6.612 130.989  0.00  0.00    -0.021 A 
ATOM     31  C   LIG A   1     -10.185   7.079 129.814  0.00  0.00    +0.057 A 
ATOM     32  C   LIG A   1     -10.836   7.978 128.964  0.00  0.00    +0.162 A 
ATOM     33  C   LIG A   1     -12.107   8.437 129.321  0.00  0.00    +0.159 A 
ATOM     34  C   LIG A   1     -12.713   8.022 130.502  0.00  0.00    +0.050 A 
ATOM     35  C   LIG A   1     -12.050   7.123 131.341  0.00  0.00    +0.012 A 
BRANCH  33  36
ATOM     36  O   LIG A   1     -12.795   9.319 128.532  0.00  0.00    -0.503 OA
ATOM     37  H   LIG A   1     -12.217   9.495 127.765  0.00  0.00    +0.292 HD
ENDBRANCH  33  36
BRANCH  32  38
ATOM     38  O   LIG A   1     -10.318   8.449 127.780  0.00  0.00    -0.491 OA
ATOM     39  C   LIG A   1     -10.771   7.776 126.603  0.00  0.00    +0.277 C 
ENDBRANCH  32  38
ENDBRANCH  28  30
ENDBRANCH  26  29
ENDBRANCH  25  26
ENDBRANCH  24  25
ENDBRANCH  23  24
ENDBRANCH  22  23
ENDBRANCH  21  22
ENDBRANCH   1  21
TORSDOF 28
ENDMDL
MODEL 7
REMARK VINA RESULT:      -5.7      3.799      7.215
REMARK  Name = NuBBE_2423
REMARK  30 active torsions:
REMARK  status: ('A' for Active; 'I' for Inactive)
REMARK    1  A    between atoms: C_1  and  C_30
REMARK    2  A    between atoms: C_2  and  C_3
REMARK    3  A    between atoms: C_3  and  O_5
REMARK    4  A    between atoms: O_5  and  C_6
REMARK    5  A    between atoms: C_6  and  C_7
REMARK    6  A    between atoms: C_7  and  C_8
REMARK    7  A    between atoms: C_8  and  C_9
REMARK    8  A    between atoms: C_9  and  C_10
REMARK    9  A    between atoms: C_10  and  C_11
REMARK   10  A    between atoms: C_11  and  C_12
REMARK   11  A    between atoms: C_12  and  C_13
REMARK   12  A    between atoms: C_13  and  C_14
REMARK   13  A    between atoms: C_14  and  C_15
REMARK   14  A    between atoms: C_15  and  C_16
REMARK   15  A    between atoms: C_16  and  C_17
REMARK   16  A    between atoms: C_17  and  C_18
REMARK   17  A    between atoms: C_18  and  C_19
REMARK   18  A    between atoms: C_19  and  C_20
REMARK   19  A    between atoms: C_20  and  C_21
REMARK   20  A    between atoms: C_21  and  C_22
REMARK   21  A    between atoms: C_22  and  C_23
REMARK   22  A    between atoms: C_23  and  C_24
REMARK   23  A    between atoms: C_24  and  C_25
REMARK   24  A    between atoms: C_25  and  C_26
REMARK   25  A    between atoms: C_26  and  C_27
REMARK   26  A    between atoms: C_27  and  C_28
REMARK   27  A    between atoms: C_28  and  C_29
REMARK   28  A    between atoms: C_32  and  O_33
REMARK   29  A    between atoms: O_33  and  C_34
REMARK   30  A    between atoms: C_35  and  O_38
REMARK                            x       y       z     vdW  Elec       q    Type
REMARK                         _______ _______ _______ _____ _____    ______ ____
ROOT
ATOM      1  C   LIG A   1      -7.299  -2.834 129.085  0.00  0.00    -0.000 C 
ENDROOT
BRANCH   1   2
ATOM      2  C   LIG A   1      -8.629  -3.006 128.323  0.00  0.00    -0.000 C 
BRANCH   2   3
ATOM      3  C   LIG A   1      -8.625  -3.773 126.992  0.00  0.00    -0.000 C 
BRANCH   3   4
ATOM      4  C   LIG A   1      -9.373  -2.961 125.913  0.00  0.00    -0.000 C 
BRANCH   4   5
ATOM      5  C   LIG A   1      -8.957  -3.340 124.489  0.00  0.00    -0.000 C 
BRANCH   5   6
ATOM      6  C   LIG A   1      -8.926  -2.108 123.579  0.00  0.00    -0.000 C 
BRANCH   6   7
ATOM      7  C   LIG A   1      -7.519  -1.807 123.057  0.00  0.00    -0.000 C 
BRANCH   7   8
ATOM      8  C   LIG A   1      -6.458  -2.764 123.623  0.00  0.00    -0.000 C 
BRANCH   8   9
ATOM      9  C   LIG A   1      -5.344  -2.059 124.415  0.00  0.00    -0.000 C 
BRANCH   9  10
ATOM     10  C   LIG A   1      -5.499  -2.254 125.929  0.00  0.00    -0.000 C 
BRANCH  10  11
ATOM     11  C   LIG A   1      -5.604  -0.919 126.691  0.00  0.00    -0.000 C 
BRANCH  11  12
ATOM     12  C   LIG A   1      -5.547   0.283 125.734  0.00  0.00    -0.000 C 
BRANCH  12  13
ATOM     13  C   LIG A   1      -6.870   1.065 125.632  0.00  0.00    -0.000 C 
BRANCH  13  14
ATOM     14  C   LIG A   1      -7.974   0.381 126.460  0.00  0.00    -0.000 C 
BRANCH  14  15
ATOM     15  C   LIG A   1      -8.694   1.337 127.419  0.00  0.00    -0.000 C 
BRANCH  15  16
ATOM     16  C   LIG A   1      -7.695   2.112 128.296  0.00  0.00    -0.000 C 
BRANCH  16  17
ATOM     17  C   LIG A   1      -7.913   1.915 129.804  0.00  0.00    -0.000 C 
BRANCH  17  18
ATOM     18  C   LIG A   1      -8.102   0.443 130.177  0.00  0.00    -0.000 C 
BRANCH  18  19
ATOM     19  C   LIG A   1      -8.565   0.256 131.619  0.00  0.00    -0.003 C 
ATOM     20  C   LIG A   1      -9.674   1.242 131.956  0.00  0.00    +0.004 C 
ENDBRANCH  18  19
ENDBRANCH  17  18
ENDBRANCH  16  17
ENDBRANCH  15  16
ENDBRANCH  14  15
ENDBRANCH  13  14
ENDBRANCH  12  13
ENDBRANCH  11  12
ENDBRANCH  10  11
ENDBRANCH   9  10
ENDBRANCH   8   9
ENDBRANCH   7   8
ENDBRANCH   6   7
ENDBRANCH   5   6
ENDBRANCH   4   5
ENDBRANCH   3   4
ENDBRANCH   2   3
ENDBRANCH   1   2
BRANCH   1  21
ATOM     21  C   LIG A   1      -7.125  -3.630 130.394  0.00  0.00    +0.000 C 
BRANCH  21  22
ATOM     22  C   LIG A   1      -5.819  -4.464 130.403  0.00  0.00    +0.003 C 
BRANCH  22  23
ATOM     23  C   LIG A   1      -5.214  -4.770 131.792  0.00  0.00    +0.041 C 
BRANCH  23  24
ATOM     24  C   LIG A   1      -4.319  -3.672 132.366  0.00  0.00    +0.232 C 
BRANCH  24  25
ATOM     25  O   LIG A   1      -4.201  -2.556 131.458  0.00  0.00    -0.462 OA
BRANCH  25  26
ATOM     26  C   LIG A   1      -4.571  -1.367 131.904  0.00  0.00    +0.332 C 
ATOM     27  O   LIG A   1      -5.190  -1.154 132.949  0.00  0.00    -0.246 OA
BRANCH  26  29
ATOM     28  C   LIG A   1      -4.544   1.017 131.171  0.00  0.00    +0.015 C 
ATOM     29  C   LIG A   1      -4.174  -0.270 131.021  0.00  0.00    +0.092 C 
BRANCH  28  30
ATOM     30  C   LIG A   1      -4.184   2.101 130.239  0.00  0.00    -0.021 A 
ATOM     31  C   LIG A   1      -3.912   3.409 130.671  0.00  0.00    +0.057 A 
ATOM     32  C   LIG A   1      -3.507   4.403 129.776  0.00  0.00    +0.162 A 
ATOM     33  C   LIG A   1      -3.405   4.082 128.419  0.00  0.00    +0.159 A 
ATOM     34  C   LIG A   1      -3.711   2.806 127.960  0.00  0.00    +0.050 A 
ATOM     35  C   LIG A   1      -4.114   1.822 128.868  0.00  0.00    +0.012 A 
BRANCH  33  36
ATOM     36  O   LIG A   1      -3.016   5.011 127.493  0.00  0.00    -0.503 OA
ATOM     37  H   LIG A   1      -2.191   5.401 127.839  0.00  0.00    +0.292 HD
ENDBRANCH  33  36
BRANCH  32  38
ATOM     38  O   LIG A   1      -3.189   5.693 130.132  0.00  0.00    -0.491 OA
ATOM     39  C   LIG A   1      -4.286   6.489 130.586  0.00  0.00    +0.277 C 
ENDBRANCH  32  38
ENDBRANCH  28  30
ENDBRANCH  26  29
ENDBRANCH  25  26
ENDBRANCH  24  25
ENDBRANCH  23  24
ENDBRANCH  22  23
ENDBRANCH  21  22
ENDBRANCH   1  21
TORSDOF 28
ENDMDL
MODEL 8
REMARK VINA RESULT:      -5.7      3.630      7.416
REMARK  Name = NuBBE_2423
REMARK  30 active torsions:
REMARK  status: ('A' for Active; 'I' for Inactive)
REMARK    1  A    between atoms: C_1  and  C_30
REMARK    2  A    between atoms: C_2  and  C_3
REMARK    3  A    between atoms: C_3  and  O_5
REMARK    4  A    between atoms: O_5  and  C_6
REMARK    5  A    between atoms: C_6  and  C_7
REMARK    6  A    between atoms: C_7  and  C_8
REMARK    7  A    between atoms: C_8  and  C_9
REMARK    8  A    between atoms: C_9  and  C_10
REMARK    9  A    between atoms: C_10  and  C_11
REMARK   10  A    between atoms: C_11  and  C_12
REMARK   11  A    between atoms: C_12  and  C_13
REMARK   12  A    between atoms: C_13  and  C_14
REMARK   13  A    between atoms: C_14  and  C_15
REMARK   14  A    between atoms: C_15  and  C_16
REMARK   15  A    between atoms: C_16  and  C_17
REMARK   16  A    between atoms: C_17  and  C_18
REMARK   17  A    between atoms: C_18  and  C_19
REMARK   18  A    between atoms: C_19  and  C_20
REMARK   19  A    between atoms: C_20  and  C_21
REMARK   20  A    between atoms: C_21  and  C_22
REMARK   21  A    between atoms: C_22  and  C_23
REMARK   22  A    between atoms: C_23  and  C_24
REMARK   23  A    between atoms: C_24  and  C_25
REMARK   24  A    between atoms: C_25  and  C_26
REMARK   25  A    between atoms: C_26  and  C_27
REMARK   26  A    between atoms: C_27  and  C_28
REMARK   27  A    between atoms: C_28  and  C_29
REMARK   28  A    between atoms: C_32  and  O_33
REMARK   29  A    between atoms: O_33  and  C_34
REMARK   30  A    between atoms: C_35  and  O_38
REMARK                            x       y       z     vdW  Elec       q    Type
REMARK                         _______ _______ _______ _____ _____    ______ ____
ROOT
ATOM      1  C   LIG A   1      -8.800  -3.685 128.105  0.00  0.00    -0.000 C 
ENDROOT
BRANCH   1   2
ATOM      2  C   LIG A   1      -8.408  -3.405 126.639  0.00  0.00    -0.000 C 
BRANCH   2   3
ATOM      3  C   LIG A   1      -9.508  -3.002 125.644  0.00  0.00    -0.000 C 
BRANCH   3   4
ATOM      4  C   LIG A   1      -9.092  -3.395 124.210  0.00  0.00    -0.000 C 
BRANCH   4   5
ATOM      5  C   LIG A   1      -9.015  -2.193 123.264  0.00  0.00    -0.000 C 
BRANCH   5   6
ATOM      6  C   LIG A   1      -7.572  -1.934 122.822  0.00  0.00    -0.000 C 
BRANCH   6   7
ATOM      7  C   LIG A   1      -6.589  -2.934 123.435  0.00  0.00    -0.000 C 
BRANCH   7   8
ATOM      8  C   LIG A   1      -5.362  -2.254 124.062  0.00  0.00    -0.000 C 
BRANCH   8   9
ATOM      9  C   LIG A   1      -5.575  -1.803 125.517  0.00  0.00    -0.000 C 
BRANCH   9  10
ATOM     10  C   LIG A   1      -6.225  -0.415 125.603  0.00  0.00    -0.000 C 
BRANCH  10  11
ATOM     11  C   LIG A   1      -6.671  -0.059 127.035  0.00  0.00    -0.000 C 
BRANCH  11  12
ATOM     12  C   LIG A   1      -8.087   0.540 127.051  0.00  0.00    -0.000 C 
BRANCH  12  13
ATOM     13  C   LIG A   1      -8.728   0.672 125.657  0.00  0.00    -0.000 C 
BRANCH  13  14
ATOM     14  C   LIG A   1      -8.866   2.153 125.258  0.00  0.00    -0.000 C 
BRANCH  14  15
ATOM     15  C   LIG A   1      -7.559   2.943 125.397  0.00  0.00    -0.000 C 
BRANCH  15  16
ATOM     16  C   LIG A   1      -7.580   3.851 126.639  0.00  0.00    -0.000 C 
BRANCH  16  17
ATOM     17  C   LIG A   1      -6.218   3.981 127.336  0.00  0.00    -0.000 C 
BRANCH  17  18
ATOM     18  C   LIG A   1      -5.198   4.737 126.482  0.00  0.00    -0.000 C 
BRANCH  18  19
ATOM     19  C   LIG A   1      -4.118   3.824 125.909  0.00  0.00    -0.003 C 
ATOM     20  C   LIG A   1      -4.044   2.524 126.697  0.00  0.00    +0.004 C 
ENDBRANCH  18  19
ENDBRANCH  17  18
ENDBRANCH  16  17
ENDBRANCH  15  16
ENDBRANCH  14  15
ENDBRANCH  13  14
ENDBRANCH  12  13
ENDBRANCH  11  12
ENDBRANCH  10  11
ENDBRANCH   9  10
ENDBRANCH   8   9
ENDBRANCH   7   8
ENDBRANCH   6   7
ENDBRANCH   5   6
ENDBRANCH   4   5
ENDBRANCH   3   4
ENDBRANCH   2   3
ENDBRANCH   1   2
BRANCH   1  21
ATOM     21  C   LIG A   1      -8.209  -2.756 129.185  0.00  0.00    +0.000 C 
BRANCH  21  22
ATOM     22  C   LIG A   1      -6.919  -3.339 129.816  0.00  0.00    +0.003 C 
BRANCH  22  23
ATOM     23  C   LIG A   1      -5.589  -2.691 129.371  0.00  0.00    +0.041 C 
BRANCH  23  24
ATOM     24  C   LIG A   1      -4.922  -1.795 130.414  0.00  0.00    +0.232 C 
BRANCH  24  25
ATOM     25  O   LIG A   1      -4.841  -0.425 129.963  0.00  0.00    -0.462 OA
BRANCH  25  26
ATOM     26  C   LIG A   1      -4.466   0.486 130.846  0.00  0.00    +0.332 C 
ATOM     27  O   LIG A   1      -4.091   0.255 131.998  0.00  0.00    -0.246 OA
BRANCH  26  29
ATOM     28  C   LIG A   1      -3.797   2.887 130.777  0.00  0.00    +0.015 C 
ATOM     29  C   LIG A   1      -4.535   1.853 130.330  0.00  0.00    +0.092 C 
BRANCH  28  30
ATOM     30  C   LIG A   1      -3.921   4.272 130.287  0.00  0.00    -0.021 A 
ATOM     31  C   LIG A   1      -5.011   5.094 130.613  0.00  0.00    +0.057 A 
ATOM     32  C   LIG A   1      -5.073   6.425 130.191  0.00  0.00    +0.162 A 
ATOM     33  C   LIG A   1      -4.034   6.927 129.402  0.00  0.00    +0.159 A 
ATOM     34  C   LIG A   1      -2.964   6.121 129.030  0.00  0.00    +0.050 A 
ATOM     35  C   LIG A   1      -2.916   4.792 129.460  0.00  0.00    +0.012 A 
BRANCH  33  36
ATOM     36  O   LIG A   1      -4.036   8.221 128.956  0.00  0.00    -0.503 OA
ATOM     37  H   LIG A   1      -3.945   8.167 127.986  0.00  0.00    +0.292 HD
ENDBRANCH  33  36
BRANCH  32  38
ATOM     38  O   LIG A   1      -6.090   7.297 130.502  0.00  0.00    -0.491 OA
ATOM     39  C   LIG A   1      -7.164   6.736 131.261  0.00  0.00    +0.277 C 
ENDBRANCH  32  38
ENDBRANCH  28  30
ENDBRANCH  26  29
ENDBRANCH  25  26
ENDBRANCH  24  25
ENDBRANCH  23  24
ENDBRANCH  22  23
ENDBRANCH  21  22
ENDBRANCH   1  21
TORSDOF 28
ENDMDL
MODEL 9
REMARK VINA RESULT:      -5.7      1.499      4.985
REMARK  Name = NuBBE_2423
REMARK  30 active torsions:
REMARK  status: ('A' for Active; 'I' for Inactive)
REMARK    1  A    between atoms: C_1  and  C_30
REMARK    2  A    between atoms: C_2  and  C_3
REMARK    3  A    between atoms: C_3  and  O_5
REMARK    4  A    between atoms: O_5  and  C_6
REMARK    5  A    between atoms: C_6  and  C_7
REMARK    6  A    between atoms: C_7  and  C_8
REMARK    7  A    between atoms: C_8  and  C_9
REMARK    8  A    between atoms: C_9  and  C_10
REMARK    9  A    between atoms: C_10  and  C_11
REMARK   10  A    between atoms: C_11  and  C_12
REMARK   11  A    between atoms: C_12  and  C_13
REMARK   12  A    between atoms: C_13  and  C_14
REMARK   13  A    between atoms: C_14  and  C_15
REMARK   14  A    between atoms: C_15  and  C_16
REMARK   15  A    between atoms: C_16  and  C_17
REMARK   16  A    between atoms: C_17  and  C_18
REMARK   17  A    between atoms: C_18  and  C_19
REMARK   18  A    between atoms: C_19  and  C_20
REMARK   19  A    between atoms: C_20  and  C_21
REMARK   20  A    between atoms: C_21  and  C_22
REMARK   21  A    between atoms: C_22  and  C_23
REMARK   22  A    between atoms: C_23  and  C_24
REMARK   23  A    between atoms: C_24  and  C_25
REMARK   24  A    between atoms: C_25  and  C_26
REMARK   25  A    between atoms: C_26  and  C_27
REMARK   26  A    between atoms: C_27  and  C_28
REMARK   27  A    between atoms: C_28  and  C_29
REMARK   28  A    between atoms: C_32  and  O_33
REMARK   29  A    between atoms: O_33  and  C_34
REMARK   30  A    between atoms: C_35  and  O_38
REMARK                            x       y       z     vdW  Elec       q    Type
REMARK                         _______ _______ _______ _____ _____    ______ ____
ROOT
ATOM      1  C   LIG A   1      -8.919  -3.118 124.478  0.00  0.00    -0.000 C 
ENDROOT
BRANCH   1   2
ATOM      2  C   LIG A   1      -8.741  -2.169 123.274  0.00  0.00    -0.000 C 
BRANCH   2   3
ATOM      3  C   LIG A   1      -7.355  -2.056 122.622  0.00  0.00    -0.000 C 
BRANCH   3   4
ATOM      4  C   LIG A   1      -6.473  -1.074 123.424  0.00  0.00    -0.000 C 
BRANCH   4   5
ATOM      5  C   LIG A   1      -5.472  -1.786 124.339  0.00  0.00    -0.000 C 
BRANCH   5   6
ATOM      6  C   LIG A   1      -5.554  -1.244 125.769  0.00  0.00    -0.000 C 
BRANCH   6   7
ATOM      7  C   LIG A   1      -5.571  -2.363 126.814  0.00  0.00    -0.000 C 
BRANCH   7   8
ATOM      8  C   LIG A   1      -4.843  -1.975 128.111  0.00  0.00    -0.000 C 
BRANCH   8   9
ATOM      9  C   LIG A   1      -4.671  -3.141 129.099  0.00  0.00    -0.000 C 
BRANCH   9  10
ATOM     10  C   LIG A   1      -5.777  -3.165 130.164  0.00  0.00    -0.000 C 
BRANCH  10  11
ATOM     11  C   LIG A   1      -7.085  -3.792 129.644  0.00  0.00    -0.000 C 
BRANCH  11  12
ATOM     12  C   LIG A   1      -8.212  -2.750 129.550  0.00  0.00    -0.000 C 
BRANCH  12  13
ATOM     13  C   LIG A   1      -7.934  -1.455 130.337  0.00  0.00    -0.000 C 
BRANCH  13  14
ATOM     14  C   LIG A   1      -7.708  -0.271 129.379  0.00  0.00    -0.000 C 
BRANCH  14  15
ATOM     15  C   LIG A   1      -7.000   0.918 130.039  0.00  0.00    -0.000 C 
BRANCH  15  16
ATOM     16  C   LIG A   1      -5.914   1.506 129.122  0.00  0.00    -0.000 C 
BRANCH  16  17
ATOM     17  C   LIG A   1      -5.353   2.850 129.609  0.00  0.00    -0.000 C 
BRANCH  17  18
ATOM     18  C   LIG A   1      -4.756   3.679 128.469  0.00  0.00    -0.000 C 
BRANCH  18  19
ATOM     19  C   LIG A   1      -3.368   3.198 128.055  0.00  0.00    -0.003 C 
ATOM     20  C   LIG A   1      -2.422   4.378 127.887  0.00  0.00    +0.004 C 
ENDBRANCH  18  19
ENDBRANCH  17  18
ENDBRANCH  16  17
ENDBRANCH  15  16
ENDBRANCH  14  15
ENDBRANCH  13  14
ENDBRANCH  12  13
ENDBRANCH  11  12
ENDBRANCH  10  11
ENDBRANCH   9  10
ENDBRANCH   8   9
ENDBRANCH   7   8
ENDBRANCH   6   7
ENDBRANCH   5   6
ENDBRANCH   4   5
ENDBRANCH   3   4
ENDBRANCH   2   3
ENDBRANCH   1   2
BRANCH   1  21
ATOM     21  C   LIG A   1      -9.395  -2.495 125.806  0.00  0.00    +0.000 C 
BRANCH  21  22
ATOM     22  C   LIG A   1      -8.848  -1.059 126.009  0.00  0.00    +0.003 C 
BRANCH  22  23
ATOM     23  C   LIG A   1      -9.873   0.088 125.868  0.00  0.00    +0.041 C 
BRANCH  23  24
ATOM     24  C   LIG A   1      -9.524   1.146 124.821  0.00  0.00    +0.232 C 
BRANCH  24  25
ATOM     25  O   LIG A   1      -9.019   2.352 125.436  0.00  0.00    -0.462 OA
BRANCH  25  26
ATOM     26  C   LIG A   1      -7.749   2.657 125.225  0.00  0.00    +0.332 C 
ATOM     27  O   LIG A   1      -6.816   2.411 125.993  0.00  0.00    -0.246 OA
BRANCH  26  29
ATOM     28  C   LIG A   1      -6.824   2.842 122.916  0.00  0.00    +0.015 C 
ATOM     29  C   LIG A   1      -7.523   3.344 123.953  0.00  0.00    +0.092 C 
BRANCH  28  30
ATOM     30  C   LIG A   1      -6.556   3.571 121.663  0.00  0.00    -0.021 A 
ATOM     31  C   LIG A   1      -7.506   3.683 120.636  0.00  0.00    +0.057 A 
ATOM     32  C   LIG A   1      -7.252   4.436 119.486  0.00  0.00    +0.162 A 
ATOM     33  C   LIG A   1      -6.008   5.060 119.354  0.00  0.00    +0.159 A 
ATOM     34  C   LIG A   1      -5.034   4.929 120.338  0.00  0.00    +0.050 A 
ATOM     35  C   LIG A   1      -5.303   4.173 121.482  0.00  0.00    +0.012 A 
BRANCH  33  36
ATOM     36  O   LIG A   1      -5.699   5.809 118.252  0.00  0.00    -0.503 OA
ATOM     37  H   LIG A   1      -6.242   6.617 118.320  0.00  0.00    +0.292 HD
ENDBRANCH  33  36
BRANCH  32  38
ATOM     38  O   LIG A   1      -8.148   4.619 118.459  0.00  0.00    -0.491 OA
ATOM     39  C   LIG A   1      -9.517   4.374 118.791  0.00  0.00    +0.277 C 
ENDBRANCH  32  38
ENDBRANCH  28  30
ENDBRANCH  26  29
ENDBRANCH  25  26
ENDBRANCH  24  25
ENDBRANCH  23  24
ENDBRANCH  22  23
ENDBRANCH  21  22
ENDBRANCH   1  21
TORSDOF 28
ENDMDL
