MODEL 1
REMARK VINA RESULT:      -6.7      0.000      0.000
REMARK  Name = NuBBE_1544
REMARK  7 active torsions:
REMARK  status: ('A' for Active; 'I' for Inactive)
REMARK    1  A    between atoms: C_1  and  C_2
REMARK    2  A    between atoms: C_8  and  C_9
REMARK    3  A    between atoms: C_8  and  C_10
REMARK    4  A    between atoms: C_10  and  C_11
REMARK    5  A    between atoms: C_11  and  C_12
REMARK    6  A    between atoms: C_13  and  C_14
REMARK    7  A    between atoms: C_13  and  C_15
REMARK                            x       y       z     vdW  Elec       q    Type
REMARK                         _______ _______ _______ _____ _____    ______ ____
ROOT
ATOM      1  C   LIG A   1      -7.537  -2.973 129.794  0.00  0.00    +0.038 C 
ATOM      2  C   LIG A   1      -8.030  -2.775 128.391  0.00  0.00    -0.076 C 
ATOM      3  C   LIG A   1      -8.874  -3.631 127.792  0.00  0.00    -0.024 C 
ATOM      4  C   LIG A   1      -9.376  -3.499 126.377  0.00  0.00    +0.057 C 
ATOM      5  C   LIG A   1      -8.902  -2.257 125.634  0.00  0.00    -0.067 C 
ATOM      6  C   LIG A   1      -8.501  -1.116 126.551  0.00  0.00    +0.035 C 
ATOM      7  C   LIG A   1      -7.538  -1.553 127.660  0.00  0.00    +0.034 C 
ATOM      8  C   LIG A   1      -8.907  -2.174 124.275  0.00  0.00    -0.073 C 
ATOM      9  C   LIG A   1      -9.388  -3.288 123.373  0.00  0.00    +0.039 C 
ENDROOT
BRANCH   8  10
ATOM     10  C   LIG A   1      -8.466  -0.944 123.492  0.00  0.00    +0.034 C 
BRANCH  10  11
ATOM     11  C   LIG A   1      -6.944  -0.757 123.533  0.00  0.00    +0.031 C 
BRANCH  11  12
ATOM     12  C   LIG A   1      -6.206  -2.017 123.166  0.00  0.00    -0.028 C 
ATOM     13  C   LIG A   1      -5.447  -2.781 123.974  0.00  0.00    -0.080 C 
ATOM     14  C   LIG A   1      -5.247  -2.538 125.445  0.00  0.00    +0.038 C 
ATOM     15  C   LIG A   1      -4.729  -3.993 123.442  0.00  0.00    +0.038 C 
ENDBRANCH  11  12
ENDBRANCH  10  11
ENDBRANCH   8  10
TORSDOF 3
ENDMDL
MODEL 2
REMARK VINA RESULT:      -6.7      1.838      3.192
REMARK  Name = NuBBE_1544
REMARK  7 active torsions:
REMARK  status: ('A' for Active; 'I' for Inactive)
REMARK    1  A    between atoms: C_1  and  C_2
REMARK    2  A    between atoms: C_8  and  C_9
REMARK    3  A    between atoms: C_8  and  C_10
REMARK    4  A    between atoms: C_10  and  C_11
REMARK    5  A    between atoms: C_11  and  C_12
REMARK    6  A    between atoms: C_13  and  C_14
REMARK    7  A    between atoms: C_13  and  C_15
REMARK                            x       y       z     vdW  Elec       q    Type
REMARK                         _______ _______ _______ _____ _____    ______ ____
ROOT
ATOM      1  C   LIG A   1      -3.217  -3.138 129.602  0.00  0.00    +0.038 C 
ATOM      2  C   LIG A   1      -4.656  -3.087 129.175  0.00  0.00    -0.076 C 
ATOM      3  C   LIG A   1      -5.645  -3.638 129.896  0.00  0.00    -0.024 C 
ATOM      4  C   LIG A   1      -7.099  -3.646 129.501  0.00  0.00    +0.057 C 
ATOM      5  C   LIG A   1      -7.423  -2.914 128.204  0.00  0.00    -0.067 C 
ATOM      6  C   LIG A   1      -6.399  -1.857 127.832  0.00  0.00    +0.035 C 
ATOM      7  C   LIG A   1      -4.959  -2.379 127.881  0.00  0.00    +0.034 C 
ATOM      8  C   LIG A   1      -8.560  -3.154 127.496  0.00  0.00    -0.073 C 
ATOM      9  C   LIG A   1      -9.614  -4.151 127.923  0.00  0.00    +0.039 C 
ENDROOT
BRANCH   8  10
ATOM     10  C   LIG A   1      -8.935  -2.430 126.210  0.00  0.00    +0.034 C 
BRANCH  10  11
ATOM     11  C   LIG A   1      -8.848  -3.354 124.988  0.00  0.00    +0.031 C 
BRANCH  11  12
ATOM     12  C   LIG A   1      -7.443  -3.834 124.738  0.00  0.00    -0.028 C 
ATOM     13  C   LIG A   1      -6.421  -3.127 124.222  0.00  0.00    -0.080 C 
ATOM     14  C   LIG A   1      -6.486  -1.670 123.851  0.00  0.00    +0.038 C 
ATOM     15  C   LIG A   1      -5.078  -3.767 123.985  0.00  0.00    +0.038 C 
ENDBRANCH  11  12
ENDBRANCH  10  11
ENDBRANCH   8  10
TORSDOF 3
ENDMDL
MODEL 3
REMARK VINA RESULT:      -6.4      2.548      4.903
REMARK  Name = NuBBE_1544
REMARK  7 active torsions:
REMARK  status: ('A' for Active; 'I' for Inactive)
REMARK    1  A    between atoms: C_1  and  C_2
REMARK    2  A    between atoms: C_8  and  C_9
REMARK    3  A    between atoms: C_8  and  C_10
REMARK    4  A    between atoms: C_10  and  C_11
REMARK    5  A    between atoms: C_11  and  C_12
REMARK    6  A    between atoms: C_13  and  C_14
REMARK    7  A    between atoms: C_13  and  C_15
REMARK                            x       y       z     vdW  Elec       q    Type
REMARK                         _______ _______ _______ _____ _____    ______ ____
ROOT
ATOM      1  C   LIG A   1      -4.495  -3.860 123.546  0.00  0.00    +0.038 C 
ATOM      2  C   LIG A   1      -5.473  -2.763 123.855  0.00  0.00    -0.076 C 
ATOM      3  C   LIG A   1      -5.708  -2.333 125.105  0.00  0.00    -0.024 C 
ATOM      4  C   LIG A   1      -6.700  -1.261 125.476  0.00  0.00    +0.057 C 
ATOM      5  C   LIG A   1      -7.425  -0.614 124.303  0.00  0.00    -0.067 C 
ATOM      6  C   LIG A   1      -6.670  -0.720 122.990  0.00  0.00    +0.035 C 
ATOM      7  C   LIG A   1      -6.197  -2.146 122.688  0.00  0.00    +0.034 C 
ATOM      8  C   LIG A   1      -8.604   0.049 124.450  0.00  0.00    -0.073 C 
ATOM      9  C   LIG A   1      -9.304   0.221 125.780  0.00  0.00    +0.039 C 
ENDROOT
BRANCH   8  10
ATOM     10  C   LIG A   1      -9.350   0.732 123.311  0.00  0.00    +0.034 C 
BRANCH  10  11
ATOM     11  C   LIG A   1      -9.238   2.259 123.389  0.00  0.00    +0.031 C 
BRANCH  11  12
ATOM     12  C   LIG A   1      -8.146   2.795 122.502  0.00  0.00    -0.028 C 
ATOM     13  C   LIG A   1      -6.893   3.129 122.864  0.00  0.00    -0.080 C 
ATOM     14  C   LIG A   1      -6.326   2.960 124.247  0.00  0.00    +0.038 C 
ATOM     15  C   LIG A   1      -5.924   3.702 121.862  0.00  0.00    +0.038 C 
ENDBRANCH  11  12
ENDBRANCH  10  11
ENDBRANCH   8  10
TORSDOF 3
ENDMDL
MODEL 4
REMARK VINA RESULT:      -6.1      8.656     11.099
REMARK  Name = NuBBE_1544
REMARK  7 active torsions:
REMARK  status: ('A' for Active; 'I' for Inactive)
REMARK    1  A    between atoms: C_1  and  C_2
REMARK    2  A    between atoms: C_8  and  C_9
REMARK    3  A    between atoms: C_8  and  C_10
REMARK    4  A    between atoms: C_10  and  C_11
REMARK    5  A    between atoms: C_11  and  C_12
REMARK    6  A    between atoms: C_13  and  C_14
REMARK    7  A    between atoms: C_13  and  C_15
REMARK                            x       y       z     vdW  Elec       q    Type
REMARK                         _______ _______ _______ _____ _____    ______ ____
ROOT
ATOM      1  C   LIG A   1     -13.606   7.583 127.365  0.00  0.00    +0.038 C 
ATOM      2  C   LIG A   1     -12.520   7.466 128.395  0.00  0.00    -0.076 C 
ATOM      3  C   LIG A   1     -11.306   8.017 128.234  0.00  0.00    -0.024 C 
ATOM      4  C   LIG A   1     -10.171   7.905 129.218  0.00  0.00    +0.057 C 
ATOM      5  C   LIG A   1     -10.494   7.143 130.497  0.00  0.00    -0.067 C 
ATOM      6  C   LIG A   1     -11.974   7.120 130.832  0.00  0.00    +0.035 C 
ATOM      7  C   LIG A   1     -12.846   6.694 129.646  0.00  0.00    +0.034 C 
ATOM      8  C   LIG A   1      -9.527   6.600 131.286  0.00  0.00    -0.073 C 
ATOM      9  C   LIG A   1      -8.049   6.704 130.986  0.00  0.00    +0.039 C 
ENDROOT
BRANCH   8  10
ATOM     10  C   LIG A   1      -9.803   5.854 132.585  0.00  0.00    +0.034 C 
BRANCH  10  11
ATOM     11  C   LIG A   1      -8.672   4.878 132.934  0.00  0.00    +0.031 C 
BRANCH  11  12
ATOM     12  C   LIG A   1      -9.131   3.444 132.911  0.00  0.00    -0.028 C 
ATOM     13  C   LIG A   1      -9.290   2.658 131.830  0.00  0.00    -0.080 C 
ATOM     14  C   LIG A   1      -8.966   3.065 130.418  0.00  0.00    +0.038 C 
ATOM     15  C   LIG A   1      -9.808   1.250 131.966  0.00  0.00    +0.038 C 
ENDBRANCH  11  12
ENDBRANCH  10  11
ENDBRANCH   8  10
TORSDOF 3
ENDMDL
MODEL 5
REMARK VINA RESULT:      -6.0      1.930      3.606
REMARK  Name = NuBBE_1544
REMARK  7 active torsions:
REMARK  status: ('A' for Active; 'I' for Inactive)
REMARK    1  A    between atoms: C_1  and  C_2
REMARK    2  A    between atoms: C_8  and  C_9
REMARK    3  A    between atoms: C_8  and  C_10
REMARK    4  A    between atoms: C_10  and  C_11
REMARK    5  A    between atoms: C_11  and  C_12
REMARK    6  A    between atoms: C_13  and  C_14
REMARK    7  A    between atoms: C_13  and  C_15
REMARK                            x       y       z     vdW  Elec       q    Type
REMARK                         _______ _______ _______ _____ _____    ______ ____
ROOT
ATOM      1  C   LIG A   1      -4.620   1.914 126.362  0.00  0.00    +0.038 C 
ATOM      2  C   LIG A   1      -5.656   0.865 126.644  0.00  0.00    -0.076 C 
ATOM      3  C   LIG A   1      -5.802   0.297 127.852  0.00  0.00    -0.024 C 
ATOM      4  C   LIG A   1      -6.800  -0.781 128.184  0.00  0.00    +0.057 C 
ATOM      5  C   LIG A   1      -7.725  -1.183 127.041  0.00  0.00    -0.067 C 
ATOM      6  C   LIG A   1      -7.889  -0.104 125.985  0.00  0.00    +0.035 C 
ATOM      7  C   LIG A   1      -6.550   0.463 125.501  0.00  0.00    +0.034 C 
ATOM      8  C   LIG A   1      -8.384  -2.373 127.021  0.00  0.00    -0.073 C 
ATOM      9  C   LIG A   1      -8.278  -3.405 128.121  0.00  0.00    +0.039 C 
ENDROOT
BRANCH   8  10
ATOM     10  C   LIG A   1      -9.336  -2.805 125.912  0.00  0.00    +0.034 C 
BRANCH  10  11
ATOM     11  C   LIG A   1      -8.654  -3.742 124.907  0.00  0.00    +0.031 C 
BRANCH  11  12
ATOM     12  C   LIG A   1      -8.023  -2.988 123.766  0.00  0.00    -0.028 C 
ATOM     13  C   LIG A   1      -6.722  -2.673 123.620  0.00  0.00    -0.080 C 
ATOM     14  C   LIG A   1      -5.628  -3.084 124.566  0.00  0.00    +0.038 C 
ATOM     15  C   LIG A   1      -6.249  -1.866 122.439  0.00  0.00    +0.038 C 
ENDBRANCH  11  12
ENDBRANCH  10  11
ENDBRANCH   8  10
TORSDOF 3
ENDMDL
MODEL 6
REMARK VINA RESULT:      -6.0      1.340      5.092
REMARK  Name = NuBBE_1544
REMARK  7 active torsions:
REMARK  status: ('A' for Active; 'I' for Inactive)
REMARK    1  A    between atoms: C_1  and  C_2
REMARK    2  A    between atoms: C_8  and  C_9
REMARK    3  A    between atoms: C_8  and  C_10
REMARK    4  A    between atoms: C_10  and  C_11
REMARK    5  A    between atoms: C_11  and  C_12
REMARK    6  A    between atoms: C_13  and  C_14
REMARK    7  A    between atoms: C_13  and  C_15
REMARK                            x       y       z     vdW  Elec       q    Type
REMARK                         _______ _______ _______ _____ _____    ______ ____
ROOT
ATOM      1  C   LIG A   1      -3.794  -4.451 123.324  0.00  0.00    +0.038 C 
ATOM      2  C   LIG A   1      -4.994  -3.741 123.881  0.00  0.00    -0.076 C 
ATOM      3  C   LIG A   1      -5.118  -2.405 123.864  0.00  0.00    -0.024 C 
ATOM      4  C   LIG A   1      -6.283  -1.639 124.436  0.00  0.00    +0.057 C 
ATOM      5  C   LIG A   1      -7.400  -2.497 125.019  0.00  0.00    -0.067 C 
ATOM      6  C   LIG A   1      -7.446  -3.903 124.448  0.00  0.00    +0.035 C 
ATOM      7  C   LIG A   1      -6.081  -4.600 124.472  0.00  0.00    +0.034 C 
ATOM      8  C   LIG A   1      -8.301  -2.010 125.915  0.00  0.00    -0.073 C 
ATOM      9  C   LIG A   1      -8.296  -0.582 126.412  0.00  0.00    +0.039 C 
ENDROOT
BRANCH   8  10
ATOM     10  C   LIG A   1      -9.447  -2.824 126.503  0.00  0.00    +0.034 C 
BRANCH  10  11
ATOM     11  C   LIG A   1      -8.940  -3.927 127.441  0.00  0.00    +0.031 C 
BRANCH  11  12
ATOM     12  C   LIG A   1      -8.741  -3.430 128.848  0.00  0.00    -0.028 C 
ATOM     13  C   LIG A   1      -7.591  -3.009 129.407  0.00  0.00    -0.080 C 
ATOM     14  C   LIG A   1      -6.276  -2.898 128.685  0.00  0.00    +0.038 C 
ATOM     15  C   LIG A   1      -7.543  -2.585 130.852  0.00  0.00    +0.038 C 
ENDBRANCH  11  12
ENDBRANCH  10  11
ENDBRANCH   8  10
TORSDOF 3
ENDMDL
MODEL 7
REMARK VINA RESULT:      -6.0     10.188     11.592
REMARK  Name = NuBBE_1544
REMARK  7 active torsions:
REMARK  status: ('A' for Active; 'I' for Inactive)
REMARK    1  A    between atoms: C_1  and  C_2
REMARK    2  A    between atoms: C_8  and  C_9
REMARK    3  A    between atoms: C_8  and  C_10
REMARK    4  A    between atoms: C_10  and  C_11
REMARK    5  A    between atoms: C_11  and  C_12
REMARK    6  A    between atoms: C_13  and  C_14
REMARK    7  A    between atoms: C_13  and  C_15
REMARK                            x       y       z     vdW  Elec       q    Type
REMARK                         _______ _______ _______ _____ _____    ______ ____
ROOT
ATOM      1  C   LIG A   1     -12.999   9.096 128.612  0.00  0.00    +0.038 C 
ATOM      2  C   LIG A   1     -12.051   8.217 129.376  0.00  0.00    -0.076 C 
ATOM      3  C   LIG A   1     -12.383   7.632 130.538  0.00  0.00    -0.024 C 
ATOM      4  C   LIG A   1     -11.464   6.768 131.362  0.00  0.00    +0.057 C 
ATOM      5  C   LIG A   1     -10.085   6.530 130.761  0.00  0.00    -0.067 C 
ATOM      6  C   LIG A   1     -10.043   6.697 129.252  0.00  0.00    +0.035 C 
ATOM      7  C   LIG A   1     -10.684   8.007 128.780  0.00  0.00    +0.034 C 
ATOM      8  C   LIG A   1      -9.019   6.141 131.512  0.00  0.00    -0.073 C 
ATOM      9  C   LIG A   1      -9.094   5.896 133.003  0.00  0.00    +0.039 C 
ENDROOT
BRANCH   8  10
ATOM     10  C   LIG A   1      -7.630   5.869 130.949  0.00  0.00    +0.034 C 
BRANCH  10  11
ATOM     11  C   LIG A   1      -6.722   7.102 131.048  0.00  0.00    +0.031 C 
BRANCH  11  12
ATOM     12  C   LIG A   1      -5.317   6.741 131.452  0.00  0.00    -0.028 C 
ATOM     13  C   LIG A   1      -4.173   7.262 130.971  0.00  0.00    -0.080 C 
ATOM     14  C   LIG A   1      -4.095   8.373 129.960  0.00  0.00    +0.038 C 
ATOM     15  C   LIG A   1      -2.834   6.759 131.443  0.00  0.00    +0.038 C 
ENDBRANCH  11  12
ENDBRANCH  10  11
ENDBRANCH   8  10
TORSDOF 3
ENDMDL
MODEL 8
REMARK VINA RESULT:      -6.0      8.636     10.750
REMARK  Name = NuBBE_1544
REMARK  7 active torsions:
REMARK  status: ('A' for Active; 'I' for Inactive)
REMARK    1  A    between atoms: C_1  and  C_2
REMARK    2  A    between atoms: C_8  and  C_9
REMARK    3  A    between atoms: C_8  and  C_10
REMARK    4  A    between atoms: C_10  and  C_11
REMARK    5  A    between atoms: C_11  and  C_12
REMARK    6  A    between atoms: C_13  and  C_14
REMARK    7  A    between atoms: C_13  and  C_15
REMARK                            x       y       z     vdW  Elec       q    Type
REMARK                         _______ _______ _______ _____ _____    ______ ____
ROOT
ATOM      1  C   LIG A   1     -13.362   9.080 128.481  0.00  0.00    +0.038 C 
ATOM      2  C   LIG A   1     -12.359   8.273 129.254  0.00  0.00    -0.076 C 
ATOM      3  C   LIG A   1     -12.693   7.537 130.326  0.00  0.00    -0.024 C 
ATOM      4  C   LIG A   1     -11.725   6.735 131.157  0.00  0.00    +0.057 C 
ATOM      5  C   LIG A   1     -10.281   6.754 130.670  0.00  0.00    -0.067 C 
ATOM      6  C   LIG A   1     -10.143   7.071 129.192  0.00  0.00    +0.035 C 
ATOM      7  C   LIG A   1     -10.932   8.317 128.774  0.00  0.00    +0.034 C 
ATOM      8  C   LIG A   1      -9.234   6.448 131.483  0.00  0.00    -0.073 C 
ATOM      9  C   LIG A   1      -9.391   6.051 132.934  0.00  0.00    +0.039 C 
ENDROOT
BRANCH   8  10
ATOM     10  C   LIG A   1      -7.778   6.431 131.032  0.00  0.00    +0.034 C 
BRANCH  10  11
ATOM     11  C   LIG A   1      -7.158   5.034 131.160  0.00  0.00    +0.031 C 
BRANCH  11  12
ATOM     12  C   LIG A   1      -7.539   4.136 130.012  0.00  0.00    -0.028 C 
ATOM     13  C   LIG A   1      -8.432   3.129 130.028  0.00  0.00    -0.080 C 
ATOM     14  C   LIG A   1      -9.280   2.753 131.212  0.00  0.00    +0.038 C 
ATOM     15  C   LIG A   1      -8.668   2.285 128.803  0.00  0.00    +0.038 C 
ENDBRANCH  11  12
ENDBRANCH  10  11
ENDBRANCH   8  10
TORSDOF 3
ENDMDL
MODEL 9
REMARK VINA RESULT:      -5.9      1.841      4.409
REMARK  Name = NuBBE_1544
REMARK  7 active torsions:
REMARK  status: ('A' for Active; 'I' for Inactive)
REMARK    1  A    between atoms: C_1  and  C_2
REMARK    2  A    between atoms: C_8  and  C_9
REMARK    3  A    between atoms: C_8  and  C_10
REMARK    4  A    between atoms: C_10  and  C_11
REMARK    5  A    between atoms: C_11  and  C_12
REMARK    6  A    between atoms: C_13  and  C_14
REMARK    7  A    between atoms: C_13  and  C_15
REMARK                            x       y       z     vdW  Elec       q    Type
REMARK                         _______ _______ _______ _____ _____    ______ ____
ROOT
ATOM      1  C   LIG A   1      -4.166  -4.616 123.579  0.00  0.00    +0.038 C 
ATOM      2  C   LIG A   1      -5.232  -3.558 123.620  0.00  0.00    -0.076 C 
ATOM      3  C   LIG A   1      -5.364  -2.626 122.663  0.00  0.00    -0.024 C 
ATOM      4  C   LIG A   1      -6.391  -1.524 122.668  0.00  0.00    +0.057 C 
ATOM      5  C   LIG A   1      -7.361  -1.547 123.843  0.00  0.00    -0.067 C 
ATOM      6  C   LIG A   1      -7.515  -2.919 124.476  0.00  0.00    +0.035 C 
ATOM      7  C   LIG A   1      -6.171  -3.581 124.797  0.00  0.00    +0.034 C 
ATOM      8  C   LIG A   1      -8.063  -0.448 124.231  0.00  0.00    -0.073 C 
ATOM      9  C   LIG A   1      -7.964   0.893 123.538  0.00  0.00    +0.039 C 
ENDROOT
BRANCH   8  10
ATOM     10  C   LIG A   1      -9.061  -0.433 125.382  0.00  0.00    +0.034 C 
BRANCH  10  11
ATOM     11  C   LIG A   1      -8.471   0.219 126.640  0.00  0.00    +0.031 C 
BRANCH  11  12
ATOM     12  C   LIG A   1      -7.571  -0.722 127.398  0.00  0.00    -0.028 C 
ATOM     13  C   LIG A   1      -6.229  -0.800 127.325  0.00  0.00    -0.080 C 
ATOM     14  C   LIG A   1      -5.360   0.108 126.497  0.00  0.00    +0.038 C 
ATOM     15  C   LIG A   1      -5.470  -1.834 128.114  0.00  0.00    +0.038 C 
ENDBRANCH  11  12
ENDBRANCH  10  11
ENDBRANCH   8  10
TORSDOF 3
ENDMDL
