MODEL 1
REMARK VINA RESULT:      -5.8      0.000      0.000
REMARK  Name = NuBBE_166
REMARK  16 active torsions:
REMARK  status: ('A' for Active; 'I' for Inactive)
REMARK    1  A    between atoms: O_1  and  C_2
REMARK    2  A    between atoms: C_4  and  C_6
REMARK    3  A    between atoms: C_9  and  C_11
REMARK    4  A    between atoms: C_11  and  C_12
REMARK    5  A    between atoms: C_12  and  C_13
REMARK    6  A    between atoms: C_13  and  C_14
REMARK    7  A    between atoms: C_14  and  C_15
REMARK    8  A    between atoms: C_15  and  C_16
REMARK    9  A    between atoms: C_16  and  C_17
REMARK   10  A    between atoms: C_17  and  C_18
REMARK   11  A    between atoms: C_18  and  C_19
REMARK   12  A    between atoms: C_19  and  C_20
REMARK   13  A    between atoms: C_20  and  C_21
REMARK   14  A    between atoms: C_21  and  C_22
REMARK   15  A    between atoms: C_22  and  C_23
REMARK   16  A    between atoms: C_23  and  C_24
REMARK                            x       y       z     vdW  Elec       q    Type
REMARK                         _______ _______ _______ _____ _____    ______ ____
ROOT
ATOM      1  C   LIG A   1      -5.329  -1.706 126.962  0.00  0.00    +0.000 C 
ENDROOT
BRANCH   1   2
ATOM      2  C   LIG A   1      -5.425  -0.348 126.238  0.00  0.00    +0.002 C 
BRANCH   2   3
ATOM      3  C   LIG A   1      -6.852   0.279 126.362  0.00  0.00    +0.019 C 
BRANCH   3   9
ATOM      4  C   LIG A   1      -8.712   2.715 123.324  0.00  0.00    +0.131 C 
ATOM      5  C   LIG A   1      -7.380   2.003 123.014  0.00  0.00    +0.079 C 
ATOM      6  C   LIG A   1      -6.437   2.919 122.235  0.00  0.00    +0.026 C 
ATOM      7  N   LIG A   1      -6.736   1.609 124.287  0.00  0.00    -0.308 NA
ATOM      8  H   LIG A   1      -5.817   1.211 124.085  0.00  0.00    +0.122 HD
ATOM      9  C   LIG A   1      -7.548   0.613 125.015  0.00  0.00    +0.054 C 
ATOM     10  C   LIG A   1      -8.982   1.115 125.267  0.00  0.00    +0.021 C 
ATOM     11  C   LIG A   1      -9.652   1.767 124.060  0.00  0.00    +0.034 C 
BRANCH   4  12
ATOM     12  O   LIG A   1      -8.472   3.859 124.152  0.00  0.00    -0.390 OA
ATOM     13  H   LIG A   1      -8.516   4.622 123.541  0.00  0.00    +0.210 HD
ENDBRANCH   4  12
ENDBRANCH   3   9
ENDBRANCH   2   3
ENDBRANCH   1   2
BRANCH   1  14
ATOM     14  C   LIG A   1      -5.371  -1.827 128.513  0.00  0.00    -0.000 C 
BRANCH  14  15
ATOM     15  C   LIG A   1      -6.009  -3.072 129.146  0.00  0.00    -0.000 C 
BRANCH  15  16
ATOM     16  C   LIG A   1      -7.394  -2.872 129.863  0.00  0.00    -0.000 C 
BRANCH  16  17
ATOM     17  C   LIG A   1      -8.688  -3.391 129.162  0.00  0.00    -0.000 C 
BRANCH  17  18
ATOM     18  C   LIG A   1      -8.471  -3.774 127.645  0.00  0.00    -0.000 C 
BRANCH  18  19
ATOM     19  C   LIG A   1      -8.828  -2.658 126.610  0.00  0.00    +0.000 C 
BRANCH  19  20
ATOM     20  C   LIG A   1      -9.389  -2.993 125.189  0.00  0.00    +0.000 C 
BRANCH  20  21
ATOM     21  C   LIG A   1      -8.456  -2.967 123.974  0.00  0.00    +0.007 C 
BRANCH  21  22
ATOM     22  C   LIG A   1      -7.040  -3.446 124.244  0.00  0.00    +0.074 C 
BRANCH  22  23
ATOM     23  C   LIG A   1      -5.972  -2.707 123.439  0.00  0.00    +0.130 C 
ATOM     24  C   LIG A   1      -4.569  -3.271 123.462  0.00  0.00    +0.086 C 
ATOM     25  O   LIG A   1      -6.250  -1.746 122.762  0.00  0.00    -0.298 OA
ENDBRANCH  22  23
ENDBRANCH  21  22
ENDBRANCH  20  21
ENDBRANCH  19  20
ENDBRANCH  18  19
ENDBRANCH  17  18
ENDBRANCH  16  17
ENDBRANCH  15  16
ENDBRANCH  14  15
ENDBRANCH   1  14
TORSDOF 14
ENDMDL
MODEL 2
REMARK VINA RESULT:      -5.6      7.658      9.508
REMARK  Name = NuBBE_166
REMARK  16 active torsions:
REMARK  status: ('A' for Active; 'I' for Inactive)
REMARK    1  A    between atoms: O_1  and  C_2
REMARK    2  A    between atoms: C_4  and  C_6
REMARK    3  A    between atoms: C_9  and  C_11
REMARK    4  A    between atoms: C_11  and  C_12
REMARK    5  A    between atoms: C_12  and  C_13
REMARK    6  A    between atoms: C_13  and  C_14
REMARK    7  A    between atoms: C_14  and  C_15
REMARK    8  A    between atoms: C_15  and  C_16
REMARK    9  A    between atoms: C_16  and  C_17
REMARK   10  A    between atoms: C_17  and  C_18
REMARK   11  A    between atoms: C_18  and  C_19
REMARK   12  A    between atoms: C_19  and  C_20
REMARK   13  A    between atoms: C_20  and  C_21
REMARK   14  A    between atoms: C_21  and  C_22
REMARK   15  A    between atoms: C_22  and  C_23
REMARK   16  A    between atoms: C_23  and  C_24
REMARK                            x       y       z     vdW  Elec       q    Type
REMARK                         _______ _______ _______ _____ _____    ______ ____
ROOT
ATOM      1  C   LIG A   1      -8.926   4.021 129.554  0.00  0.00    +0.000 C 
ENDROOT
BRANCH   1   2
ATOM      2  C   LIG A   1      -9.452   5.296 130.243  0.00  0.00    +0.002 C 
BRANCH   2   3
ATOM      3  C   LIG A   1     -10.936   5.136 130.711  0.00  0.00    +0.019 C 
BRANCH   3   9
ATOM      4  C   LIG A   1     -12.331   8.530 128.442  0.00  0.00    +0.131 C 
ATOM      5  C   LIG A   1     -12.538   7.108 127.882  0.00  0.00    +0.079 C 
ATOM      6  C   LIG A   1     -12.249   7.061 126.382  0.00  0.00    +0.026 C 
ATOM      7  N   LIG A   1     -11.625   6.177 128.583  0.00  0.00    -0.308 NA
ATOM      8  H   LIG A   1     -11.704   5.252 128.157  0.00  0.00    +0.122 HD
ATOM      9  C   LIG A   1     -11.955   6.081 130.020  0.00  0.00    +0.054 C 
ATOM     10  C   LIG A   1     -11.949   7.460 130.704  0.00  0.00    +0.021 C 
ATOM     11  C   LIG A   1     -12.669   8.561 129.928  0.00  0.00    +0.034 C 
BRANCH   4  12
ATOM     12  O   LIG A   1     -10.965   8.927 128.272  0.00  0.00    -0.390 OA
ATOM     13  H   LIG A   1     -10.705   9.302 129.137  0.00  0.00    +0.210 HD
ENDBRANCH   4  12
ENDBRANCH   3   9
ENDBRANCH   2   3
ENDBRANCH   1   2
BRANCH   1  14
ATOM     14  C   LIG A   1      -8.102   2.943 130.316  0.00  0.00    -0.000 C 
BRANCH  14  15
ATOM     15  C   LIG A   1      -8.817   2.035 131.326  0.00  0.00    -0.000 C 
BRANCH  15  16
ATOM     16  C   LIG A   1      -8.509   2.285 132.847  0.00  0.00    -0.000 C 
BRANCH  16  17
ATOM     17  C   LIG A   1      -9.339   3.359 133.617  0.00  0.00    -0.000 C 
BRANCH  17  18
ATOM     18  C   LIG A   1      -8.450   4.355 134.461  0.00  0.00    -0.000 C 
BRANCH  18  19
ATOM     19  C   LIG A   1      -7.888   5.586 133.680  0.00  0.00    +0.000 C 
BRANCH  19  20
ATOM     20  C   LIG A   1      -6.380   5.697 133.278  0.00  0.00    +0.000 C 
BRANCH  20  21
ATOM     21  C   LIG A   1      -5.973   5.591 131.805  0.00  0.00    +0.007 C 
BRANCH  21  22
ATOM     22  C   LIG A   1      -6.069   6.888 131.019  0.00  0.00    +0.074 C 
BRANCH  22  23
ATOM     23  C   LIG A   1      -4.715   7.478 130.629  0.00  0.00    +0.130 C 
ATOM     24  C   LIG A   1      -3.581   7.330 131.618  0.00  0.00    +0.086 C 
ATOM     25  O   LIG A   1      -4.542   7.989 129.549  0.00  0.00    -0.298 OA
ENDBRANCH  22  23
ENDBRANCH  21  22
ENDBRANCH  20  21
ENDBRANCH  19  20
ENDBRANCH  18  19
ENDBRANCH  17  18
ENDBRANCH  16  17
ENDBRANCH  15  16
ENDBRANCH  14  15
ENDBRANCH   1  14
TORSDOF 14
ENDMDL
MODEL 3
REMARK VINA RESULT:      -5.5      2.534      4.432
REMARK  Name = NuBBE_166
REMARK  16 active torsions:
REMARK  status: ('A' for Active; 'I' for Inactive)
REMARK    1  A    between atoms: O_1  and  C_2
REMARK    2  A    between atoms: C_4  and  C_6
REMARK    3  A    between atoms: C_9  and  C_11
REMARK    4  A    between atoms: C_11  and  C_12
REMARK    5  A    between atoms: C_12  and  C_13
REMARK    6  A    between atoms: C_13  and  C_14
REMARK    7  A    between atoms: C_14  and  C_15
REMARK    8  A    between atoms: C_15  and  C_16
REMARK    9  A    between atoms: C_16  and  C_17
REMARK   10  A    between atoms: C_17  and  C_18
REMARK   11  A    between atoms: C_18  and  C_19
REMARK   12  A    between atoms: C_19  and  C_20
REMARK   13  A    between atoms: C_20  and  C_21
REMARK   14  A    between atoms: C_21  and  C_22
REMARK   15  A    between atoms: C_22  and  C_23
REMARK   16  A    between atoms: C_23  and  C_24
REMARK                            x       y       z     vdW  Elec       q    Type
REMARK                         _______ _______ _______ _____ _____    ______ ____
ROOT
ATOM      1  C   LIG A   1      -6.386  -2.578 123.948  0.00  0.00    +0.000 C 
ENDROOT
BRANCH   1   2
ATOM      2  C   LIG A   1      -5.789  -1.414 124.766  0.00  0.00    +0.002 C 
BRANCH   2   3
ATOM      3  C   LIG A   1      -6.845  -0.295 125.043  0.00  0.00    +0.019 C 
BRANCH   3   9
ATOM      4  C   LIG A   1      -8.351   3.080 122.815  0.00  0.00    +0.131 C 
ATOM      5  C   LIG A   1      -6.895   2.619 122.601  0.00  0.00    +0.079 C 
ATOM      6  C   LIG A   1      -5.950   3.817 122.499  0.00  0.00    +0.026 C 
ATOM      7  N   LIG A   1      -6.485   1.770 123.742  0.00  0.00    -0.308 NA
ATOM      8  H   LIG A   1      -5.497   1.533 123.641  0.00  0.00    +0.122 HD
ATOM      9  C   LIG A   1      -7.281   0.528 123.800  0.00  0.00    +0.054 C 
ATOM     10  C   LIG A   1      -8.792   0.815 123.856  0.00  0.00    +0.021 C 
ATOM     11  C   LIG A   1      -9.279   1.871 122.867  0.00  0.00    +0.034 C 
BRANCH   4  12
ATOM     12  O   LIG A   1      -8.459   3.796 124.051  0.00  0.00    -0.390 OA
ATOM     13  H   LIG A   1      -7.655   3.551 124.552  0.00  0.00    +0.210 HD
ENDBRANCH   4  12
ENDBRANCH   3   9
ENDBRANCH   2   3
ENDBRANCH   1   2
BRANCH   1  14
ATOM     14  C   LIG A   1      -7.874  -3.011 124.080  0.00  0.00    -0.000 C 
BRANCH  14  15
ATOM     15  C   LIG A   1      -8.295  -3.878 125.275  0.00  0.00    -0.000 C 
BRANCH  15  16
ATOM     16  C   LIG A   1      -8.777  -3.122 126.566  0.00  0.00    -0.000 C 
BRANCH  16  17
ATOM     17  C   LIG A   1      -8.835  -3.899 127.918  0.00  0.00    -0.000 C 
BRANCH  17  18
ATOM     18  C   LIG A   1      -7.738  -3.439 128.956  0.00  0.00    -0.000 C 
BRANCH  18  19
ATOM     19  C   LIG A   1      -6.890  -2.196 128.536  0.00  0.00    +0.000 C 
BRANCH  19  20
ATOM     20  C   LIG A   1      -5.365  -2.306 128.202  0.00  0.00    +0.000 C 
BRANCH  20  21
ATOM     21  C   LIG A   1      -4.474  -3.256 129.010  0.00  0.00    +0.007 C 
BRANCH  21  22
ATOM     22  C   LIG A   1      -4.140  -2.781 130.414  0.00  0.00    +0.074 C 
BRANCH  22  23
ATOM     23  C   LIG A   1      -4.155  -3.891 131.463  0.00  0.00    +0.130 C 
ATOM     24  C   LIG A   1      -5.371  -4.790 131.508  0.00  0.00    +0.086 C 
ATOM     25  O   LIG A   1      -3.208  -4.082 132.188  0.00  0.00    -0.298 OA
ENDBRANCH  22  23
ENDBRANCH  21  22
ENDBRANCH  20  21
ENDBRANCH  19  20
ENDBRANCH  18  19
ENDBRANCH  17  18
ENDBRANCH  16  17
ENDBRANCH  15  16
ENDBRANCH  14  15
ENDBRANCH   1  14
TORSDOF 14
ENDMDL
MODEL 4
REMARK VINA RESULT:      -5.3      5.294      6.186
REMARK  Name = NuBBE_166
REMARK  16 active torsions:
REMARK  status: ('A' for Active; 'I' for Inactive)
REMARK    1  A    between atoms: O_1  and  C_2
REMARK    2  A    between atoms: C_4  and  C_6
REMARK    3  A    between atoms: C_9  and  C_11
REMARK    4  A    between atoms: C_11  and  C_12
REMARK    5  A    between atoms: C_12  and  C_13
REMARK    6  A    between atoms: C_13  and  C_14
REMARK    7  A    between atoms: C_14  and  C_15
REMARK    8  A    between atoms: C_15  and  C_16
REMARK    9  A    between atoms: C_16  and  C_17
REMARK   10  A    between atoms: C_17  and  C_18
REMARK   11  A    between atoms: C_18  and  C_19
REMARK   12  A    between atoms: C_19  and  C_20
REMARK   13  A    between atoms: C_20  and  C_21
REMARK   14  A    between atoms: C_21  and  C_22
REMARK   15  A    between atoms: C_22  and  C_23
REMARK   16  A    between atoms: C_23  and  C_24
REMARK                            x       y       z     vdW  Elec       q    Type
REMARK                         _______ _______ _______ _____ _____    ______ ____
ROOT
ATOM      1  C   LIG A   1      -9.428   2.956 132.262  0.00  0.00    +0.000 C 
ENDROOT
BRANCH   1   2
ATOM      2  C   LIG A   1      -9.396   4.104 131.233  0.00  0.00    +0.002 C 
BRANCH   2   3
ATOM      3  C   LIG A   1     -10.765   4.262 130.494  0.00  0.00    +0.019 C 
BRANCH   3   9
ATOM      4  C   LIG A   1     -11.483   7.799 128.128  0.00  0.00    +0.131 C 
ATOM      5  C   LIG A   1     -12.671   7.087 128.807  0.00  0.00    +0.079 C 
ATOM      6  C   LIG A   1     -13.878   7.021 127.873  0.00  0.00    +0.026 C 
ATOM      7  N   LIG A   1     -12.263   5.713 129.175  0.00  0.00    -0.308 NA
ATOM      8  H   LIG A   1     -13.073   5.216 129.551  0.00  0.00    +0.122 HD
ATOM      9  C   LIG A   1     -11.187   5.724 130.187  0.00  0.00    +0.054 C 
ATOM     10  C   LIG A   1      -9.969   6.542 129.721  0.00  0.00    +0.021 C 
ATOM     11  C   LIG A   1     -10.308   7.893 129.095  0.00  0.00    +0.034 C 
BRANCH   4  12
ATOM     12  O   LIG A   1     -11.070   7.060 126.972  0.00  0.00    -0.390 OA
ATOM     13  H   LIG A   1     -10.117   7.262 126.875  0.00  0.00    +0.210 HD
ENDBRANCH   4  12
ENDBRANCH   3   9
ENDBRANCH   2   3
ENDBRANCH   1   2
BRANCH   1  14
ATOM     14  C   LIG A   1      -9.900   1.520 131.894  0.00  0.00    -0.000 C 
BRANCH  14  15
ATOM     15  C   LIG A   1      -8.851   0.457 131.543  0.00  0.00    -0.000 C 
BRANCH  15  16
ATOM     16  C   LIG A   1      -8.070   0.650 130.192  0.00  0.00    -0.000 C 
BRANCH  16  17
ATOM     17  C   LIG A   1      -7.823  -0.593 129.280  0.00  0.00    -0.000 C 
BRANCH  17  18
ATOM     18  C   LIG A   1      -7.860  -1.965 130.061  0.00  0.00    -0.000 C 
BRANCH  18  19
ATOM     19  C   LIG A   1      -7.689  -3.246 129.184  0.00  0.00    +0.000 C 
BRANCH  19  20
ATOM     20  C   LIG A   1      -8.830  -3.774 128.253  0.00  0.00    +0.000 C 
BRANCH  20  21
ATOM     21  C   LIG A   1      -8.942  -3.257 126.815  0.00  0.00    +0.007 C 
BRANCH  21  22
ATOM     22  C   LIG A   1      -7.669  -2.650 126.251  0.00  0.00    +0.074 C 
BRANCH  22  23
ATOM     23  C   LIG A   1      -7.891  -1.350 125.479  0.00  0.00    +0.130 C 
ATOM     24  C   LIG A   1      -9.096  -0.517 125.852  0.00  0.00    +0.086 C 
ATOM     25  O   LIG A   1      -7.103  -0.974 124.645  0.00  0.00    -0.298 OA
ENDBRANCH  22  23
ENDBRANCH  21  22
ENDBRANCH  20  21
ENDBRANCH  19  20
ENDBRANCH  18  19
ENDBRANCH  17  18
ENDBRANCH  16  17
ENDBRANCH  15  16
ENDBRANCH  14  15
ENDBRANCH   1  14
TORSDOF 14
ENDMDL
MODEL 5
REMARK VINA RESULT:      -5.3      2.808      6.671
REMARK  Name = NuBBE_166
REMARK  16 active torsions:
REMARK  status: ('A' for Active; 'I' for Inactive)
REMARK    1  A    between atoms: O_1  and  C_2
REMARK    2  A    between atoms: C_4  and  C_6
REMARK    3  A    between atoms: C_9  and  C_11
REMARK    4  A    between atoms: C_11  and  C_12
REMARK    5  A    between atoms: C_12  and  C_13
REMARK    6  A    between atoms: C_13  and  C_14
REMARK    7  A    between atoms: C_14  and  C_15
REMARK    8  A    between atoms: C_15  and  C_16
REMARK    9  A    between atoms: C_16  and  C_17
REMARK   10  A    between atoms: C_17  and  C_18
REMARK   11  A    between atoms: C_18  and  C_19
REMARK   12  A    between atoms: C_19  and  C_20
REMARK   13  A    between atoms: C_20  and  C_21
REMARK   14  A    between atoms: C_21  and  C_22
REMARK   15  A    between atoms: C_22  and  C_23
REMARK   16  A    between atoms: C_23  and  C_24
REMARK                            x       y       z     vdW  Elec       q    Type
REMARK                         _______ _______ _______ _____ _____    ______ ____
ROOT
ATOM      1  C   LIG A   1      -8.118  -2.765 127.763  0.00  0.00    +0.000 C 
ENDROOT
BRANCH   1   2
ATOM      2  C   LIG A   1      -8.152  -3.147 129.256  0.00  0.00    +0.002 C 
BRANCH   2   3
ATOM      3  C   LIG A   1      -6.823  -3.834 129.712  0.00  0.00    +0.019 C 
BRANCH   3   9
ATOM      4  C   LIG A   1      -3.323  -1.800 131.207  0.00  0.00    +0.131 C 
ATOM      5  C   LIG A   1      -4.593  -0.986 130.886  0.00  0.00    +0.079 C 
ATOM      6  C   LIG A   1      -4.241   0.325 130.182  0.00  0.00    +0.026 C 
ATOM      7  N   LIG A   1      -5.472  -1.790 130.007  0.00  0.00    -0.308 NA
ATOM      8  H   LIG A   1      -6.273  -1.222 129.729  0.00  0.00    +0.122 HD
ATOM      9  C   LIG A   1      -5.953  -3.005 130.696  0.00  0.00    +0.054 C 
ATOM     10  C   LIG A   1      -4.790  -3.863 131.228  0.00  0.00    +0.021 C 
ATOM     11  C   LIG A   1      -3.695  -3.079 131.948  0.00  0.00    +0.034 C 
BRANCH   4  12
ATOM     12  O   LIG A   1      -2.650  -2.152 129.992  0.00  0.00    -0.390 OA
ATOM     13  H   LIG A   1      -1.698  -2.056 130.198  0.00  0.00    +0.210 HD
ENDBRANCH   4  12
ENDBRANCH   3   9
ENDBRANCH   2   3
ENDBRANCH   1   2
BRANCH   1  14
ATOM     14  C   LIG A   1      -8.864  -3.591 126.676  0.00  0.00    -0.000 C 
BRANCH  14  15
ATOM     15  C   LIG A   1      -9.404  -2.872 125.432  0.00  0.00    -0.000 C 
BRANCH  15  16
ATOM     16  C   LIG A   1      -8.844  -3.343 124.041  0.00  0.00    -0.000 C 
BRANCH  16  17
ATOM     17  C   LIG A   1      -8.524  -2.269 122.954  0.00  0.00    -0.000 C 
BRANCH  17  18
ATOM     18  C   LIG A   1      -6.982  -1.962 122.806  0.00  0.00    -0.000 C 
BRANCH  18  19
ATOM     19  C   LIG A   1      -6.087  -2.403 124.009  0.00  0.00    +0.000 C 
BRANCH  19  20
ATOM     20  C   LIG A   1      -5.728  -1.428 125.178  0.00  0.00    +0.000 C 
BRANCH  20  21
ATOM     21  C   LIG A   1      -6.185   0.033 125.120  0.00  0.00    +0.007 C 
BRANCH  21  22
ATOM     22  C   LIG A   1      -7.549   0.302 125.732  0.00  0.00    +0.074 C 
BRANCH  22  23
ATOM     23  C   LIG A   1      -8.403   1.286 124.933  0.00  0.00    +0.130 C 
ATOM     24  C   LIG A   1      -8.042   1.499 123.480  0.00  0.00    +0.086 C 
ATOM     25  O   LIG A   1      -9.364   1.825 125.425  0.00  0.00    -0.298 OA
ENDBRANCH  22  23
ENDBRANCH  21  22
ENDBRANCH  20  21
ENDBRANCH  19  20
ENDBRANCH  18  19
ENDBRANCH  17  18
ENDBRANCH  16  17
ENDBRANCH  15  16
ENDBRANCH  14  15
ENDBRANCH   1  14
TORSDOF 14
ENDMDL
MODEL 6
REMARK VINA RESULT:      -5.3      7.154      8.602
REMARK  Name = NuBBE_166
REMARK  16 active torsions:
REMARK  status: ('A' for Active; 'I' for Inactive)
REMARK    1  A    between atoms: O_1  and  C_2
REMARK    2  A    between atoms: C_4  and  C_6
REMARK    3  A    between atoms: C_9  and  C_11
REMARK    4  A    between atoms: C_11  and  C_12
REMARK    5  A    between atoms: C_12  and  C_13
REMARK    6  A    between atoms: C_13  and  C_14
REMARK    7  A    between atoms: C_14  and  C_15
REMARK    8  A    between atoms: C_15  and  C_16
REMARK    9  A    between atoms: C_16  and  C_17
REMARK   10  A    between atoms: C_17  and  C_18
REMARK   11  A    between atoms: C_18  and  C_19
REMARK   12  A    between atoms: C_19  and  C_20
REMARK   13  A    between atoms: C_20  and  C_21
REMARK   14  A    between atoms: C_21  and  C_22
REMARK   15  A    between atoms: C_22  and  C_23
REMARK   16  A    between atoms: C_23  and  C_24
REMARK                            x       y       z     vdW  Elec       q    Type
REMARK                         _______ _______ _______ _____ _____    ______ ____
ROOT
ATOM      1  C   LIG A   1      -6.867   4.953 130.167  0.00  0.00    +0.000 C 
ENDROOT
BRANCH   1   2
ATOM      2  C   LIG A   1      -6.691   6.262 130.962  0.00  0.00    +0.002 C 
BRANCH   2   3
ATOM      3  C   LIG A   1      -8.064   6.933 131.294  0.00  0.00    +0.019 C 
BRANCH   3   9
ATOM      4  C   LIG A   1     -11.937   7.097 129.399  0.00  0.00    +0.131 C 
ATOM      5  C   LIG A   1     -10.667   7.068 128.525  0.00  0.00    +0.079 C 
ATOM      6  C   LIG A   1     -10.786   8.040 127.351  0.00  0.00    +0.026 C 
ATOM      7  N   LIG A   1      -9.502   7.447 129.356  0.00  0.00    -0.308 NA
ATOM      8  H   LIG A   1      -8.675   7.507 128.759  0.00  0.00    +0.122 HD
ATOM      9  C   LIG A   1      -9.260   6.457 130.425  0.00  0.00    +0.054 C 
ATOM     10  C   LIG A   1     -10.505   6.247 131.305  0.00  0.00    +0.021 C 
ATOM     11  C   LIG A   1     -11.814   6.087 130.534  0.00  0.00    +0.034 C 
BRANCH   4  12
ATOM     12  O   LIG A   1     -12.112   8.402 129.961  0.00  0.00    -0.390 OA
ATOM     13  H   LIG A   1     -12.791   8.286 130.657  0.00  0.00    +0.210 HD
ENDBRANCH   4  12
ENDBRANCH   3   9
ENDBRANCH   2   3
ENDBRANCH   1   2
BRANCH   1  14
ATOM     14  C   LIG A   1      -6.181   3.622 130.591  0.00  0.00    -0.000 C 
BRANCH  14  15
ATOM     15  C   LIG A   1      -5.493   3.542 131.961  0.00  0.00    -0.000 C 
BRANCH  15  16
ATOM     16  C   LIG A   1      -5.792   2.267 132.830  0.00  0.00    -0.000 C 
BRANCH  16  17
ATOM     17  C   LIG A   1      -6.415   2.451 134.250  0.00  0.00    -0.000 C 
BRANCH  17  18
ATOM     18  C   LIG A   1      -6.828   3.942 134.567  0.00  0.00    -0.000 C 
BRANCH  18  19
ATOM     19  C   LIG A   1      -8.201   4.403 133.978  0.00  0.00    +0.000 C 
BRANCH  19  20
ATOM     20  C   LIG A   1      -9.315   3.382 133.576  0.00  0.00    +0.000 C 
BRANCH  20  21
ATOM     21  C   LIG A   1      -9.412   2.890 132.127  0.00  0.00    +0.007 C 
BRANCH  21  22
ATOM     22  C   LIG A   1      -9.903   1.461 131.969  0.00  0.00    +0.074 C 
BRANCH  22  23
ATOM     23  C   LIG A   1      -8.791   0.453 131.677  0.00  0.00    +0.130 C 
ATOM     24  C   LIG A   1      -8.118   0.533 130.325  0.00  0.00    +0.086 C 
ATOM     25  O   LIG A   1      -8.424  -0.335 132.515  0.00  0.00    -0.298 OA
ENDBRANCH  22  23
ENDBRANCH  21  22
ENDBRANCH  20  21
ENDBRANCH  19  20
ENDBRANCH  18  19
ENDBRANCH  17  18
ENDBRANCH  16  17
ENDBRANCH  15  16
ENDBRANCH  14  15
ENDBRANCH   1  14
TORSDOF 14
ENDMDL
MODEL 7
REMARK VINA RESULT:      -5.3      1.727      2.218
REMARK  Name = NuBBE_166
REMARK  16 active torsions:
REMARK  status: ('A' for Active; 'I' for Inactive)
REMARK    1  A    between atoms: O_1  and  C_2
REMARK    2  A    between atoms: C_4  and  C_6
REMARK    3  A    between atoms: C_9  and  C_11
REMARK    4  A    between atoms: C_11  and  C_12
REMARK    5  A    between atoms: C_12  and  C_13
REMARK    6  A    between atoms: C_13  and  C_14
REMARK    7  A    between atoms: C_14  and  C_15
REMARK    8  A    between atoms: C_15  and  C_16
REMARK    9  A    between atoms: C_16  and  C_17
REMARK   10  A    between atoms: C_17  and  C_18
REMARK   11  A    between atoms: C_18  and  C_19
REMARK   12  A    between atoms: C_19  and  C_20
REMARK   13  A    between atoms: C_20  and  C_21
REMARK   14  A    between atoms: C_21  and  C_22
REMARK   15  A    between atoms: C_22  and  C_23
REMARK   16  A    between atoms: C_23  and  C_24
REMARK                            x       y       z     vdW  Elec       q    Type
REMARK                         _______ _______ _______ _____ _____    ______ ____
ROOT
ATOM      1  C   LIG A   1      -6.714   1.118 129.625  0.00  0.00    +0.000 C 
ENDROOT
BRANCH   1   2
ATOM      2  C   LIG A   1      -7.902   1.306 128.659  0.00  0.00    +0.002 C 
BRANCH   2   3
ATOM      3  C   LIG A   1      -7.947   0.188 127.566  0.00  0.00    +0.019 C 
BRANCH   3   9
ATOM      4  C   LIG A   1      -8.649   2.933 124.312  0.00  0.00    +0.131 C 
ATOM      5  C   LIG A   1      -7.210   2.468 124.613  0.00  0.00    +0.079 C 
ATOM      6  C   LIG A   1      -6.223   3.630 124.507  0.00  0.00    +0.026 C 
ATOM      7  N   LIG A   1      -7.161   1.910 125.983  0.00  0.00    -0.308 NA
ATOM      8  H   LIG A   1      -6.193   1.676 126.212  0.00  0.00    +0.122 HD
ATOM      9  C   LIG A   1      -7.995   0.696 126.100  0.00  0.00    +0.054 C 
ATOM     10  C   LIG A   1      -9.451   0.957 125.675  0.00  0.00    +0.021 C 
ATOM     11  C   LIG A   1      -9.607   1.749 124.379  0.00  0.00    +0.034 C 
BRANCH   4  12
ATOM     12  O   LIG A   1      -9.057   3.910 125.278  0.00  0.00    -0.390 OA
ATOM     13  H   LIG A   1      -9.994   4.095 125.065  0.00  0.00    +0.210 HD
ENDBRANCH   4  12
ENDBRANCH   3   9
ENDBRANCH   2   3
ENDBRANCH   1   2
BRANCH   1  14
ATOM     14  C   LIG A   1      -5.653  -0.003 129.431  0.00  0.00    -0.000 C 
BRANCH  14  15
ATOM     15  C   LIG A   1      -5.815  -1.323 130.197  0.00  0.00    -0.000 C 
BRANCH  15  16
ATOM     16  C   LIG A   1      -5.972  -2.629 129.336  0.00  0.00    -0.000 C 
BRANCH  16  17
ATOM     17  C   LIG A   1      -7.108  -3.637 129.695  0.00  0.00    -0.000 C 
BRANCH  17  18
ATOM     18  C   LIG A   1      -8.490  -3.298 129.011  0.00  0.00    -0.000 C 
BRANCH  18  19
ATOM     19  C   LIG A   1      -8.676  -3.843 127.558  0.00  0.00    +0.000 C 
BRANCH  19  20
ATOM     20  C   LIG A   1      -8.150  -3.065 126.306  0.00  0.00    +0.000 C 
BRANCH  20  21
ATOM     21  C   LIG A   1      -8.215  -3.716 124.920  0.00  0.00    +0.007 C 
BRANCH  21  22
ATOM     22  C   LIG A   1      -9.352  -3.230 124.038  0.00  0.00    +0.074 C 
BRANCH  22  23
ATOM     23  C   LIG A   1      -9.011  -1.990 123.214  0.00  0.00    +0.130 C 
ATOM     24  C   LIG A   1      -7.550  -1.728 122.924  0.00  0.00    +0.086 C 
ATOM     25  O   LIG A   1      -9.876  -1.280 122.761  0.00  0.00    -0.298 OA
ENDBRANCH  22  23
ENDBRANCH  21  22
ENDBRANCH  20  21
ENDBRANCH  19  20
ENDBRANCH  18  19
ENDBRANCH  17  18
ENDBRANCH  16  17
ENDBRANCH  15  16
ENDBRANCH  14  15
ENDBRANCH   1  14
TORSDOF 14
ENDMDL
MODEL 8
REMARK VINA RESULT:      -5.3      2.507      4.207
REMARK  Name = NuBBE_166
REMARK  16 active torsions:
REMARK  status: ('A' for Active; 'I' for Inactive)
REMARK    1  A    between atoms: O_1  and  C_2
REMARK    2  A    between atoms: C_4  and  C_6
REMARK    3  A    between atoms: C_9  and  C_11
REMARK    4  A    between atoms: C_11  and  C_12
REMARK    5  A    between atoms: C_12  and  C_13
REMARK    6  A    between atoms: C_13  and  C_14
REMARK    7  A    between atoms: C_14  and  C_15
REMARK    8  A    between atoms: C_15  and  C_16
REMARK    9  A    between atoms: C_16  and  C_17
REMARK   10  A    between atoms: C_17  and  C_18
REMARK   11  A    between atoms: C_18  and  C_19
REMARK   12  A    between atoms: C_19  and  C_20
REMARK   13  A    between atoms: C_20  and  C_21
REMARK   14  A    between atoms: C_21  and  C_22
REMARK   15  A    between atoms: C_22  and  C_23
REMARK   16  A    between atoms: C_23  and  C_24
REMARK                            x       y       z     vdW  Elec       q    Type
REMARK                         _______ _______ _______ _____ _____    ______ ____
ROOT
ATOM      1  C   LIG A   1      -7.728  -1.333 128.458  0.00  0.00    +0.000 C 
ENDROOT
BRANCH   1   2
ATOM      2  C   LIG A   1      -6.676  -0.881 127.425  0.00  0.00    +0.002 C 
BRANCH   2   3
ATOM      3  C   LIG A   1      -5.877   0.371 127.916  0.00  0.00    +0.019 C 
BRANCH   3   9
ATOM      4  C   LIG A   1      -4.256   3.823 125.899  0.00  0.00    +0.131 C 
ATOM      5  C   LIG A   1      -3.303   2.707 126.374  0.00  0.00    +0.079 C 
ATOM      6  C   LIG A   1      -2.034   3.294 126.990  0.00  0.00    +0.026 C 
ATOM      7  N   LIG A   1      -3.998   1.880 127.386  0.00  0.00    -0.308 NA
ATOM      8  H   LIG A   1      -3.342   1.192 127.759  0.00  0.00    +0.122 HD
ATOM      9  C   LIG A   1      -5.159   1.178 126.801  0.00  0.00    +0.054 C 
ATOM     10  C   LIG A   1      -6.144   2.154 126.133  0.00  0.00    +0.021 C 
ATOM     11  C   LIG A   1      -5.492   3.214 125.248  0.00  0.00    +0.034 C 
BRANCH   4  12
ATOM     12  O   LIG A   1      -4.669   4.620 127.015  0.00  0.00    -0.390 OA
ATOM     13  H   LIG A   1      -4.826   5.510 126.642  0.00  0.00    +0.210 HD
ENDBRANCH   4  12
ENDBRANCH   3   9
ENDBRANCH   2   3
ENDBRANCH   1   2
BRANCH   1  14
ATOM     14  C   LIG A   1      -8.231  -2.803 128.545  0.00  0.00    -0.000 C 
BRANCH  14  15
ATOM     15  C   LIG A   1      -8.440  -3.597 127.248  0.00  0.00    -0.000 C 
BRANCH  15  16
ATOM     16  C   LIG A   1      -9.398  -2.964 126.175  0.00  0.00    -0.000 C 
BRANCH  16  17
ATOM     17  C   LIG A   1      -9.161  -3.290 124.667  0.00  0.00    -0.000 C 
BRANCH  17  18
ATOM     18  C   LIG A   1      -7.703  -3.810 124.357  0.00  0.00    -0.000 C 
BRANCH  18  19
ATOM     19  C   LIG A   1      -6.607  -2.705 124.214  0.00  0.00    +0.000 C 
BRANCH  19  20
ATOM     20  C   LIG A   1      -6.627  -1.663 123.048  0.00  0.00    +0.000 C 
BRANCH  20  21
ATOM     21  C   LIG A   1      -6.894  -0.184 123.349  0.00  0.00    +0.007 C 
BRANCH  21  22
ATOM     22  C   LIG A   1      -8.201   0.096 124.070  0.00  0.00    +0.074 C 
BRANCH  22  23
ATOM     23  C   LIG A   1      -9.093   1.114 123.361  0.00  0.00    +0.130 C 
ATOM     24  C   LIG A   1     -10.222   0.576 122.511  0.00  0.00    +0.086 C 
ATOM     25  O   LIG A   1      -8.941   2.301 123.522  0.00  0.00    -0.298 OA
ENDBRANCH  22  23
ENDBRANCH  21  22
ENDBRANCH  20  21
ENDBRANCH  19  20
ENDBRANCH  18  19
ENDBRANCH  17  18
ENDBRANCH  16  17
ENDBRANCH  15  16
ENDBRANCH  14  15
ENDBRANCH   1  14
TORSDOF 14
ENDMDL
MODEL 9
REMARK VINA RESULT:      -5.2      2.114      4.521
REMARK  Name = NuBBE_166
REMARK  16 active torsions:
REMARK  status: ('A' for Active; 'I' for Inactive)
REMARK    1  A    between atoms: O_1  and  C_2
REMARK    2  A    between atoms: C_4  and  C_6
REMARK    3  A    between atoms: C_9  and  C_11
REMARK    4  A    between atoms: C_11  and  C_12
REMARK    5  A    between atoms: C_12  and  C_13
REMARK    6  A    between atoms: C_13  and  C_14
REMARK    7  A    between atoms: C_14  and  C_15
REMARK    8  A    between atoms: C_15  and  C_16
REMARK    9  A    between atoms: C_16  and  C_17
REMARK   10  A    between atoms: C_17  and  C_18
REMARK   11  A    between atoms: C_18  and  C_19
REMARK   12  A    between atoms: C_19  and  C_20
REMARK   13  A    between atoms: C_20  and  C_21
REMARK   14  A    between atoms: C_21  and  C_22
REMARK   15  A    between atoms: C_22  and  C_23
REMARK   16  A    between atoms: C_23  and  C_24
REMARK                            x       y       z     vdW  Elec       q    Type
REMARK                         _______ _______ _______ _____ _____    ______ ____
ROOT
ATOM      1  C   LIG A   1      -7.257  -3.558 124.404  0.00  0.00    +0.000 C 
ENDROOT
BRANCH   1   2
ATOM      2  C   LIG A   1      -6.286  -2.539 123.774  0.00  0.00    +0.002 C 
BRANCH   2   3
ATOM      3  C   LIG A   1      -5.744  -1.521 124.830  0.00  0.00    +0.019 C 
BRANCH   3   9
ATOM      4  C   LIG A   1      -8.994   1.316 124.938  0.00  0.00    +0.131 C 
ATOM      5  C   LIG A   1      -7.972   1.290 126.092  0.00  0.00    +0.079 C 
ATOM      6  C   LIG A   1      -8.667   1.444 127.445  0.00  0.00    +0.026 C 
ATOM      7  N   LIG A   1      -7.243   0.002 126.063  0.00  0.00    -0.308 NA
ATOM      8  H   LIG A   1      -6.625  -0.048 126.874  0.00  0.00    +0.122 HD
ATOM      9  C   LIG A   1      -6.441  -0.133 124.830  0.00  0.00    +0.054 C 
ATOM     10  C   LIG A   1      -7.300   0.030 123.564  0.00  0.00    +0.021 C 
ATOM     11  C   LIG A   1      -8.272   1.207 123.599  0.00  0.00    +0.034 C 
BRANCH   4  12
ATOM     12  O   LIG A   1      -9.899   0.213 125.064  0.00  0.00    -0.390 OA
ATOM     13  H   LIG A   1      -9.331  -0.583 125.012  0.00  0.00    +0.210 HD
ENDBRANCH   4  12
ENDBRANCH   3   9
ENDBRANCH   2   3
ENDBRANCH   1   2
BRANCH   1  14
ATOM     14  C   LIG A   1      -8.777  -3.269 124.565  0.00  0.00    -0.000 C 
BRANCH  14  15
ATOM     15  C   LIG A   1      -9.365  -3.133 125.976  0.00  0.00    -0.000 C 
BRANCH  15  16
ATOM     16  C   LIG A   1      -8.351  -2.851 127.143  0.00  0.00    -0.000 C 
BRANCH  16  17
ATOM     17  C   LIG A   1      -8.549  -3.584 128.507  0.00  0.00    -0.000 C 
BRANCH  17  18
ATOM     18  C   LIG A   1      -7.601  -3.049 129.652  0.00  0.00    -0.000 C 
BRANCH  18  19
ATOM     19  C   LIG A   1      -6.545  -4.070 130.185  0.00  0.00    +0.000 C 
BRANCH  19  20
ATOM     20  C   LIG A   1      -5.010  -3.873 129.955  0.00  0.00    +0.000 C 
BRANCH  20  21
ATOM     21  C   LIG A   1      -4.509  -2.692 129.116  0.00  0.00    +0.007 C 
BRANCH  21  22
ATOM     22  C   LIG A   1      -4.176  -1.440 129.908  0.00  0.00    +0.074 C 
BRANCH  22  23
ATOM     23  C   LIG A   1      -4.904  -0.188 129.422  0.00  0.00    +0.130 C 
ATOM     24  C   LIG A   1      -4.477   1.138 130.012  0.00  0.00    +0.086 C 
ATOM     25  O   LIG A   1      -5.745  -0.247 128.558  0.00  0.00    -0.298 OA
ENDBRANCH  22  23
ENDBRANCH  21  22
ENDBRANCH  20  21
ENDBRANCH  19  20
ENDBRANCH  18  19
ENDBRANCH  17  18
ENDBRANCH  16  17
ENDBRANCH  15  16
ENDBRANCH  14  15
ENDBRANCH   1  14
TORSDOF 14
ENDMDL
