MODEL 1
REMARK VINA RESULT:      -7.4      0.000      0.000
REMARK  Name = NuBBE_539
REMARK  5 active torsions:
REMARK  status: ('A' for Active; 'I' for Inactive)
REMARK    1  A    between atoms: O_1  and  C_2
REMARK    2  A    between atoms: C_2  and  C_4
REMARK    3  A    between atoms: C_2  and  C_13
REMARK    4  A    between atoms: C_4  and  C_5
REMARK    5  A    between atoms: C_14  and  C_15
REMARK                            x       y       z     vdW  Elec       q    Type
REMARK                         _______ _______ _______ _____ _____    ______ ____
ROOT
ATOM      1  C   LIG A   1      -8.266   2.790 122.865  0.00  0.00    +0.141 C 
ENDROOT
BRANCH   1   2
ATOM      2  O   LIG A   1      -8.759   3.698 123.850  0.00  0.00    -0.388 OA
ATOM      3  H   LIG A   1      -7.994   4.196 124.187  0.00  0.00    +0.210 HD
ENDBRANCH   1   2
BRANCH   1   4
ATOM      4  C   LIG A   1      -8.751   1.423 123.269  0.00  0.00    +0.005 C 
ATOM      5  C   LIG A   1      -7.981   0.434 123.761  0.00  0.00    +0.006 C 
BRANCH   5   6
ATOM      6  C   LIG A   1      -8.480  -0.926 124.053  0.00  0.00    -0.025 A 
ATOM      7  C   LIG A   1      -8.693  -1.365 125.368  0.00  0.00    +0.008 A 
ATOM      8  C   LIG A   1      -9.167  -2.653 125.631  0.00  0.00    +0.001 A 
ATOM      9  C   LIG A   1      -9.459  -3.516 124.581  0.00  0.00    +0.000 A 
ATOM     10  C   LIG A   1      -9.291  -3.084 123.266  0.00  0.00    +0.001 A 
ATOM     11  C   LIG A   1      -8.812  -1.794 123.003  0.00  0.00    +0.008 A 
ENDBRANCH   5   6
ENDBRANCH   1   4
BRANCH   1  12
ATOM     12  C   LIG A   1      -6.733   2.905 122.848  0.00  0.00    +0.080 C 
BRANCH  12  13
ATOM     13  C   LIG A   1      -6.210   3.467 121.512  0.00  0.00    +0.183 C 
ATOM     14  O   LIG A   1      -5.483   4.686 121.780  0.00  0.00    -0.458 OA
ATOM     15  C   LIG A   1      -5.005   5.401 120.728  0.00  0.00    +0.332 C 
ATOM     16  C   LIG A   1      -5.718   5.237 119.445  0.00  0.00    +0.087 C 
ATOM     17  C   LIG A   1      -6.832   4.500 119.349  0.00  0.00    -0.016 C 
ATOM     18  C   LIG A   1      -7.352   3.735 120.525  0.00  0.00    +0.072 C 
ATOM     19  O   LIG A   1      -4.084   6.194 120.833  0.00  0.00    -0.246 OA
ENDBRANCH  12  13
ENDBRANCH   1  12
TORSDOF 5
ENDMDL
MODEL 2
REMARK VINA RESULT:      -7.3      3.047      7.217
REMARK  Name = NuBBE_539
REMARK  5 active torsions:
REMARK  status: ('A' for Active; 'I' for Inactive)
REMARK    1  A    between atoms: O_1  and  C_2
REMARK    2  A    between atoms: C_2  and  C_4
REMARK    3  A    between atoms: C_2  and  C_13
REMARK    4  A    between atoms: C_4  and  C_5
REMARK    5  A    between atoms: C_14  and  C_15
REMARK                            x       y       z     vdW  Elec       q    Type
REMARK                         _______ _______ _______ _____ _____    ______ ____
ROOT
ATOM      1  C   LIG A   1      -9.767   1.557 124.604  0.00  0.00    +0.141 C 
ENDROOT
BRANCH   1   2
ATOM      2  O   LIG A   1     -10.959   0.909 124.158  0.00  0.00    -0.388 OA
ATOM      3  H   LIG A   1     -11.402   1.519 123.542  0.00  0.00    +0.210 HD
ENDBRANCH   1   2
BRANCH   1   4
ATOM      4  C   LIG A   1      -9.018   1.965 123.364  0.00  0.00    +0.005 C 
ATOM      5  C   LIG A   1      -8.312   3.102 123.216  0.00  0.00    +0.006 C 
BRANCH   5   6
ATOM      6  C   LIG A   1      -7.672   3.510 121.948  0.00  0.00    -0.025 A 
ATOM      7  C   LIG A   1      -6.277   3.584 121.817  0.00  0.00    +0.008 A 
ATOM      8  C   LIG A   1      -5.684   3.969 120.612  0.00  0.00    +0.001 A 
ATOM      9  C   LIG A   1      -6.477   4.266 119.509  0.00  0.00    +0.000 A 
ATOM     10  C   LIG A   1      -7.864   4.162 119.609  0.00  0.00    +0.001 A 
ATOM     11  C   LIG A   1      -8.458   3.779 120.818  0.00  0.00    +0.008 A 
ENDBRANCH   5   6
ENDBRANCH   1   4
BRANCH   1  12
ATOM     12  C   LIG A   1      -8.991   0.557 125.477  0.00  0.00    +0.080 C 
BRANCH  12  13
ATOM     13  C   LIG A   1      -8.437  -0.621 124.653  0.00  0.00    +0.183 C 
ATOM     14  O   LIG A   1      -9.484  -1.603 124.494  0.00  0.00    -0.458 OA
ATOM     15  C   LIG A   1      -9.188  -2.773 123.869  0.00  0.00    +0.332 C 
ATOM     16  C   LIG A   1      -7.776  -3.204 123.920  0.00  0.00    +0.087 C 
ATOM     17  C   LIG A   1      -6.860  -2.529 124.626  0.00  0.00    -0.016 C 
ATOM     18  C   LIG A   1      -7.212  -1.253 125.322  0.00  0.00    +0.072 C 
ATOM     19  O   LIG A   1     -10.038  -3.477 123.350  0.00  0.00    -0.246 OA
ENDBRANCH  12  13
ENDBRANCH   1  12
TORSDOF 5
ENDMDL
MODEL 3
REMARK VINA RESULT:      -7.2      2.395      7.322
REMARK  Name = NuBBE_539
REMARK  5 active torsions:
REMARK  status: ('A' for Active; 'I' for Inactive)
REMARK    1  A    between atoms: O_1  and  C_2
REMARK    2  A    between atoms: C_2  and  C_4
REMARK    3  A    between atoms: C_2  and  C_13
REMARK    4  A    between atoms: C_4  and  C_5
REMARK    5  A    between atoms: C_14  and  C_15
REMARK                            x       y       z     vdW  Elec       q    Type
REMARK                         _______ _______ _______ _____ _____    ______ ____
ROOT
ATOM      1  C   LIG A   1      -7.906   2.414 124.642  0.00  0.00    +0.141 C 
ENDROOT
BRANCH   1   2
ATOM      2  O   LIG A   1      -9.300   2.105 124.591  0.00  0.00    -0.388 OA
ATOM      3  H   LIG A   1      -9.717   2.543 125.353  0.00  0.00    +0.210 HD
ENDBRANCH   1   2
BRANCH   1   4
ATOM      4  C   LIG A   1      -7.609   3.231 123.412  0.00  0.00    +0.005 C 
ATOM      5  C   LIG A   1      -6.826   2.842 122.388  0.00  0.00    +0.006 C 
BRANCH   5   6
ATOM      6  C   LIG A   1      -6.481   3.713 121.245  0.00  0.00    -0.025 A 
ATOM      7  C   LIG A   1      -7.355   3.889 120.162  0.00  0.00    +0.008 A 
ATOM      8  C   LIG A   1      -7.018   4.717 119.088  0.00  0.00    +0.001 A 
ATOM      9  C   LIG A   1      -5.808   5.402 119.090  0.00  0.00    +0.000 A 
ATOM     10  C   LIG A   1      -4.942   5.270 120.175  0.00  0.00    +0.001 A 
ATOM     11  C   LIG A   1      -5.280   4.437 121.250  0.00  0.00    +0.008 A 
ENDBRANCH   5   6
ENDBRANCH   1   4
BRANCH   1  12
ATOM     12  C   LIG A   1      -7.134   1.086 124.686  0.00  0.00    +0.080 C 
BRANCH  12  13
ATOM     13  C   LIG A   1      -7.948  -0.076 124.085  0.00  0.00    +0.183 C 
ATOM     14  O   LIG A   1      -8.441  -0.899 125.165  0.00  0.00    -0.458 OA
ATOM     15  C   LIG A   1      -9.118  -2.037 124.858  0.00  0.00    +0.332 C 
ATOM     16  C   LIG A   1      -8.813  -2.648 123.548  0.00  0.00    +0.087 C 
ATOM     17  C   LIG A   1      -7.853  -2.161 122.752  0.00  0.00    -0.016 C 
ATOM     18  C   LIG A   1      -7.107  -0.916 123.117  0.00  0.00    +0.072 C 
ATOM     19  O   LIG A   1      -9.885  -2.578 125.636  0.00  0.00    -0.246 OA
ENDBRANCH  12  13
ENDBRANCH   1  12
TORSDOF 5
ENDMDL
MODEL 4
REMARK VINA RESULT:      -7.1      1.868      2.509
REMARK  Name = NuBBE_539
REMARK  5 active torsions:
REMARK  status: ('A' for Active; 'I' for Inactive)
REMARK    1  A    between atoms: O_1  and  C_2
REMARK    2  A    between atoms: C_2  and  C_4
REMARK    3  A    between atoms: C_2  and  C_13
REMARK    4  A    between atoms: C_4  and  C_5
REMARK    5  A    between atoms: C_14  and  C_15
REMARK                            x       y       z     vdW  Elec       q    Type
REMARK                         _______ _______ _______ _____ _____    ______ ____
ROOT
ATOM      1  C   LIG A   1      -9.356   1.915 123.257  0.00  0.00    +0.141 C 
ENDROOT
BRANCH   1   2
ATOM      2  O   LIG A   1      -9.394   2.633 124.490  0.00  0.00    -0.388 OA
ATOM      3  H   LIG A   1     -10.018   3.371 124.371  0.00  0.00    +0.210 HD
ENDBRANCH   1   2
BRANCH   1   4
ATOM      4  C   LIG A   1      -8.408   0.764 123.467  0.00  0.00    +0.005 C 
ATOM      5  C   LIG A   1      -8.657  -0.522 123.151  0.00  0.00    +0.006 C 
BRANCH   5   6
ATOM      6  C   LIG A   1      -7.738  -1.635 123.465  0.00  0.00    -0.025 A 
ATOM      7  C   LIG A   1      -6.371  -1.571 123.156  0.00  0.00    +0.008 A 
ATOM      8  C   LIG A   1      -5.512  -2.631 123.460  0.00  0.00    +0.001 A 
ATOM      9  C   LIG A   1      -6.002  -3.764 124.098  0.00  0.00    +0.000 A 
ATOM     10  C   LIG A   1      -7.351  -3.831 124.447  0.00  0.00    +0.001 A 
ATOM     11  C   LIG A   1      -8.212  -2.770 124.140  0.00  0.00    +0.008 A 
ENDBRANCH   5   6
ENDBRANCH   1   4
BRANCH   1  12
ATOM     12  C   LIG A   1      -8.888   2.888 122.163  0.00  0.00    +0.080 C 
BRANCH  12  13
ATOM     13  C   LIG A   1      -7.362   3.097 122.188  0.00  0.00    +0.183 C 
ATOM     14  O   LIG A   1      -7.021   3.852 123.370  0.00  0.00    -0.458 OA
ATOM     15  C   LIG A   1      -5.727   4.228 123.551  0.00  0.00    +0.332 C 
ATOM     16  C   LIG A   1      -4.907   4.363 122.330  0.00  0.00    +0.087 C 
ATOM     17  C   LIG A   1      -5.437   4.219 121.108  0.00  0.00    -0.016 C 
ATOM     18  C   LIG A   1      -6.869   3.823 120.932  0.00  0.00    +0.072 C 
ATOM     19  O   LIG A   1      -5.268   4.510 124.645  0.00  0.00    -0.246 OA
ENDBRANCH  12  13
ENDBRANCH   1  12
TORSDOF 5
ENDMDL
MODEL 5
REMARK VINA RESULT:      -7.1      2.434      7.100
REMARK  Name = NuBBE_539
REMARK  5 active torsions:
REMARK  status: ('A' for Active; 'I' for Inactive)
REMARK    1  A    between atoms: O_1  and  C_2
REMARK    2  A    between atoms: C_2  and  C_4
REMARK    3  A    between atoms: C_2  and  C_13
REMARK    4  A    between atoms: C_4  and  C_5
REMARK    5  A    between atoms: C_14  and  C_15
REMARK                            x       y       z     vdW  Elec       q    Type
REMARK                         _______ _______ _______ _____ _____    ______ ____
ROOT
ATOM      1  C   LIG A   1      -8.567   1.742 124.102  0.00  0.00    +0.141 C 
ENDROOT
BRANCH   1   2
ATOM      2  O   LIG A   1      -9.667   2.522 124.572  0.00  0.00    -0.388 OA
ATOM      3  H   LIG A   1      -9.315   3.139 125.238  0.00  0.00    +0.210 HD
ENDBRANCH   1   2
BRANCH   1   4
ATOM      4  C   LIG A   1      -7.764   2.644 123.202  0.00  0.00    +0.005 C 
ATOM      5  C   LIG A   1      -8.053   2.924 121.917  0.00  0.00    +0.006 C 
BRANCH   5   6
ATOM      6  C   LIG A   1      -7.184   3.737 121.041  0.00  0.00    -0.025 A 
ATOM      7  C   LIG A   1      -5.878   4.086 121.416  0.00  0.00    +0.008 A 
ATOM      8  C   LIG A   1      -5.066   4.853 120.578  0.00  0.00    +0.001 A 
ATOM      9  C   LIG A   1      -5.538   5.265 119.337  0.00  0.00    +0.000 A 
ATOM     10  C   LIG A   1      -6.819   4.895 118.929  0.00  0.00    +0.001 A 
ATOM     11  C   LIG A   1      -7.635   4.129 119.772  0.00  0.00    +0.008 A 
ENDBRANCH   5   6
ENDBRANCH   1   4
BRANCH   1  12
ATOM     12  C   LIG A   1      -9.140   0.518 123.371  0.00  0.00    +0.080 C 
BRANCH  12  13
ATOM     13  C   LIG A   1      -8.609  -0.805 123.956  0.00  0.00    +0.183 C 
ATOM     14  O   LIG A   1      -7.172  -0.823 123.819  0.00  0.00    -0.458 OA
ATOM     15  C   LIG A   1      -6.497  -1.943 124.194  0.00  0.00    +0.332 C 
ATOM     16  C   LIG A   1      -7.256  -3.209 124.153  0.00  0.00    +0.087 C 
ATOM     17  C   LIG A   1      -8.508  -3.264 123.680  0.00  0.00    -0.016 C 
ATOM     18  C   LIG A   1      -9.225  -2.022 123.256  0.00  0.00    +0.072 C 
ATOM     19  O   LIG A   1      -5.313  -1.934 124.483  0.00  0.00    -0.246 OA
ENDBRANCH  12  13
ENDBRANCH   1  12
TORSDOF 5
ENDMDL
MODEL 6
REMARK VINA RESULT:      -6.9      8.799     10.672
REMARK  Name = NuBBE_539
REMARK  5 active torsions:
REMARK  status: ('A' for Active; 'I' for Inactive)
REMARK    1  A    between atoms: O_1  and  C_2
REMARK    2  A    between atoms: C_2  and  C_4
REMARK    3  A    between atoms: C_2  and  C_13
REMARK    4  A    between atoms: C_4  and  C_5
REMARK    5  A    between atoms: C_14  and  C_15
REMARK                            x       y       z     vdW  Elec       q    Type
REMARK                         _______ _______ _______ _____ _____    ______ ____
ROOT
ATOM      1  C   LIG A   1      -9.320   6.322 130.997  0.00  0.00    +0.141 C 
ENDROOT
BRANCH   1   2
ATOM      2  O   LIG A   1     -10.063   6.571 132.191  0.00  0.00    -0.388 OA
ATOM      3  H   LIG A   1      -9.428   6.868 132.865  0.00  0.00    +0.210 HD
ENDBRANCH   1   2
BRANCH   1   4
ATOM      4  C   LIG A   1      -7.871   6.268 131.404  0.00  0.00    +0.005 C 
ATOM      5  C   LIG A   1      -6.900   7.082 130.946  0.00  0.00    +0.006 C 
BRANCH   5   6
ATOM      6  C   LIG A   1      -5.473   6.932 131.298  0.00  0.00    -0.025 A 
ATOM      7  C   LIG A   1      -4.457   7.503 130.516  0.00  0.00    +0.008 A 
ATOM      8  C   LIG A   1      -3.111   7.356 130.859  0.00  0.00    +0.001 A 
ATOM      9  C   LIG A   1      -2.759   6.653 132.006  0.00  0.00    +0.000 A 
ATOM     10  C   LIG A   1      -3.754   6.111 132.817  0.00  0.00    +0.001 A 
ATOM     11  C   LIG A   1      -5.104   6.256 132.470  0.00  0.00    +0.008 A 
ENDBRANCH   5   6
ENDBRANCH   1   4
BRANCH   1  12
ATOM     12  C   LIG A   1      -9.627   7.460 130.010  0.00  0.00    +0.080 C 
BRANCH  12  13
ATOM     13  C   LIG A   1     -10.568   7.005 128.878  0.00  0.00    +0.183 C 
ATOM     14  O   LIG A   1     -10.321   7.827 127.717  0.00  0.00    -0.458 OA
ATOM     15  C   LIG A   1     -11.106   7.655 126.620  0.00  0.00    +0.332 C 
ATOM     16  C   LIG A   1     -12.456   7.108 126.860  0.00  0.00    +0.087 C 
ATOM     17  C   LIG A   1     -12.915   6.886 128.099  0.00  0.00    -0.016 C 
ATOM     18  C   LIG A   1     -12.040   7.099 129.293  0.00  0.00    +0.072 C 
ATOM     19  O   LIG A   1     -10.759   7.994 125.502  0.00  0.00    -0.246 OA
ENDBRANCH  12  13
ENDBRANCH   1  12
TORSDOF 5
ENDMDL
MODEL 7
REMARK VINA RESULT:      -6.9      9.360     10.913
REMARK  Name = NuBBE_539
REMARK  5 active torsions:
REMARK  status: ('A' for Active; 'I' for Inactive)
REMARK    1  A    between atoms: O_1  and  C_2
REMARK    2  A    between atoms: C_2  and  C_4
REMARK    3  A    between atoms: C_2  and  C_13
REMARK    4  A    between atoms: C_4  and  C_5
REMARK    5  A    between atoms: C_14  and  C_15
REMARK                            x       y       z     vdW  Elec       q    Type
REMARK                         _______ _______ _______ _____ _____    ______ ____
ROOT
ATOM      1  C   LIG A   1     -10.729   5.104 130.463  0.00  0.00    +0.141 C 
ENDROOT
BRANCH   1   2
ATOM      2  O   LIG A   1     -11.206   3.792 130.766  0.00  0.00    -0.388 OA
ATOM      3  H   LIG A   1     -12.131   3.748 130.465  0.00  0.00    +0.210 HD
ENDBRANCH   1   2
BRANCH   1   4
ATOM      4  C   LIG A   1      -9.338   5.189 131.031  0.00  0.00    +0.005 C 
ATOM      5  C   LIG A   1      -8.658   6.328 131.267  0.00  0.00    +0.006 C 
BRANCH   5   6
ATOM      6  C   LIG A   1      -7.257   6.364 131.734  0.00  0.00    -0.025 A 
ATOM      7  C   LIG A   1      -6.868   5.773 132.945  0.00  0.00    +0.008 A 
ATOM      8  C   LIG A   1      -5.539   5.812 133.374  0.00  0.00    +0.001 A 
ATOM      9  C   LIG A   1      -4.571   6.425 132.587  0.00  0.00    +0.000 A 
ATOM     10  C   LIG A   1      -4.931   6.986 131.362  0.00  0.00    +0.001 A 
ATOM     11  C   LIG A   1      -6.264   6.949 130.934  0.00  0.00    +0.008 A 
ENDBRANCH   5   6
ENDBRANCH   1   4
BRANCH   1  12
ATOM     12  C   LIG A   1     -11.702   6.112 131.096  0.00  0.00    +0.080 C 
BRANCH  12  13
ATOM     13  C   LIG A   1     -12.534   6.857 130.034  0.00  0.00    +0.183 C 
ATOM     14  O   LIG A   1     -12.030   6.506 128.727  0.00  0.00    -0.458 OA
ATOM     15  C   LIG A   1     -12.565   7.120 127.638  0.00  0.00    +0.332 C 
ATOM     16  C   LIG A   1     -13.161   8.452 127.864  0.00  0.00    +0.087 C 
ATOM     17  C   LIG A   1     -13.090   9.062 129.054  0.00  0.00    -0.016 C 
ATOM     18  C   LIG A   1     -12.480   8.375 130.235  0.00  0.00    +0.072 C 
ATOM     19  O   LIG A   1     -12.504   6.645 126.517  0.00  0.00    -0.246 OA
ENDBRANCH  12  13
ENDBRANCH   1  12
TORSDOF 5
ENDMDL
MODEL 8
REMARK VINA RESULT:      -6.9      2.804      3.812
REMARK  Name = NuBBE_539
REMARK  5 active torsions:
REMARK  status: ('A' for Active; 'I' for Inactive)
REMARK    1  A    between atoms: O_1  and  C_2
REMARK    2  A    between atoms: C_2  and  C_4
REMARK    3  A    between atoms: C_2  and  C_13
REMARK    4  A    between atoms: C_4  and  C_5
REMARK    5  A    between atoms: C_14  and  C_15
REMARK                            x       y       z     vdW  Elec       q    Type
REMARK                         _______ _______ _______ _____ _____    ______ ____
ROOT
ATOM      1  C   LIG A   1      -9.804   1.308 123.368  0.00  0.00    +0.141 C 
ENDROOT
BRANCH   1   2
ATOM      2  O   LIG A   1     -10.526   1.703 124.535  0.00  0.00    -0.388 OA
ATOM      3  H   LIG A   1      -9.868   1.968 125.201  0.00  0.00    +0.210 HD
ENDBRANCH   1   2
BRANCH   1   4
ATOM      4  C   LIG A   1      -8.924   0.158 123.784  0.00  0.00    +0.005 C 
ATOM      5  C   LIG A   1      -8.169  -0.587 122.955  0.00  0.00    +0.006 C 
BRANCH   5   6
ATOM      6  C   LIG A   1      -7.396  -1.768 123.391  0.00  0.00    -0.025 A 
ATOM      7  C   LIG A   1      -8.000  -2.832 124.079  0.00  0.00    +0.008 A 
ATOM      8  C   LIG A   1      -7.259  -3.944 124.484  0.00  0.00    +0.001 A 
ATOM      9  C   LIG A   1      -5.903  -4.023 124.187  0.00  0.00    +0.000 A 
ATOM     10  C   LIG A   1      -5.292  -2.994 123.471  0.00  0.00    +0.001 A 
ATOM     11  C   LIG A   1      -6.036  -1.877 123.068  0.00  0.00    +0.008 A 
ENDBRANCH   5   6
ENDBRANCH   1   4
BRANCH   1  12
ATOM     12  C   LIG A   1      -9.009   2.527 122.875  0.00  0.00    +0.080 C 
BRANCH  12  13
ATOM     13  C   LIG A   1      -8.017   3.038 123.937  0.00  0.00    +0.183 C 
ATOM     14  O   LIG A   1      -8.698   3.990 124.782  0.00  0.00    -0.458 OA
ATOM     15  C   LIG A   1      -7.983   4.637 125.741  0.00  0.00    +0.332 C 
ATOM     16  C   LIG A   1      -6.534   4.778 125.494  0.00  0.00    +0.087 C 
ATOM     17  C   LIG A   1      -5.975   4.378 124.345  0.00  0.00    -0.016 C 
ATOM     18  C   LIG A   1      -6.784   3.685 123.295  0.00  0.00    +0.072 C 
ATOM     19  O   LIG A   1      -8.501   5.141 126.723  0.00  0.00    -0.246 OA
ENDBRANCH  12  13
ENDBRANCH   1  12
TORSDOF 5
ENDMDL
MODEL 9
REMARK VINA RESULT:      -6.6     10.069     11.868
REMARK  Name = NuBBE_539
REMARK  5 active torsions:
REMARK  status: ('A' for Active; 'I' for Inactive)
REMARK    1  A    between atoms: O_1  and  C_2
REMARK    2  A    between atoms: C_2  and  C_4
REMARK    3  A    between atoms: C_2  and  C_13
REMARK    4  A    between atoms: C_4  and  C_5
REMARK    5  A    between atoms: C_14  and  C_15
REMARK                            x       y       z     vdW  Elec       q    Type
REMARK                         _______ _______ _______ _____ _____    ______ ____
ROOT
ATOM      1  C   LIG A   1      -8.801   5.395 132.590  0.00  0.00    +0.141 C 
ENDROOT
BRANCH   1   2
ATOM      2  O   LIG A   1      -9.642   6.208 133.408  0.00  0.00    -0.388 OA
ATOM      3  H   LIG A   1     -10.419   6.446 132.872  0.00  0.00    +0.210 HD
ENDBRANCH   1   2
BRANCH   1   4
ATOM      4  C   LIG A   1      -7.438   6.033 132.617  0.00  0.00    +0.005 C 
ATOM      5  C   LIG A   1      -6.626   6.188 131.554  0.00  0.00    +0.006 C 
BRANCH   5   6
ATOM      6  C   LIG A   1      -5.255   6.732 131.643  0.00  0.00    -0.025 A 
ATOM      7  C   LIG A   1      -4.417   6.444 132.731  0.00  0.00    +0.008 A 
ATOM      8  C   LIG A   1      -3.122   6.963 132.802  0.00  0.00    +0.001 A 
ATOM      9  C   LIG A   1      -2.634   7.761 131.774  0.00  0.00    +0.000 A 
ATOM     10  C   LIG A   1      -3.437   8.027 130.666  0.00  0.00    +0.001 A 
ATOM     11  C   LIG A   1      -4.737   7.509 130.597  0.00  0.00    +0.008 A 
ENDBRANCH   5   6
ENDBRANCH   1   4
BRANCH   1  12
ATOM     12  C   LIG A   1      -9.418   5.352 131.183  0.00  0.00    +0.080 C 
BRANCH  12  13
ATOM     13  C   LIG A   1     -10.268   6.602 130.886  0.00  0.00    +0.183 C 
ATOM     14  O   LIG A   1     -11.632   6.334 131.278  0.00  0.00    -0.458 OA
ATOM     15  C   LIG A   1     -12.578   7.277 131.023  0.00  0.00    +0.332 C 
ATOM     16  C   LIG A   1     -12.303   8.196 129.901  0.00  0.00    +0.087 C 
ATOM     17  C   LIG A   1     -11.227   8.046 129.117  0.00  0.00    -0.016 C 
ATOM     18  C   LIG A   1     -10.207   6.990 129.404  0.00  0.00    +0.072 C 
ATOM     19  O   LIG A   1     -13.634   7.332 131.631  0.00  0.00    -0.246 OA
ENDBRANCH  12  13
ENDBRANCH   1  12
TORSDOF 5
ENDMDL
