MODEL 1
REMARK VINA RESULT:      -8.1      0.000      0.000
REMARK  Name = NuBBE_1211
REMARK  12 active torsions:
REMARK  status: ('A' for Active; 'I' for Inactive)
REMARK    1  A    between atoms: O_1  and  C_2
REMARK    2  A    between atoms: C_7  and  C_8
REMARK    3  A    between atoms: C_16  and  C_17
REMARK    4  A    between atoms: C_21  and  C_22
REMARK    5  A    between atoms: C_22  and  C_23
REMARK    6  A    between atoms: C_22  and  C_31
REMARK    7  A    between atoms: C_23  and  O_24
REMARK    8  A    between atoms: C_23  and  C_25
REMARK    9  A    between atoms: C_25  and  C_26
REMARK   10  A    between atoms: C_26  and  C_27
REMARK   11  A    between atoms: C_27  and  C_28
REMARK   12  A    between atoms: C_27  and  C_29
REMARK                            x       y       z     vdW  Elec       q    Type
REMARK                         _______ _______ _______ _____ _____    ______ ____
ROOT
ATOM      1  C   LIG A   1     -10.137   5.151 132.447  0.00  0.00    +0.119 C 
ATOM      2  C   LIG A   1      -8.894   4.467 133.030  0.00  0.00    +0.062 C 
ATOM      3  C   LIG A   1     -10.087   5.267 130.925  0.00  0.00    +0.032 C 
ATOM      4  C   LIG A   1      -9.767   3.930 130.266  0.00  0.00    +0.013 C 
ATOM      5  C   LIG A   1      -8.449   3.283 130.786  0.00  0.00    -0.008 C 
ATOM      6  C   LIG A   1      -7.248   4.196 130.413  0.00  0.00    +0.016 C 
ATOM      7  C   LIG A   1      -8.540   3.186 132.309  0.00  0.00    -0.065 C 
ATOM      8  C   LIG A   1      -8.334   2.034 132.984  0.00  0.00    -0.027 C 
ATOM      9  C   LIG A   1      -7.941   0.733 132.343  0.00  0.00    +0.031 C 
ATOM     10  C   LIG A   1      -7.372   0.925 130.930  0.00  0.00    +0.000 C 
ATOM     11  C   LIG A   1      -8.309   1.859 130.122  0.00  0.00    +0.003 C 
ATOM     12  C   LIG A   1      -7.881   1.972 128.659  0.00  0.00    +0.005 C 
ATOM     13  C   LIG A   1      -7.666   0.624 128.018  0.00  0.00    +0.007 C 
ATOM     14  C   LIG A   1      -6.608  -0.244 128.743  0.00  0.00    -0.026 C 
ATOM     15  C   LIG A   1      -5.195   0.381 128.710  0.00  0.00    +0.012 C 
ATOM     16  C   LIG A   1      -7.021  -0.419 130.230  0.00  0.00    -0.001 C 
ATOM     17  C   LIG A   1      -8.113  -1.486 130.159  0.00  0.00    +0.004 C 
ATOM     18  C   LIG A   1      -7.679  -2.436 129.031  0.00  0.00    +0.005 C 
ATOM     19  C   LIG A   1      -6.601  -1.712 128.185  0.00  0.00    +0.001 C 
ENDROOT
BRANCH   1  20
ATOM     20  O   LIG A   1     -10.265   6.469 132.979  0.00  0.00    -0.392 OA
ATOM     21  H   LIG A   1      -9.378   6.868 132.992  0.00  0.00    +0.210 HD
ENDBRANCH   1  20
BRANCH  19  22
ATOM     22  C   LIG A   1      -6.802  -1.884 126.635  0.00  0.00    +0.018 C 
ATOM     23  C   LIG A   1      -5.492  -2.284 125.923  0.00  0.00    +0.010 C 
BRANCH  22  24
ATOM     24  C   LIG A   1      -7.976  -2.842 126.211  0.00  0.00    +0.122 C 
BRANCH  24  25
ATOM     25  O   LIG A   1      -9.197  -2.088 126.261  0.00  0.00    -0.391 OA
ATOM     26  H   LIG A   1      -9.019  -1.246 126.710  0.00  0.00    +0.210 HD
ENDBRANCH  24  25
BRANCH  24  27
ATOM     27  C   LIG A   1      -7.801  -3.515 124.822  0.00  0.00    +0.062 C 
BRANCH  27  28
ATOM     28  C   LIG A   1      -8.529  -2.904 123.619  0.00  0.00    -0.072 C 
ATOM     29  C   LIG A   1      -9.741  -3.402 123.253  0.00  0.00    +0.008 C 
BRANCH  28  30
ATOM     30  C   LIG A   1      -7.802  -1.843 122.783  0.00  0.00    +0.008 C 
ATOM     31  C   LIG A   1      -7.928  -0.438 123.395  0.00  0.00    +0.012 C 
ATOM     32  C   LIG A   1      -6.313  -2.120 122.518  0.00  0.00    +0.012 C 
ENDBRANCH  28  30
ENDBRANCH  27  28
ENDBRANCH  24  27
ENDBRANCH  22  24
ENDBRANCH  19  22
TORSDOF 7
ENDMDL
MODEL 2
REMARK VINA RESULT:      -8.1      5.869      8.802
REMARK  Name = NuBBE_1211
REMARK  12 active torsions:
REMARK  status: ('A' for Active; 'I' for Inactive)
REMARK    1  A    between atoms: O_1  and  C_2
REMARK    2  A    between atoms: C_7  and  C_8
REMARK    3  A    between atoms: C_16  and  C_17
REMARK    4  A    between atoms: C_21  and  C_22
REMARK    5  A    between atoms: C_22  and  C_23
REMARK    6  A    between atoms: C_22  and  C_31
REMARK    7  A    between atoms: C_23  and  O_24
REMARK    8  A    between atoms: C_23  and  C_25
REMARK    9  A    between atoms: C_25  and  C_26
REMARK   10  A    between atoms: C_26  and  C_27
REMARK   11  A    between atoms: C_27  and  C_28
REMARK   12  A    between atoms: C_27  and  C_29
REMARK                            x       y       z     vdW  Elec       q    Type
REMARK                         _______ _______ _______ _____ _____    ______ ____
ROOT
ATOM      1  C   LIG A   1      -0.671   7.080 133.199  0.00  0.00    +0.119 C 
ATOM      2  C   LIG A   1      -0.817   5.791 132.381  0.00  0.00    +0.062 C 
ATOM      3  C   LIG A   1      -1.726   8.125 132.845  0.00  0.00    +0.032 C 
ATOM      4  C   LIG A   1      -3.135   7.543 132.880  0.00  0.00    +0.013 C 
ATOM      5  C   LIG A   1      -3.310   6.292 131.968  0.00  0.00    -0.008 C 
ATOM      6  C   LIG A   1      -3.098   6.704 130.485  0.00  0.00    +0.016 C 
ATOM      7  C   LIG A   1      -2.238   5.273 132.354  0.00  0.00    -0.065 C 
ATOM      8  C   LIG A   1      -2.524   3.990 132.669  0.00  0.00    -0.027 C 
ATOM      9  C   LIG A   1      -3.902   3.394 132.627  0.00  0.00    +0.031 C 
ATOM     10  C   LIG A   1      -4.878   4.230 131.786  0.00  0.00    +0.000 C 
ATOM     11  C   LIG A   1      -4.762   5.720 132.198  0.00  0.00    +0.003 C 
ATOM     12  C   LIG A   1      -5.813   6.587 131.504  0.00  0.00    +0.005 C 
ATOM     13  C   LIG A   1      -7.204   6.024 131.643  0.00  0.00    +0.007 C 
ATOM     14  C   LIG A   1      -7.350   4.588 131.083  0.00  0.00    -0.026 C 
ATOM     15  C   LIG A   1      -7.098   4.510 129.560  0.00  0.00    +0.012 C 
ATOM     16  C   LIG A   1      -6.324   3.658 131.787  0.00  0.00    -0.001 C 
ATOM     17  C   LIG A   1      -6.978   3.389 133.142  0.00  0.00    +0.004 C 
ATOM     18  C   LIG A   1      -8.487   3.328 132.859  0.00  0.00    +0.005 C 
ATOM     19  C   LIG A   1      -8.739   3.966 131.469  0.00  0.00    +0.001 C 
ENDROOT
BRANCH   1  20
ATOM     20  O   LIG A   1       0.611   7.662 132.970  0.00  0.00    -0.392 OA
ATOM     21  H   LIG A   1       0.469   8.552 132.607  0.00  0.00    +0.210 HD
ENDBRANCH   1  20
BRANCH  19  22
ATOM     22  C   LIG A   1      -9.981   4.930 131.438  0.00  0.00    +0.018 C 
ATOM     23  C   LIG A   1      -9.959   5.937 132.609  0.00  0.00    +0.010 C 
BRANCH  22  24
ATOM     24  C   LIG A   1     -10.221   5.675 130.073  0.00  0.00    +0.122 C 
BRANCH  24  25
ATOM     25  O   LIG A   1     -11.417   5.140 129.487  0.00  0.00    -0.391 OA
ATOM     26  H   LIG A   1     -11.834   4.544 130.130  0.00  0.00    +0.210 HD
ENDBRANCH  24  25
BRANCH  24  27
ATOM     27  C   LIG A   1     -10.303   7.223 130.179  0.00  0.00    +0.062 C 
BRANCH  27  28
ATOM     28  C   LIG A   1     -11.219   7.972 129.203  0.00  0.00    -0.072 C 
ATOM     29  C   LIG A   1     -10.709   8.423 128.026  0.00  0.00    +0.008 C 
BRANCH  28  30
ATOM     30  C   LIG A   1     -12.646   8.311 129.652  0.00  0.00    +0.008 C 
ATOM     31  C   LIG A   1     -12.917   7.871 131.100  0.00  0.00    +0.012 C 
ATOM     32  C   LIG A   1     -13.046   9.790 129.516  0.00  0.00    +0.012 C 
ENDBRANCH  28  30
ENDBRANCH  27  28
ENDBRANCH  24  27
ENDBRANCH  22  24
ENDBRANCH  19  22
TORSDOF 7
ENDMDL
MODEL 3
REMARK VINA RESULT:      -7.9      3.940      5.466
REMARK  Name = NuBBE_1211
REMARK  12 active torsions:
REMARK  status: ('A' for Active; 'I' for Inactive)
REMARK    1  A    between atoms: O_1  and  C_2
REMARK    2  A    between atoms: C_7  and  C_8
REMARK    3  A    between atoms: C_16  and  C_17
REMARK    4  A    between atoms: C_21  and  C_22
REMARK    5  A    between atoms: C_22  and  C_23
REMARK    6  A    between atoms: C_22  and  C_31
REMARK    7  A    between atoms: C_23  and  O_24
REMARK    8  A    between atoms: C_23  and  C_25
REMARK    9  A    between atoms: C_25  and  C_26
REMARK   10  A    between atoms: C_26  and  C_27
REMARK   11  A    between atoms: C_27  and  C_28
REMARK   12  A    between atoms: C_27  and  C_29
REMARK                            x       y       z     vdW  Elec       q    Type
REMARK                         _______ _______ _______ _____ _____    ______ ____
ROOT
ATOM      1  C   LIG A   1      -1.043   6.097 132.390  0.00  0.00    +0.119 C 
ATOM      2  C   LIG A   1      -1.794   6.857 131.290  0.00  0.00    +0.062 C 
ATOM      3  C   LIG A   1      -1.871   4.966 132.996  0.00  0.00    +0.032 C 
ATOM      4  C   LIG A   1      -2.457   4.055 131.923  0.00  0.00    +0.013 C 
ATOM      5  C   LIG A   1      -3.306   4.816 130.861  0.00  0.00    -0.008 C 
ATOM      6  C   LIG A   1      -4.546   5.447 131.553  0.00  0.00    +0.016 C 
ATOM      7  C   LIG A   1      -2.443   5.936 130.282  0.00  0.00    -0.065 C 
ATOM      8  C   LIG A   1      -2.248   6.100 128.954  0.00  0.00    -0.027 C 
ATOM      9  C   LIG A   1      -2.887   5.252 127.892  0.00  0.00    +0.031 C 
ATOM     10  C   LIG A   1      -4.107   4.479 128.414  0.00  0.00    +0.000 C 
ATOM     11  C   LIG A   1      -3.738   3.783 129.750  0.00  0.00    +0.003 C 
ATOM     12  C   LIG A   1      -4.861   2.874 130.249  0.00  0.00    +0.005 C 
ATOM     13  C   LIG A   1      -5.346   1.924 129.183  0.00  0.00    +0.007 C 
ATOM     14  C   LIG A   1      -5.863   2.636 127.909  0.00  0.00    -0.026 C 
ATOM     15  C   LIG A   1      -7.104   3.518 128.176  0.00  0.00    +0.012 C 
ATOM     16  C   LIG A   1      -4.740   3.547 127.342  0.00  0.00    -0.001 C 
ATOM     17  C   LIG A   1      -3.818   2.555 126.633  0.00  0.00    +0.004 C 
ATOM     18  C   LIG A   1      -4.751   1.483 126.046  0.00  0.00    +0.005 C 
ATOM     19  C   LIG A   1      -6.126   1.607 126.751  0.00  0.00    +0.001 C 
ENDROOT
BRANCH   1  20
ATOM     20  O   LIG A   1      -0.688   6.988 133.445  0.00  0.00    -0.392 OA
ATOM     21  H   LIG A   1      -1.309   6.840 134.178  0.00  0.00    +0.210 HD
ENDBRANCH   1  20
BRANCH  19  22
ATOM     22  C   LIG A   1      -6.747   0.223 127.160  0.00  0.00    +0.018 C 
ATOM     23  C   LIG A   1      -8.209   0.082 126.684  0.00  0.00    +0.010 C 
BRANCH  22  24
ATOM     24  C   LIG A   1      -5.907  -1.042 126.743  0.00  0.00    +0.122 C 
BRANCH  24  25
ATOM     25  O   LIG A   1      -4.950  -1.294 127.784  0.00  0.00    -0.391 OA
ATOM     26  H   LIG A   1      -4.870  -2.255 127.899  0.00  0.00    +0.210 HD
ENDBRANCH  24  25
BRANCH  24  27
ATOM     27  C   LIG A   1      -6.746  -2.314 126.444  0.00  0.00    +0.062 C 
BRANCH  27  28
ATOM     28  C   LIG A   1      -6.841  -2.800 124.992  0.00  0.00    -0.072 C 
ATOM     29  C   LIG A   1      -7.816  -3.684 124.650  0.00  0.00    +0.008 C 
BRANCH  28  30
ATOM     30  C   LIG A   1      -5.746  -2.377 124.005  0.00  0.00    +0.008 C 
ATOM     31  C   LIG A   1      -4.752  -3.516 123.723  0.00  0.00    +0.012 C 
ATOM     32  C   LIG A   1      -6.248  -1.833 122.657  0.00  0.00    +0.012 C 
ENDBRANCH  28  30
ENDBRANCH  27  28
ENDBRANCH  24  27
ENDBRANCH  22  24
ENDBRANCH  19  22
TORSDOF 7
ENDMDL
MODEL 4
REMARK VINA RESULT:      -7.7      3.948      8.614
REMARK  Name = NuBBE_1211
REMARK  12 active torsions:
REMARK  status: ('A' for Active; 'I' for Inactive)
REMARK    1  A    between atoms: O_1  and  C_2
REMARK    2  A    between atoms: C_7  and  C_8
REMARK    3  A    between atoms: C_16  and  C_17
REMARK    4  A    between atoms: C_21  and  C_22
REMARK    5  A    between atoms: C_22  and  C_23
REMARK    6  A    between atoms: C_22  and  C_31
REMARK    7  A    between atoms: C_23  and  O_24
REMARK    8  A    between atoms: C_23  and  C_25
REMARK    9  A    between atoms: C_25  and  C_26
REMARK   10  A    between atoms: C_26  and  C_27
REMARK   11  A    between atoms: C_27  and  C_28
REMARK   12  A    between atoms: C_27  and  C_29
REMARK                            x       y       z     vdW  Elec       q    Type
REMARK                         _______ _______ _______ _____ _____    ______ ____
ROOT
ATOM      1  C   LIG A   1      -7.827  -2.497 123.418  0.00  0.00    +0.119 C 
ATOM      2  C   LIG A   1      -8.970  -2.519 124.440  0.00  0.00    +0.062 C 
ATOM      3  C   LIG A   1      -6.690  -1.562 123.825  0.00  0.00    +0.032 C 
ATOM      4  C   LIG A   1      -6.221  -1.829 125.251  0.00  0.00    +0.013 C 
ATOM      5  C   LIG A   1      -7.366  -1.751 126.304  0.00  0.00    -0.008 C 
ATOM      6  C   LIG A   1      -7.927  -0.302 126.345  0.00  0.00    +0.016 C 
ATOM      7  C   LIG A   1      -8.481  -2.698 125.860  0.00  0.00    -0.065 C 
ATOM      8  C   LIG A   1      -8.999  -3.651 126.667  0.00  0.00    -0.027 C 
ATOM      9  C   LIG A   1      -8.593  -3.863 128.097  0.00  0.00    +0.031 C 
ATOM     10  C   LIG A   1      -7.871  -2.644 128.690  0.00  0.00    +0.000 C 
ATOM     11  C   LIG A   1      -6.772  -2.171 127.704  0.00  0.00    +0.003 C 
ATOM     12  C   LIG A   1      -5.915  -1.053 128.297  0.00  0.00    +0.005 C 
ATOM     13  C   LIG A   1      -5.394  -1.397 129.670  0.00  0.00    +0.007 C 
ATOM     14  C   LIG A   1      -6.511  -1.715 130.694  0.00  0.00    -0.026 C 
ATOM     15  C   LIG A   1      -7.434  -0.506 130.970  0.00  0.00    +0.012 C 
ATOM     16  C   LIG A   1      -7.389  -2.875 130.149  0.00  0.00    -0.001 C 
ATOM     17  C   LIG A   1      -6.534  -4.111 130.426  0.00  0.00    +0.004 C 
ATOM     18  C   LIG A   1      -5.816  -3.820 131.754  0.00  0.00    +0.005 C 
ATOM     19  C   LIG A   1      -5.912  -2.296 132.024  0.00  0.00    +0.001 C 
ENDROOT
BRANCH   1  20
ATOM     20  O   LIG A   1      -8.314  -2.061 122.150  0.00  0.00    -0.392 OA
ATOM     21  H   LIG A   1      -9.114  -1.532 122.308  0.00  0.00    +0.210 HD
ENDBRANCH   1  20
BRANCH  19  22
ATOM     22  C   LIG A   1      -4.564  -1.665 132.531  0.00  0.00    +0.018 C 
ATOM     23  C   LIG A   1      -4.805  -0.546 133.568  0.00  0.00    +0.010 C 
BRANCH  22  24
ATOM     24  C   LIG A   1      -3.498  -2.692 133.065  0.00  0.00    +0.122 C 
BRANCH  24  25
ATOM     25  O   LIG A   1      -2.199  -2.108 132.886  0.00  0.00    -0.391 OA
ATOM     26  H   LIG A   1      -1.668  -2.292 133.677  0.00  0.00    +0.210 HD
ENDBRANCH  24  25
BRANCH  24  27
ATOM     27  C   LIG A   1      -3.703  -3.141 134.538  0.00  0.00    +0.062 C 
BRANCH  27  28
ATOM     28  C   LIG A   1      -4.260  -4.546 134.801  0.00  0.00    -0.072 C 
ATOM     29  C   LIG A   1      -3.603  -5.625 134.297  0.00  0.00    +0.008 C 
BRANCH  28  30
ATOM     30  C   LIG A   1      -5.616  -4.677 135.505  0.00  0.00    +0.008 C 
ATOM     31  C   LIG A   1      -6.347  -3.328 135.610  0.00  0.00    +0.012 C 
ATOM     32  C   LIG A   1      -6.583  -5.700 134.887  0.00  0.00    +0.012 C 
ENDBRANCH  28  30
ENDBRANCH  27  28
ENDBRANCH  24  27
ENDBRANCH  22  24
ENDBRANCH  19  22
TORSDOF 7
ENDMDL
MODEL 5
REMARK VINA RESULT:      -7.7      5.877      8.763
REMARK  Name = NuBBE_1211
REMARK  12 active torsions:
REMARK  status: ('A' for Active; 'I' for Inactive)
REMARK    1  A    between atoms: O_1  and  C_2
REMARK    2  A    between atoms: C_7  and  C_8
REMARK    3  A    between atoms: C_16  and  C_17
REMARK    4  A    between atoms: C_21  and  C_22
REMARK    5  A    between atoms: C_22  and  C_23
REMARK    6  A    between atoms: C_22  and  C_31
REMARK    7  A    between atoms: C_23  and  O_24
REMARK    8  A    between atoms: C_23  and  C_25
REMARK    9  A    between atoms: C_25  and  C_26
REMARK   10  A    between atoms: C_26  and  C_27
REMARK   11  A    between atoms: C_27  and  C_28
REMARK   12  A    between atoms: C_27  and  C_29
REMARK                            x       y       z     vdW  Elec       q    Type
REMARK                         _______ _______ _______ _____ _____    ______ ____
ROOT
ATOM      1  C   LIG A   1      -1.345   8.084 133.678  0.00  0.00    +0.119 C 
ATOM      2  C   LIG A   1      -1.843   6.946 134.578  0.00  0.00    +0.062 C 
ATOM      3  C   LIG A   1      -1.655   7.847 132.202  0.00  0.00    +0.032 C 
ATOM      4  C   LIG A   1      -3.124   7.499 131.981  0.00  0.00    +0.013 C 
ATOM      5  C   LIG A   1      -3.603   6.277 132.820  0.00  0.00    -0.008 C 
ATOM      6  C   LIG A   1      -2.831   5.008 132.365  0.00  0.00    +0.016 C 
ATOM      7  C   LIG A   1      -3.274   6.555 134.287  0.00  0.00    -0.065 C 
ATOM      8  C   LIG A   1      -4.194   6.473 135.273  0.00  0.00    -0.027 C 
ATOM      9  C   LIG A   1      -5.622   6.053 135.069  0.00  0.00    +0.031 C 
ATOM     10  C   LIG A   1      -5.830   5.311 133.741  0.00  0.00    +0.000 C 
ATOM     11  C   LIG A   1      -5.155   6.110 132.596  0.00  0.00    +0.003 C 
ATOM     12  C   LIG A   1      -5.452   5.505 131.224  0.00  0.00    +0.005 C 
ATOM     13  C   LIG A   1      -6.926   5.263 131.011  0.00  0.00    +0.007 C 
ATOM     14  C   LIG A   1      -7.561   4.333 132.073  0.00  0.00    -0.026 C 
ATOM     15  C   LIG A   1      -6.971   2.904 132.048  0.00  0.00    +0.012 C 
ATOM     16  C   LIG A   1      -7.316   4.928 133.486  0.00  0.00    -0.001 C 
ATOM     17  C   LIG A   1      -8.359   6.041 133.576  0.00  0.00    +0.004 C 
ATOM     18  C   LIG A   1      -9.586   5.509 132.815  0.00  0.00    +0.005 C 
ATOM     19  C   LIG A   1      -9.126   4.311 131.945  0.00  0.00    +0.001 C 
ENDROOT
BRANCH   1  20
ATOM     20  O   LIG A   1       0.068   8.227 133.807  0.00  0.00    -0.392 OA
ATOM     21  H   LIG A   1       0.453   8.163 132.916  0.00  0.00    +0.210 HD
ENDBRANCH   1  20
BRANCH  19  22
ATOM     22  C   LIG A   1      -9.720   4.331 130.490  0.00  0.00    +0.018 C 
ATOM     23  C   LIG A   1     -10.863   3.307 130.319  0.00  0.00    +0.010 C 
BRANCH  22  24
ATOM     24  C   LIG A   1     -10.163   5.746 129.962  0.00  0.00    +0.122 C 
BRANCH  24  25
ATOM     25  O   LIG A   1      -9.574   5.933 128.666  0.00  0.00    -0.391 OA
ATOM     26  H   LIG A   1      -8.631   6.129 128.783  0.00  0.00    +0.210 HD
ENDBRANCH  24  25
BRANCH  24  27
ATOM     27  C   LIG A   1     -11.699   5.972 129.909  0.00  0.00    +0.062 C 
BRANCH  27  28
ATOM     28  C   LIG A   1     -12.240   7.371 130.228  0.00  0.00    -0.072 C 
ATOM     29  C   LIG A   1     -12.857   7.589 131.420  0.00  0.00    +0.008 C 
BRANCH  28  30
ATOM     30  C   LIG A   1     -12.191   8.444 129.132  0.00  0.00    +0.008 C 
ATOM     31  C   LIG A   1     -12.549   7.874 127.749  0.00  0.00    +0.012 C 
ATOM     32  C   LIG A   1     -13.067   9.682 129.383  0.00  0.00    +0.012 C 
ENDBRANCH  28  30
ENDBRANCH  27  28
ENDBRANCH  24  27
ENDBRANCH  22  24
ENDBRANCH  19  22
TORSDOF 7
ENDMDL
MODEL 6
REMARK VINA RESULT:      -7.6      2.967      4.316
REMARK  Name = NuBBE_1211
REMARK  12 active torsions:
REMARK  status: ('A' for Active; 'I' for Inactive)
REMARK    1  A    between atoms: O_1  and  C_2
REMARK    2  A    between atoms: C_7  and  C_8
REMARK    3  A    between atoms: C_16  and  C_17
REMARK    4  A    between atoms: C_21  and  C_22
REMARK    5  A    between atoms: C_22  and  C_23
REMARK    6  A    between atoms: C_22  and  C_31
REMARK    7  A    between atoms: C_23  and  O_24
REMARK    8  A    between atoms: C_23  and  C_25
REMARK    9  A    between atoms: C_25  and  C_26
REMARK   10  A    between atoms: C_26  and  C_27
REMARK   11  A    between atoms: C_27  and  C_28
REMARK   12  A    between atoms: C_27  and  C_29
REMARK                            x       y       z     vdW  Elec       q    Type
REMARK                         _______ _______ _______ _____ _____    ______ ____
ROOT
ATOM      1  C   LIG A   1     -11.901   6.394 131.586  0.00  0.00    +0.119 C 
ATOM      2  C   LIG A   1     -10.518   6.376 132.248  0.00  0.00    +0.062 C 
ATOM      3  C   LIG A   1     -11.893   5.781 130.187  0.00  0.00    +0.032 C 
ATOM      4  C   LIG A   1     -11.234   4.406 130.175  0.00  0.00    +0.013 C 
ATOM      5  C   LIG A   1      -9.788   4.408 130.755  0.00  0.00    -0.008 C 
ATOM      6  C   LIG A   1      -8.875   5.284 129.853  0.00  0.00    +0.016 C 
ATOM      7  C   LIG A   1      -9.841   5.028 132.151  0.00  0.00    -0.065 C 
ATOM      8  C   LIG A   1      -9.332   4.417 133.244  0.00  0.00    -0.027 C 
ATOM      9  C   LIG A   1      -8.612   3.099 133.222  0.00  0.00    +0.031 C 
ATOM     10  C   LIG A   1      -8.122   2.722 131.816  0.00  0.00    +0.000 C 
ATOM     11  C   LIG A   1      -9.279   2.916 130.801  0.00  0.00    +0.003 C 
ATOM     12  C   LIG A   1      -8.905   2.417 129.406  0.00  0.00    +0.005 C 
ATOM     13  C   LIG A   1      -8.344   1.017 129.429  0.00  0.00    +0.007 C 
ATOM     14  C   LIG A   1      -7.089   0.868 130.324  0.00  0.00    -0.026 C 
ATOM     15  C   LIG A   1      -5.893   1.709 129.825  0.00  0.00    +0.012 C 
ATOM     16  C   LIG A   1      -7.432   1.330 131.766  0.00  0.00    -0.001 C 
ATOM     17  C   LIG A   1      -8.201   0.137 132.335  0.00  0.00    +0.004 C 
ATOM     18  C   LIG A   1      -7.538  -1.105 131.718  0.00  0.00    +0.005 C 
ATOM     19  C   LIG A   1      -6.696  -0.643 130.501  0.00  0.00    +0.001 C 
ENDROOT
BRANCH   1  20
ATOM     20  O   LIG A   1     -12.371   7.736 131.469  0.00  0.00    -0.392 OA
ATOM     21  H   LIG A   1     -13.097   7.738 130.824  0.00  0.00    +0.210 HD
ENDBRANCH   1  20
BRANCH  19  22
ATOM     22  C   LIG A   1      -6.854  -1.570 129.242  0.00  0.00    +0.018 C 
ATOM     23  C   LIG A   1      -5.626  -1.490 128.308  0.00  0.00    +0.010 C 
BRANCH  22  24
ATOM     24  C   LIG A   1      -7.215  -3.070 129.552  0.00  0.00    +0.122 C 
BRANCH  24  25
ATOM     25  O   LIG A   1      -8.166  -3.503 128.567  0.00  0.00    -0.391 OA
ATOM     26  H   LIG A   1      -7.815  -3.291 127.687  0.00  0.00    +0.210 HD
ENDBRANCH  24  25
BRANCH  24  27
ATOM     27  C   LIG A   1      -6.000  -4.037 129.609  0.00  0.00    +0.062 C 
BRANCH  27  28
ATOM     28  C   LIG A   1      -5.142  -4.055 130.880  0.00  0.00    -0.072 C 
ATOM     29  C   LIG A   1      -5.720  -4.383 132.066  0.00  0.00    +0.008 C 
BRANCH  28  30
ATOM     30  C   LIG A   1      -3.692  -3.565 130.792  0.00  0.00    +0.008 C 
ATOM     31  C   LIG A   1      -3.125  -3.687 129.368  0.00  0.00    +0.012 C 
ATOM     32  C   LIG A   1      -3.451  -2.128 131.284  0.00  0.00    +0.012 C 
ENDBRANCH  28  30
ENDBRANCH  27  28
ENDBRANCH  24  27
ENDBRANCH  22  24
ENDBRANCH  19  22
TORSDOF 7
ENDMDL
MODEL 7
REMARK VINA RESULT:      -7.6      4.425      8.903
REMARK  Name = NuBBE_1211
REMARK  12 active torsions:
REMARK  status: ('A' for Active; 'I' for Inactive)
REMARK    1  A    between atoms: O_1  and  C_2
REMARK    2  A    between atoms: C_7  and  C_8
REMARK    3  A    between atoms: C_16  and  C_17
REMARK    4  A    between atoms: C_21  and  C_22
REMARK    5  A    between atoms: C_22  and  C_23
REMARK    6  A    between atoms: C_22  and  C_31
REMARK    7  A    between atoms: C_23  and  O_24
REMARK    8  A    between atoms: C_23  and  C_25
REMARK    9  A    between atoms: C_25  and  C_26
REMARK   10  A    between atoms: C_26  and  C_27
REMARK   11  A    between atoms: C_27  and  C_28
REMARK   12  A    between atoms: C_27  and  C_29
REMARK                            x       y       z     vdW  Elec       q    Type
REMARK                         _______ _______ _______ _____ _____    ______ ____
ROOT
ATOM      1  C   LIG A   1      -7.801  -2.550 123.677  0.00  0.00    +0.119 C 
ATOM      2  C   LIG A   1      -8.962  -2.590 124.678  0.00  0.00    +0.062 C 
ATOM      3  C   LIG A   1      -6.711  -1.558 124.077  0.00  0.00    +0.032 C 
ATOM      4  C   LIG A   1      -6.260  -1.765 125.519  0.00  0.00    +0.013 C 
ATOM      5  C   LIG A   1      -7.428  -1.705 126.548  0.00  0.00    -0.008 C 
ATOM      6  C   LIG A   1      -8.047  -0.280 126.537  0.00  0.00    +0.016 C 
ATOM      7  C   LIG A   1      -8.494  -2.709 126.111  0.00  0.00    -0.065 C 
ATOM      8  C   LIG A   1      -8.989  -3.659 126.935  0.00  0.00    -0.027 C 
ATOM      9  C   LIG A   1      -8.603  -3.814 128.378  0.00  0.00    +0.031 C 
ATOM     10  C   LIG A   1      -7.943  -2.550 128.948  0.00  0.00    +0.000 C 
ATOM     11  C   LIG A   1      -6.844  -2.060 127.970  0.00  0.00    +0.003 C 
ATOM     12  C   LIG A   1      -6.045  -0.892 128.546  0.00  0.00    +0.005 C 
ATOM     13  C   LIG A   1      -5.538  -1.176 129.938  0.00  0.00    +0.007 C 
ATOM     14  C   LIG A   1      -6.660  -1.510 130.950  0.00  0.00    -0.026 C 
ATOM     15  C   LIG A   1      -7.637  -0.333 131.174  0.00  0.00    +0.012 C 
ATOM     16  C   LIG A   1      -7.480  -2.720 130.423  0.00  0.00    -0.001 C 
ATOM     17  C   LIG A   1      -6.581  -3.912 130.751  0.00  0.00    +0.004 C 
ATOM     18  C   LIG A   1      -5.902  -3.554 132.083  0.00  0.00    +0.005 C 
ATOM     19  C   LIG A   1      -6.064  -2.029 132.307  0.00  0.00    +0.001 C 
ENDROOT
BRANCH   1  20
ATOM     20  O   LIG A   1      -8.280  -2.170 122.388  0.00  0.00    -0.392 OA
ATOM     21  H   LIG A   1      -8.678  -1.287 122.470  0.00  0.00    +0.210 HD
ENDBRANCH   1  20
BRANCH  19  22
ATOM     22  C   LIG A   1      -4.754  -1.329 132.820  0.00  0.00    +0.018 C 
ATOM     23  C   LIG A   1      -5.010  -0.475 134.081  0.00  0.00    +0.010 C 
BRANCH  22  24
ATOM     24  C   LIG A   1      -3.523  -2.284 133.042  0.00  0.00    +0.122 C 
BRANCH  24  25
ATOM     25  O   LIG A   1      -2.565  -2.011 132.008  0.00  0.00    -0.391 OA
ATOM     26  H   LIG A   1      -2.654  -1.081 131.745  0.00  0.00    +0.210 HD
ENDBRANCH  24  25
BRANCH  24  27
ATOM     27  C   LIG A   1      -2.863  -2.186 134.446  0.00  0.00    +0.062 C 
BRANCH  27  28
ATOM     28  C   LIG A   1      -1.660  -3.087 134.749  0.00  0.00    -0.072 C 
ATOM     29  C   LIG A   1      -1.807  -4.437 134.684  0.00  0.00    +0.008 C 
BRANCH  28  30
ATOM     30  C   LIG A   1      -0.366  -2.435 135.254  0.00  0.00    +0.008 C 
ATOM     31  C   LIG A   1       0.685  -3.480 135.667  0.00  0.00    +0.012 C 
ATOM     32  C   LIG A   1       0.297  -1.447 134.280  0.00  0.00    +0.012 C 
ENDBRANCH  28  30
ENDBRANCH  27  28
ENDBRANCH  24  27
ENDBRANCH  22  24
ENDBRANCH  19  22
TORSDOF 7
ENDMDL
MODEL 8
REMARK VINA RESULT:      -7.6      3.635      5.506
REMARK  Name = NuBBE_1211
REMARK  12 active torsions:
REMARK  status: ('A' for Active; 'I' for Inactive)
REMARK    1  A    between atoms: O_1  and  C_2
REMARK    2  A    between atoms: C_7  and  C_8
REMARK    3  A    between atoms: C_16  and  C_17
REMARK    4  A    between atoms: C_21  and  C_22
REMARK    5  A    between atoms: C_22  and  C_23
REMARK    6  A    between atoms: C_22  and  C_31
REMARK    7  A    between atoms: C_23  and  O_24
REMARK    8  A    between atoms: C_23  and  C_25
REMARK    9  A    between atoms: C_25  and  C_26
REMARK   10  A    between atoms: C_26  and  C_27
REMARK   11  A    between atoms: C_27  and  C_28
REMARK   12  A    between atoms: C_27  and  C_29
REMARK                            x       y       z     vdW  Elec       q    Type
REMARK                         _______ _______ _______ _____ _____    ______ ____
ROOT
ATOM      1  C   LIG A   1      -4.010  -2.031 134.626  0.00  0.00    +0.119 C 
ATOM      2  C   LIG A   1      -5.543  -2.036 134.574  0.00  0.00    +0.062 C 
ATOM      3  C   LIG A   1      -3.381  -2.892 133.532  0.00  0.00    +0.032 C 
ATOM      4  C   LIG A   1      -3.941  -2.555 132.154  0.00  0.00    +0.013 C 
ATOM      5  C   LIG A   1      -5.493  -2.660 132.075  0.00  0.00    -0.008 C 
ATOM      6  C   LIG A   1      -5.921  -4.133 132.318  0.00  0.00    +0.016 C 
ATOM      7  C   LIG A   1      -6.081  -1.787 133.184  0.00  0.00    -0.065 C 
ATOM      8  C   LIG A   1      -7.015  -0.837 132.952  0.00  0.00    -0.027 C 
ATOM      9  C   LIG A   1      -7.626  -0.558 131.608  0.00  0.00    +0.031 C 
ATOM     10  C   LIG A   1      -7.428  -1.718 130.622  0.00  0.00    +0.000 C 
ATOM     11  C   LIG A   1      -5.944  -2.164 130.647  0.00  0.00    +0.003 C 
ATOM     12  C   LIG A   1      -5.645  -3.217 129.579  0.00  0.00    +0.005 C 
ATOM     13  C   LIG A   1      -6.132  -2.802 128.213  0.00  0.00    +0.007 C 
ATOM     14  C   LIG A   1      -7.652  -2.510 128.161  0.00  0.00    -0.026 C 
ATOM     15  C   LIG A   1      -8.513  -3.756 128.470  0.00  0.00    +0.012 C 
ATOM     16  C   LIG A   1      -7.999  -1.416 129.207  0.00  0.00    -0.001 C 
ATOM     17  C   LIG A   1      -7.545  -0.128 128.521  0.00  0.00    +0.004 C 
ATOM     18  C   LIG A   1      -7.840  -0.339 127.027  0.00  0.00    +0.005 C 
ATOM     19  C   LIG A   1      -8.057  -1.856 126.792  0.00  0.00    +0.001 C 
ENDROOT
BRANCH   1  20
ATOM     20  O   LIG A   1      -3.562  -2.532 135.884  0.00  0.00    -0.392 OA
ATOM     21  H   LIG A   1      -4.349  -2.757 136.409  0.00  0.00    +0.210 HD
ENDBRANCH   1  20
BRANCH  19  22
ATOM     22  C   LIG A   1      -7.336  -2.399 125.505  0.00  0.00    +0.018 C 
ATOM     23  C   LIG A   1      -8.327  -3.066 124.525  0.00  0.00    +0.010 C 
BRANCH  22  24
ATOM     24  C   LIG A   1      -6.430  -1.357 124.750  0.00  0.00    +0.122 C 
BRANCH  24  25
ATOM     25  O   LIG A   1      -5.151  -1.970 124.526  0.00  0.00    -0.391 OA
ATOM     26  H   LIG A   1      -5.249  -2.930 124.627  0.00  0.00    +0.210 HD
ENDBRANCH  24  25
BRANCH  24  27
ATOM     27  C   LIG A   1      -7.024  -0.818 123.419  0.00  0.00    +0.062 C 
BRANCH  27  28
ATOM     28  C   LIG A   1      -7.798   0.506 123.451  0.00  0.00    -0.072 C 
ATOM     29  C   LIG A   1      -7.111   1.679 123.408  0.00  0.00    +0.008 C 
BRANCH  28  30
ATOM     30  C   LIG A   1      -9.316   0.463 123.671  0.00  0.00    +0.008 C 
ATOM     31  C   LIG A   1      -9.815   1.661 124.497  0.00  0.00    +0.012 C 
ATOM     32  C   LIG A   1     -10.165   0.373 122.392  0.00  0.00    +0.012 C 
ENDBRANCH  28  30
ENDBRANCH  27  28
ENDBRANCH  24  27
ENDBRANCH  22  24
ENDBRANCH  19  22
TORSDOF 7
ENDMDL
MODEL 9
REMARK VINA RESULT:      -7.5      2.253      8.673
REMARK  Name = NuBBE_1211
REMARK  12 active torsions:
REMARK  status: ('A' for Active; 'I' for Inactive)
REMARK    1  A    between atoms: O_1  and  C_2
REMARK    2  A    between atoms: C_7  and  C_8
REMARK    3  A    between atoms: C_16  and  C_17
REMARK    4  A    between atoms: C_21  and  C_22
REMARK    5  A    between atoms: C_22  and  C_23
REMARK    6  A    between atoms: C_22  and  C_31
REMARK    7  A    between atoms: C_23  and  O_24
REMARK    8  A    between atoms: C_23  and  C_25
REMARK    9  A    between atoms: C_25  and  C_26
REMARK   10  A    between atoms: C_26  and  C_27
REMARK   11  A    between atoms: C_27  and  C_28
REMARK   12  A    between atoms: C_27  and  C_29
REMARK                            x       y       z     vdW  Elec       q    Type
REMARK                         _______ _______ _______ _____ _____    ______ ____
ROOT
ATOM      1  C   LIG A   1      -6.774  -2.407 124.786  0.00  0.00    +0.119 C 
ATOM      2  C   LIG A   1      -5.572  -1.561 125.223  0.00  0.00    +0.062 C 
ATOM      3  C   LIG A   1      -7.761  -2.661 125.924  0.00  0.00    +0.032 C 
ATOM      4  C   LIG A   1      -8.156  -1.368 126.630  0.00  0.00    +0.013 C 
ATOM      5  C   LIG A   1      -6.937  -0.558 127.164  0.00  0.00    -0.008 C 
ATOM      6  C   LIG A   1      -6.208  -1.388 128.256  0.00  0.00    +0.016 C 
ATOM      7  C   LIG A   1      -5.977  -0.327 125.997  0.00  0.00    -0.065 C 
ATOM      8  C   LIG A   1      -5.519   0.898 125.656  0.00  0.00    -0.027 C 
ATOM      9  C   LIG A   1      -5.844   2.163 126.399  0.00  0.00    +0.031 C 
ATOM     10  C   LIG A   1      -6.373   1.892 127.815  0.00  0.00    +0.000 C 
ATOM     11  C   LIG A   1      -7.476   0.804 127.750  0.00  0.00    +0.003 C 
ATOM     12  C   LIG A   1      -8.150   0.593 129.105  0.00  0.00    +0.005 C 
ATOM     13  C   LIG A   1      -8.610   1.889 129.725  0.00  0.00    +0.007 C 
ATOM     14  C   LIG A   1      -7.468   2.914 129.933  0.00  0.00    -0.026 C 
ATOM     15  C   LIG A   1      -6.392   2.420 130.926  0.00  0.00    +0.012 C 
ATOM     16  C   LIG A   1      -6.775   3.189 128.571  0.00  0.00    -0.001 C 
ATOM     17  C   LIG A   1      -7.747   4.142 127.877  0.00  0.00    +0.004 C 
ATOM     18  C   LIG A   1      -8.330   5.017 128.999  0.00  0.00    +0.005 C 
ATOM     19  C   LIG A   1      -8.036   4.317 130.351  0.00  0.00    +0.001 C 
ENDROOT
BRANCH   1  20
ATOM     20  O   LIG A   1      -6.330  -3.675 124.306  0.00  0.00    -0.392 OA
ATOM     21  H   LIG A   1      -6.916  -4.354 124.682  0.00  0.00    +0.210 HD
ENDBRANCH   1  20
BRANCH  19  22
ATOM     22  C   LIG A   1      -9.260   4.323 131.337  0.00  0.00    +0.018 C 
ATOM     23  C   LIG A   1      -8.940   5.068 132.652  0.00  0.00    +0.010 C 
BRANCH  22  24
ATOM     24  C   LIG A   1     -10.615   4.840 130.726  0.00  0.00    +0.122 C 
BRANCH  24  25
ATOM     25  O   LIG A   1     -11.473   3.703 130.539  0.00  0.00    -0.391 OA
ATOM     26  H   LIG A   1     -11.219   3.260 129.713  0.00  0.00    +0.210 HD
ENDBRANCH  24  25
BRANCH  24  27
ATOM     27  C   LIG A   1     -11.330   5.940 131.558  0.00  0.00    +0.062 C 
BRANCH  27  28
ATOM     28  C   LIG A   1     -12.109   7.028 130.809  0.00  0.00    -0.072 C 
ATOM     29  C   LIG A   1     -12.999   7.798 131.492  0.00  0.00    +0.008 C 
BRANCH  28  30
ATOM     30  C   LIG A   1     -11.962   7.119 129.285  0.00  0.00    +0.008 C 
ATOM     31  C   LIG A   1     -13.299   7.427 128.591  0.00  0.00    +0.012 C 
ATOM     32  C   LIG A   1     -10.916   8.129 128.784  0.00  0.00    +0.012 C 
ENDBRANCH  28  30
ENDBRANCH  27  28
ENDBRANCH  24  27
ENDBRANCH  22  24
ENDBRANCH  19  22
TORSDOF 7
ENDMDL
