MODEL 1
REMARK VINA RESULT:      -8.5      0.000      0.000
REMARK  Name = NuBBE_1360
REMARK  3 active torsions:
REMARK  status: ('A' for Active; 'I' for Inactive)
REMARK    1  A    between atoms: C_2  and  C_3
REMARK    2  A    between atoms: C_8  and  C_9
REMARK    3  A    between atoms: C_15  and  O_17
REMARK                            x       y       z     vdW  Elec       q    Type
REMARK                         _______ _______ _______ _____ _____    ______ ____
ROOT
ATOM      1  C   LIG A   1      -8.849  -2.133 125.815  0.00  0.00    +0.089 C 
ATOM      2  C   LIG A   1      -8.361  -3.363 124.963  0.00  0.00    +0.028 C 
ATOM      3  C   LIG A   1      -6.856  -3.329 124.554  0.00  0.00    +0.064 C 
ATOM      4  C   LIG A   1      -6.323  -4.694 124.085  0.00  0.00    +0.050 C 
ATOM      5  C   LIG A   1      -4.789  -4.673 124.044  0.00  0.00    +0.117 C 
ATOM      6  C   LIG A   1      -4.216  -3.264 123.852  0.00  0.00    +0.046 C 
ATOM      7  C   LIG A   1      -5.157  -2.409 123.006  0.00  0.00    +0.087 C 
ATOM      8  N   LIG A   1      -6.517  -2.285 123.568  0.00  0.00    -0.299 NA
ATOM      9  C   LIG A   1      -7.498  -2.155 122.478  0.00  0.00    +0.089 C 
ATOM     10  C   LIG A   1      -9.230  -3.461 123.710  0.00  0.00    +0.013 C 
ATOM     11  C   LIG A   1      -8.980  -2.190 122.902  0.00  0.00    +0.021 C 
ATOM     12  C   LIG A   1      -9.485  -0.977 123.719  0.00  0.00    +0.062 C 
ATOM     13  N   LIG A   1      -8.894  -0.852 125.068  0.00  0.00    -0.292 NA
ATOM     14  C   LIG A   1      -9.597   0.205 125.826  0.00  0.00    +0.085 C 
ATOM     15  C   LIG A   1      -9.455   1.561 125.136  0.00  0.00    +0.015 C 
ATOM     16  C   LIG A   1      -9.949   1.509 123.696  0.00  0.00    +0.003 C 
ATOM     17  C   LIG A   1      -9.298   0.345 122.952  0.00  0.00    +0.019 C 
ENDROOT
BRANCH   1  25
ATOM     18  O   LIG A   1      -4.571   0.116 129.505  0.00  0.00    -0.276 OA
ATOM     19  C   LIG A   1      -5.364   0.104 128.563  0.00  0.00    +0.216 C 
ATOM     20  C   LIG A   1      -5.273   1.168 127.492  0.00  0.00    +0.110 C 
ATOM     21  N   LIG A   1      -6.356  -0.874 128.419  0.00  0.00    -0.278 N 
ATOM     22  C   LIG A   1      -6.403  -1.929 129.434  0.00  0.00    +0.113 C 
ATOM     23  C   LIG A   1      -7.764  -2.609 129.514  0.00  0.00    +0.024 C 
ATOM     24  C   LIG A   1      -8.208  -3.091 128.137  0.00  0.00    +0.035 C 
ATOM     25  C   LIG A   1      -8.019  -2.015 127.100  0.00  0.00    -0.038 C 
ATOM     26  C   LIG A   1      -7.168  -0.991 127.306  0.00  0.00    +0.078 C 
ENDBRANCH   1  25
BRANCH   5  27
ATOM     27  O   LIG A   1      -4.354  -5.534 122.992  0.00  0.00    -0.392 OA
ATOM     28  H   LIG A   1      -3.483  -5.888 123.246  0.00  0.00    +0.210 HD
ENDBRANCH   5  27
TORSDOF 2
ENDMDL
MODEL 2
REMARK VINA RESULT:      -7.9      2.796      5.285
REMARK  Name = NuBBE_1360
REMARK  3 active torsions:
REMARK  status: ('A' for Active; 'I' for Inactive)
REMARK    1  A    between atoms: C_2  and  C_3
REMARK    2  A    between atoms: C_8  and  C_9
REMARK    3  A    between atoms: C_15  and  O_17
REMARK                            x       y       z     vdW  Elec       q    Type
REMARK                         _______ _______ _______ _____ _____    ______ ____
ROOT
ATOM      1  C   LIG A   1      -5.689  -0.316 126.666  0.00  0.00    +0.089 C 
ATOM      2  C   LIG A   1      -6.045  -0.107 125.147  0.00  0.00    +0.028 C 
ATOM      3  C   LIG A   1      -7.281   0.803 124.875  0.00  0.00    +0.064 C 
ATOM      4  C   LIG A   1      -7.361   1.305 123.423  0.00  0.00    +0.050 C 
ATOM      5  C   LIG A   1      -8.370   2.455 123.319  0.00  0.00    +0.117 C 
ATOM      6  C   LIG A   1      -9.444   2.408 124.412  0.00  0.00    +0.046 C 
ATOM      7  C   LIG A   1      -9.751   0.965 124.807  0.00  0.00    +0.087 C 
ATOM      8  N   LIG A   1      -8.572   0.213 125.279  0.00  0.00    -0.299 NA
ATOM      9  C   LIG A   1      -8.712  -1.210 124.926  0.00  0.00    +0.089 C 
ATOM     10  C   LIG A   1      -6.267  -1.477 124.508  0.00  0.00    +0.013 C 
ATOM     11  C   LIG A   1      -7.479  -2.093 125.202  0.00  0.00    +0.021 C 
ATOM     12  C   LIG A   1      -7.129  -2.331 126.691  0.00  0.00    +0.062 C 
ATOM     13  N   LIG A   1      -6.678  -1.126 127.419  0.00  0.00    -0.292 NA
ATOM     14  C   LIG A   1      -6.176  -1.509 128.755  0.00  0.00    +0.085 C 
ATOM     15  C   LIG A   1      -7.277  -2.163 129.589  0.00  0.00    +0.015 C 
ATOM     16  C   LIG A   1      -7.879  -3.364 128.873  0.00  0.00    +0.003 C 
ATOM     17  C   LIG A   1      -8.295  -2.986 127.454  0.00  0.00    +0.019 C 
ENDROOT
BRANCH   1  25
ATOM     18  O   LIG A   1      -2.482   4.600 128.257  0.00  0.00    -0.276 OA
ATOM     19  C   LIG A   1      -2.779   3.605 127.594  0.00  0.00    +0.216 C 
ATOM     20  C   LIG A   1      -1.788   3.043 126.600  0.00  0.00    +0.110 C 
ATOM     21  N   LIG A   1      -4.006   2.943 127.728  0.00  0.00    -0.278 N 
ATOM     22  C   LIG A   1      -4.938   3.465 128.731  0.00  0.00    +0.113 C 
ATOM     23  C   LIG A   1      -6.381   3.058 128.461  0.00  0.00    +0.024 C 
ATOM     24  C   LIG A   1      -6.491   1.548 128.278  0.00  0.00    +0.035 C 
ATOM     25  C   LIG A   1      -5.429   1.037 127.340  0.00  0.00    -0.038 C 
ATOM     26  C   LIG A   1      -4.312   1.750 127.100  0.00  0.00    +0.078 C 
ENDBRANCH   1  25
BRANCH   5  27
ATOM     27  O   LIG A   1      -8.976   2.409 122.027  0.00  0.00    -0.392 OA
ATOM     28  H   LIG A   1      -9.624   1.683 122.034  0.00  0.00    +0.210 HD
ENDBRANCH   5  27
TORSDOF 2
ENDMDL
MODEL 3
REMARK VINA RESULT:      -7.7      2.324      4.173
REMARK  Name = NuBBE_1360
REMARK  3 active torsions:
REMARK  status: ('A' for Active; 'I' for Inactive)
REMARK    1  A    between atoms: C_2  and  C_3
REMARK    2  A    between atoms: C_8  and  C_9
REMARK    3  A    between atoms: C_15  and  O_17
REMARK                            x       y       z     vdW  Elec       q    Type
REMARK                         _______ _______ _______ _____ _____    ______ ____
ROOT
ATOM      1  C   LIG A   1      -7.085   0.507 127.747  0.00  0.00    +0.089 C 
ATOM      2  C   LIG A   1      -8.354  -0.018 126.978  0.00  0.00    +0.028 C 
ATOM      3  C   LIG A   1      -8.078  -1.141 125.932  0.00  0.00    +0.064 C 
ATOM      4  C   LIG A   1      -9.347  -1.896 125.500  0.00  0.00    +0.050 C 
ATOM      5  C   LIG A   1      -8.965  -3.188 124.767  0.00  0.00    +0.117 C 
ATOM      6  C   LIG A   1      -7.582  -3.116 124.110  0.00  0.00    +0.046 C 
ATOM      7  C   LIG A   1      -7.273  -1.691 123.656  0.00  0.00    +0.087 C 
ATOM      8  N   LIG A   1      -7.324  -0.695 124.744  0.00  0.00    -0.299 NA
ATOM      9  C   LIG A   1      -7.767   0.605 124.212  0.00  0.00    +0.089 C 
ATOM     10  C   LIG A   1      -9.028   1.168 126.290  0.00  0.00    +0.013 C 
ATOM     11  C   LIG A   1      -8.035   1.702 125.262  0.00  0.00    +0.021 C 
ATOM     12  C   LIG A   1      -6.795   2.248 126.010  0.00  0.00    +0.062 C 
ATOM     13  N   LIG A   1      -6.135   1.274 126.904  0.00  0.00    -0.292 NA
ATOM     14  C   LIG A   1      -5.106   1.958 127.715  0.00  0.00    +0.085 C 
ATOM     15  C   LIG A   1      -4.024   2.571 126.826  0.00  0.00    +0.015 C 
ATOM     16  C   LIG A   1      -4.621   3.521 125.796  0.00  0.00    +0.003 C 
ATOM     17  C   LIG A   1      -5.757   2.840 125.038  0.00  0.00    +0.019 C 
ENDROOT
BRANCH   1  25
ATOM     18  O   LIG A   1      -5.791  -3.163 132.420  0.00  0.00    -0.276 OA
ATOM     19  C   LIG A   1      -6.447  -2.357 131.758  0.00  0.00    +0.216 C 
ATOM     20  C   LIG A   1      -7.621  -1.646 132.392  0.00  0.00    +0.110 C 
ATOM     21  N   LIG A   1      -6.145  -2.047 130.426  0.00  0.00    -0.278 N 
ATOM     22  C   LIG A   1      -4.975  -2.702 129.838  0.00  0.00    +0.113 C 
ATOM     23  C   LIG A   1      -5.022  -2.734 128.316  0.00  0.00    +0.024 C 
ATOM     24  C   LIG A   1      -5.264  -1.337 127.753  0.00  0.00    +0.035 C 
ATOM     25  C   LIG A   1      -6.392  -0.650 128.477  0.00  0.00    -0.038 C 
ATOM     26  C   LIG A   1      -6.777  -1.050 129.704  0.00  0.00    +0.078 C 
ENDBRANCH   1  25
BRANCH   5  27
ATOM     27  O   LIG A   1      -9.966  -3.463 123.787  0.00  0.00    -0.392 OA
ATOM     28  H   LIG A   1     -10.775  -3.727 124.261  0.00  0.00    +0.210 HD
ENDBRANCH   5  27
TORSDOF 2
ENDMDL
MODEL 4
REMARK VINA RESULT:      -7.6      2.657      5.019
REMARK  Name = NuBBE_1360
REMARK  3 active torsions:
REMARK  status: ('A' for Active; 'I' for Inactive)
REMARK    1  A    between atoms: C_2  and  C_3
REMARK    2  A    between atoms: C_8  and  C_9
REMARK    3  A    between atoms: C_15  and  O_17
REMARK                            x       y       z     vdW  Elec       q    Type
REMARK                         _______ _______ _______ _____ _____    ______ ____
ROOT
ATOM      1  C   LIG A   1      -6.102  -0.828 126.743  0.00  0.00    +0.089 C 
ATOM      2  C   LIG A   1      -6.151  -0.336 125.248  0.00  0.00    +0.028 C 
ATOM      3  C   LIG A   1      -7.270   0.703 124.929  0.00  0.00    +0.064 C 
ATOM      4  C   LIG A   1      -7.048   1.449 123.603  0.00  0.00    +0.050 C 
ATOM      5  C   LIG A   1      -7.964   2.677 123.530  0.00  0.00    +0.117 C 
ATOM      6  C   LIG A   1      -9.227   2.531 124.386  0.00  0.00    +0.046 C 
ATOM      7  C   LIG A   1      -9.671   1.070 124.450  0.00  0.00    +0.087 C 
ATOM      8  N   LIG A   1      -8.640   0.157 124.982  0.00  0.00    -0.299 NA
ATOM      9  C   LIG A   1      -8.776  -1.169 124.356  0.00  0.00    +0.089 C 
ATOM     10  C   LIG A   1      -6.312  -1.555 124.342  0.00  0.00    +0.013 C 
ATOM     11  C   LIG A   1      -7.661  -2.182 124.683  0.00  0.00    +0.021 C 
ATOM     12  C   LIG A   1      -7.612  -2.696 126.142  0.00  0.00    +0.062 C 
ATOM     13  N   LIG A   1      -7.253  -1.672 127.146  0.00  0.00    -0.292 NA
ATOM     14  C   LIG A   1      -7.033  -2.315 128.459  0.00  0.00    +0.085 C 
ATOM     15  C   LIG A   1      -8.302  -3.011 128.948  0.00  0.00    +0.015 C 
ATOM     16  C   LIG A   1      -8.812  -4.022 127.930  0.00  0.00    +0.003 C 
ATOM     17  C   LIG A   1      -8.932  -3.376 126.552  0.00  0.00    +0.019 C 
ENDROOT
BRANCH   1  25
ATOM     18  O   LIG A   1      -7.511   2.985 131.266  0.00  0.00    -0.276 OA
ATOM     19  C   LIG A   1      -7.545   1.944 130.607  0.00  0.00    +0.216 C 
ATOM     20  C   LIG A   1      -8.631   0.925 130.869  0.00  0.00    +0.110 C 
ATOM     21  N   LIG A   1      -6.620   1.657 129.596  0.00  0.00    -0.278 N 
ATOM     22  C   LIG A   1      -5.603   2.674 129.315  0.00  0.00    +0.113 C 
ATOM     23  C   LIG A   1      -4.374   2.100 128.621  0.00  0.00    +0.024 C 
ATOM     24  C   LIG A   1      -4.775   1.305 127.383  0.00  0.00    +0.035 C 
ATOM     25  C   LIG A   1      -5.913   0.366 127.688  0.00  0.00    -0.038 C 
ATOM     26  C   LIG A   1      -6.714   0.565 128.752  0.00  0.00    +0.078 C 
ENDBRANCH   1  25
BRANCH   5  27
ATOM     27  O   LIG A   1      -8.313   2.899 122.164  0.00  0.00    -0.392 OA
ATOM     28  H   LIG A   1      -7.807   3.671 121.855  0.00  0.00    +0.210 HD
ENDBRANCH   5  27
TORSDOF 2
ENDMDL
MODEL 5
REMARK VINA RESULT:      -7.6      2.902      4.071
REMARK  Name = NuBBE_1360
REMARK  3 active torsions:
REMARK  status: ('A' for Active; 'I' for Inactive)
REMARK    1  A    between atoms: C_2  and  C_3
REMARK    2  A    between atoms: C_8  and  C_9
REMARK    3  A    between atoms: C_15  and  O_17
REMARK                            x       y       z     vdW  Elec       q    Type
REMARK                         _______ _______ _______ _____ _____    ______ ____
ROOT
ATOM      1  C   LIG A   1      -8.244   1.848 126.997  0.00  0.00    +0.089 C 
ATOM      2  C   LIG A   1      -8.981   0.683 126.237  0.00  0.00    +0.028 C 
ATOM      3  C   LIG A   1      -8.084  -0.535 125.861  0.00  0.00    +0.064 C 
ATOM      4  C   LIG A   1      -8.888  -1.793 125.492  0.00  0.00    +0.050 C 
ATOM      5  C   LIG A   1      -7.970  -3.022 125.486  0.00  0.00    +0.117 C 
ATOM      6  C   LIG A   1      -6.503  -2.669 125.217  0.00  0.00    +0.046 C 
ATOM      7  C   LIG A   1      -6.399  -1.454 124.297  0.00  0.00    +0.087 C 
ATOM      8  N   LIG A   1      -7.078  -0.252 124.818  0.00  0.00    -0.299 NA
ATOM      9  C   LIG A   1      -7.594   0.556 123.699  0.00  0.00    +0.089 C 
ATOM     10  C   LIG A   1      -9.620   1.257 124.973  0.00  0.00    +0.013 C 
ATOM     11  C   LIG A   1      -8.479   1.756 124.091  0.00  0.00    +0.021 C 
ATOM     12  C   LIG A   1      -7.765   2.922 124.817  0.00  0.00    +0.062 C 
ATOM     13  N   LIG A   1      -7.264   2.594 126.168  0.00  0.00    -0.292 NA
ATOM     14  C   LIG A   1      -6.797   3.824 126.840  0.00  0.00    +0.085 C 
ATOM     15  C   LIG A   1      -5.645   4.467 126.068  0.00  0.00    +0.015 C 
ATOM     16  C   LIG A   1      -6.034   4.754 124.624  0.00  0.00    +0.003 C 
ATOM     17  C   LIG A   1      -6.618   3.504 123.971  0.00  0.00    +0.019 C 
ENDROOT
BRANCH   1  25
ATOM     18  O   LIG A   1      -7.800   0.806 132.972  0.00  0.00    -0.276 OA
ATOM     19  C   LIG A   1      -8.357   1.064 131.903  0.00  0.00    +0.216 C 
ATOM     20  C   LIG A   1      -9.777   1.583 131.904  0.00  0.00    +0.110 C 
ATOM     21  N   LIG A   1      -7.724   0.915 130.663  0.00  0.00    -0.278 N 
ATOM     22  C   LIG A   1      -6.331   0.461 130.677  0.00  0.00    +0.113 C 
ATOM     23  C   LIG A   1      -5.903  -0.163 129.355  0.00  0.00    +0.024 C 
ATOM     24  C   LIG A   1      -6.210   0.774 128.191  0.00  0.00    +0.035 C 
ATOM     25  C   LIG A   1      -7.610   1.319 128.290  0.00  0.00    -0.038 C 
ATOM     26  C   LIG A   1      -8.274   1.325 129.462  0.00  0.00    +0.078 C 
ENDBRANCH   1  25
BRANCH   5  27
ATOM     27  O   LIG A   1      -8.448  -3.938 124.502  0.00  0.00    -0.392 OA
ATOM     28  H   LIG A   1      -8.778  -4.725 124.970  0.00  0.00    +0.210 HD
ENDBRANCH   5  27
TORSDOF 2
ENDMDL
MODEL 6
REMARK VINA RESULT:      -7.6      5.776      9.731
REMARK  Name = NuBBE_1360
REMARK  3 active torsions:
REMARK  status: ('A' for Active; 'I' for Inactive)
REMARK    1  A    between atoms: C_2  and  C_3
REMARK    2  A    between atoms: C_8  and  C_9
REMARK    3  A    between atoms: C_15  and  O_17
REMARK                            x       y       z     vdW  Elec       q    Type
REMARK                         _______ _______ _______ _____ _____    ______ ____
ROOT
ATOM      1  C   LIG A   1      -6.405   3.944 129.687  0.00  0.00    +0.089 C 
ATOM      2  C   LIG A   1      -7.502   4.142 130.799  0.00  0.00    +0.028 C 
ATOM      3  C   LIG A   1      -8.730   5.003 130.371  0.00  0.00    +0.064 C 
ATOM      4  C   LIG A   1      -9.938   4.847 131.310  0.00  0.00    +0.050 C 
ATOM      5  C   LIG A   1     -11.197   5.423 130.648  0.00  0.00    +0.117 C 
ATOM      6  C   LIG A   1     -10.882   6.503 129.607  0.00  0.00    +0.046 C 
ATOM      7  C   LIG A   1      -9.626   7.280 129.996  0.00  0.00    +0.087 C 
ATOM      8  N   LIG A   1      -8.429   6.433 130.163  0.00  0.00    -0.299 NA
ATOM      9  C   LIG A   1      -7.547   7.010 131.192  0.00  0.00    +0.089 C 
ATOM     10  C   LIG A   1      -6.841   4.767 132.026  0.00  0.00    +0.013 C 
ATOM     11  C   LIG A   1      -6.339   6.144 131.600  0.00  0.00    +0.021 C 
ATOM     12  C   LIG A   1      -5.238   5.960 130.529  0.00  0.00    +0.062 C 
ATOM     13  N   LIG A   1      -5.652   5.177 129.346  0.00  0.00    -0.292 NA
ATOM     14  C   LIG A   1      -4.475   4.888 128.500  0.00  0.00    +0.085 C 
ATOM     15  C   LIG A   1      -3.834   6.180 127.993  0.00  0.00    +0.015 C 
ATOM     16  C   LIG A   1      -3.460   7.105 129.143  0.00  0.00    +0.003 C 
ATOM     17  C   LIG A   1      -4.653   7.309 130.072  0.00  0.00    +0.019 C 
ENDROOT
BRANCH   1  25
ATOM     18  O   LIG A   1      -7.735   3.335 123.784  0.00  0.00    -0.276 OA
ATOM     19  C   LIG A   1      -7.117   3.734 124.773  0.00  0.00    +0.216 C 
ATOM     20  C   LIG A   1      -6.122   4.864 124.630  0.00  0.00    +0.110 C 
ATOM     21  N   LIG A   1      -7.304   3.196 126.052  0.00  0.00    -0.278 N 
ATOM     22  C   LIG A   1      -8.307   2.137 126.189  0.00  0.00    +0.113 C 
ATOM     23  C   LIG A   1      -8.087   1.273 127.424  0.00  0.00    +0.024 C 
ATOM     24  C   LIG A   1      -7.964   2.139 128.674  0.00  0.00    +0.035 C 
ATOM     25  C   LIG A   1      -7.022   3.291 128.444  0.00  0.00    -0.038 C 
ATOM     26  C   LIG A   1      -6.729   3.713 127.199  0.00  0.00    +0.078 C 
ENDBRANCH   1  25
BRANCH   5  27
ATOM     27  O   LIG A   1     -12.044   5.950 131.669  0.00  0.00    -0.392 OA
ATOM     28  H   LIG A   1     -11.795   6.881 131.804  0.00  0.00    +0.210 HD
ENDBRANCH   5  27
TORSDOF 2
ENDMDL
MODEL 7
REMARK VINA RESULT:      -7.6      6.997      9.049
REMARK  Name = NuBBE_1360
REMARK  3 active torsions:
REMARK  status: ('A' for Active; 'I' for Inactive)
REMARK    1  A    between atoms: C_2  and  C_3
REMARK    2  A    between atoms: C_8  and  C_9
REMARK    3  A    between atoms: C_15  and  O_17
REMARK                            x       y       z     vdW  Elec       q    Type
REMARK                         _______ _______ _______ _____ _____    ______ ____
ROOT
ATOM      1  C   LIG A   1      -5.776   3.415 129.048  0.00  0.00    +0.089 C 
ATOM      2  C   LIG A   1      -4.310   3.757 129.510  0.00  0.00    +0.028 C 
ATOM      3  C   LIG A   1      -4.105   5.209 130.041  0.00  0.00    +0.064 C 
ATOM      4  C   LIG A   1      -2.802   5.387 130.839  0.00  0.00    +0.050 C 
ATOM      5  C   LIG A   1      -2.839   6.708 131.618  0.00  0.00    +0.117 C 
ATOM      6  C   LIG A   1      -3.761   7.752 130.979  0.00  0.00    +0.046 C 
ATOM      7  C   LIG A   1      -3.785   7.594 129.460  0.00  0.00    +0.087 C 
ATOM      8  N   LIG A   1      -4.213   6.257 129.007  0.00  0.00    -0.299 NA
ATOM      9  C   LIG A   1      -3.538   5.916 127.743  0.00  0.00    +0.089 C 
ATOM     10  C   LIG A   1      -3.361   3.501 128.341  0.00  0.00    +0.013 C 
ATOM     11  C   LIG A   1      -3.753   4.477 127.235  0.00  0.00    +0.021 C 
ATOM     12  C   LIG A   1      -5.182   4.130 126.752  0.00  0.00    +0.062 C 
ATOM     13  N   LIG A   1      -6.207   4.121 127.816  0.00  0.00    -0.292 NA
ATOM     14  C   LIG A   1      -7.475   3.577 127.284  0.00  0.00    +0.085 C 
ATOM     15  C   LIG A   1      -8.006   4.442 126.142  0.00  0.00    +0.015 C 
ATOM     16  C   LIG A   1      -6.975   4.596 125.032  0.00  0.00    +0.003 C 
ATOM     17  C   LIG A   1      -5.637   5.053 125.607  0.00  0.00    +0.019 C 
ENDROOT
BRANCH   1  25
ATOM     18  O   LIG A   1      -9.766   6.463 132.479  0.00  0.00    -0.276 OA
ATOM     19  C   LIG A   1      -9.104   6.196 131.474  0.00  0.00    +0.216 C 
ATOM     20  C   LIG A   1      -9.012   7.201 130.348  0.00  0.00    +0.110 C 
ATOM     21  N   LIG A   1      -8.404   4.993 131.325  0.00  0.00    -0.278 N 
ATOM     22  C   LIG A   1      -8.458   4.048 132.443  0.00  0.00    +0.113 C 
ATOM     23  C   LIG A   1      -8.143   2.618 132.022  0.00  0.00    +0.024 C 
ATOM     24  C   LIG A   1      -6.825   2.558 131.257  0.00  0.00    +0.035 C 
ATOM     25  C   LIG A   1      -6.760   3.632 130.204  0.00  0.00    -0.038 C 
ATOM     26  C   LIG A   1      -7.546   4.724 130.274  0.00  0.00    +0.078 C 
ENDBRANCH   1  25
BRANCH   5  27
ATOM     27  O   LIG A   1      -1.507   7.212 131.714  0.00  0.00    -0.392 OA
ATOM     28  H   LIG A   1      -1.561   8.111 132.083  0.00  0.00    +0.210 HD
ENDBRANCH   5  27
TORSDOF 2
ENDMDL
MODEL 8
REMARK VINA RESULT:      -7.4      3.586      5.197
REMARK  Name = NuBBE_1360
REMARK  3 active torsions:
REMARK  status: ('A' for Active; 'I' for Inactive)
REMARK    1  A    between atoms: C_2  and  C_3
REMARK    2  A    between atoms: C_8  and  C_9
REMARK    3  A    between atoms: C_15  and  O_17
REMARK                            x       y       z     vdW  Elec       q    Type
REMARK                         _______ _______ _______ _____ _____    ______ ____
ROOT
ATOM      1  C   LIG A   1      -6.959   3.384 125.337  0.00  0.00    +0.089 C 
ATOM      2  C   LIG A   1      -7.954   2.195 125.610  0.00  0.00    +0.028 C 
ATOM      3  C   LIG A   1      -7.287   0.793 125.751  0.00  0.00    +0.064 C 
ATOM      4  C   LIG A   1      -8.207  -0.256 126.400  0.00  0.00    +0.050 C 
ATOM      5  C   LIG A   1      -7.388  -1.480 126.828  0.00  0.00    +0.117 C 
ATOM      6  C   LIG A   1      -6.106  -1.658 126.008  0.00  0.00    +0.046 C 
ATOM      7  C   LIG A   1      -6.304  -1.154 124.579  0.00  0.00    +0.087 C 
ATOM      8  N   LIG A   1      -6.716   0.261 124.498  0.00  0.00    -0.299 NA
ATOM      9  C   LIG A   1      -7.574   0.466 123.320  0.00  0.00    +0.089 C 
ATOM     10  C   LIG A   1      -8.987   2.160 124.485  0.00  0.00    +0.013 C 
ATOM     11  C   LIG A   1      -8.224   1.858 123.197  0.00  0.00    +0.021 C 
ATOM     12  C   LIG A   1      -7.264   3.036 122.904  0.00  0.00    +0.062 C 
ATOM     13  N   LIG A   1      -6.321   3.351 123.997  0.00  0.00    -0.292 NA
ATOM     14  C   LIG A   1      -5.608   4.610 123.695  0.00  0.00    +0.085 C 
ATOM     15  C   LIG A   1      -4.792   4.483 122.409  0.00  0.00    +0.015 C 
ATOM     16  C   LIG A   1      -5.664   4.060 121.235  0.00  0.00    +0.003 C 
ATOM     17  C   LIG A   1      -6.480   2.822 121.596  0.00  0.00    +0.019 C 
ENDROOT
BRANCH   1  25
ATOM     18  O   LIG A   1      -4.749   4.955 130.780  0.00  0.00    -0.276 OA
ATOM     19  C   LIG A   1      -5.609   4.718 129.930  0.00  0.00    +0.216 C 
ATOM     20  C   LIG A   1      -7.044   5.124 130.181  0.00  0.00    +0.110 C 
ATOM     21  N   LIG A   1      -5.317   4.094 128.711  0.00  0.00    -0.278 N 
ATOM     22  C   LIG A   1      -3.916   3.751 128.457  0.00  0.00    +0.113 C 
ATOM     23  C   LIG A   1      -3.760   2.652 127.413  0.00  0.00    +0.024 C 
ATOM     24  C   LIG A   1      -4.525   3.001 126.141  0.00  0.00    +0.035 C 
ATOM     25  C   LIG A   1      -5.919   3.474 126.461  0.00  0.00    -0.038 C 
ATOM     26  C   LIG A   1      -6.233   3.939 127.686  0.00  0.00    +0.078 C 
ENDBRANCH   1  25
BRANCH   5  27
ATOM     27  O   LIG A   1      -8.215  -2.638 126.714  0.00  0.00    -0.392 OA
ATOM     28  H   LIG A   1      -8.096  -2.995 125.816  0.00  0.00    +0.210 HD
ENDBRANCH   5  27
TORSDOF 2
ENDMDL
MODEL 9
REMARK VINA RESULT:      -7.4      3.081      5.257
REMARK  Name = NuBBE_1360
REMARK  3 active torsions:
REMARK  status: ('A' for Active; 'I' for Inactive)
REMARK    1  A    between atoms: C_2  and  C_3
REMARK    2  A    between atoms: C_8  and  C_9
REMARK    3  A    between atoms: C_15  and  O_17
REMARK                            x       y       z     vdW  Elec       q    Type
REMARK                         _______ _______ _______ _____ _____    ______ ____
ROOT
ATOM      1  C   LIG A   1      -6.507  -0.391 127.509  0.00  0.00    +0.089 C 
ATOM      2  C   LIG A   1      -5.740   0.621 126.579  0.00  0.00    +0.028 C 
ATOM      3  C   LIG A   1      -6.629   1.717 125.916  0.00  0.00    +0.064 C 
ATOM      4  C   LIG A   1      -5.821   2.899 125.355  0.00  0.00    +0.050 C 
ATOM      5  C   LIG A   1      -6.756   4.077 125.051  0.00  0.00    +0.117 C 
ATOM      6  C   LIG A   1      -8.197   3.639 124.770  0.00  0.00    +0.046 C 
ATOM      7  C   LIG A   1      -8.224   2.265 124.103  0.00  0.00    +0.087 C 
ATOM      8  N   LIG A   1      -7.561   1.207 124.891  0.00  0.00    -0.299 NA
ATOM      9  C   LIG A   1      -6.963   0.210 123.988  0.00  0.00    +0.089 C 
ATOM     10  C   LIG A   1      -5.013  -0.172 125.495  0.00  0.00    +0.013 C 
ATOM     11  C   LIG A   1      -6.088  -0.865 124.662  0.00  0.00    +0.021 C 
ATOM     12  C   LIG A   1      -6.829  -1.885 125.560  0.00  0.00    +0.062 C 
ATOM     13  N   LIG A   1      -7.420  -1.312 126.787  0.00  0.00    -0.292 NA
ATOM     14  C   LIG A   1      -7.912  -2.398 127.660  0.00  0.00    +0.085 C 
ATOM     15  C   LIG A   1      -9.002  -3.212 126.962  0.00  0.00    +0.015 C 
ATOM     16  C   LIG A   1      -8.517  -3.766 125.629  0.00  0.00    +0.003 C 
ATOM     17  C   LIG A   1      -7.911  -2.653 124.778  0.00  0.00    +0.019 C 
ENDROOT
BRANCH   1  25
ATOM     18  O   LIG A   1      -7.763   1.229 133.234  0.00  0.00    -0.276 OA
ATOM     19  C   LIG A   1      -7.095   0.772 132.305  0.00  0.00    +0.216 C 
ATOM     20  C   LIG A   1      -5.842  -0.021 132.600  0.00  0.00    +0.110 C 
ATOM     21  N   LIG A   1      -7.453   0.939 130.961  0.00  0.00    -0.278 N 
ATOM     22  C   LIG A   1      -8.696   1.664 130.688  0.00  0.00    +0.113 C 
ATOM     23  C   LIG A   1      -8.741   2.246 129.281  0.00  0.00    +0.024 C 
ATOM     24  C   LIG A   1      -8.441   1.171 128.242  0.00  0.00    +0.035 C 
ATOM     25  C   LIG A   1      -7.231   0.364 128.631  0.00  0.00    -0.038 C 
ATOM     26  C   LIG A   1      -6.801   0.325 129.907  0.00  0.00    +0.078 C 
ENDBRANCH   1  25
BRANCH   5  27
ATOM     27  O   LIG A   1      -6.229   4.795 123.935  0.00  0.00    -0.392 OA
ATOM     28  H   LIG A   1      -5.380   5.183 124.212  0.00  0.00    +0.210 HD
ENDBRANCH   5  27
TORSDOF 2
ENDMDL
