MODEL 1
REMARK VINA RESULT:      -6.6      0.000      0.000
REMARK  Name = NuBBE_400
REMARK  5 active torsions:
REMARK  status: ('A' for Active; 'I' for Inactive)
REMARK    1  A    between atoms: C_1  and  C_2
REMARK    2  A    between atoms: C_2  and  S_3
REMARK    3  A    between atoms: S_3  and  S_4
REMARK    4  A    between atoms: S_4  and  C_5
REMARK    5  A    between atoms: C_5  and  C_6
REMARK                            x       y       z     vdW  Elec       q    Type
REMARK                         _______ _______ _______ _____ _____    ______ ____
ROOT
ATOM      1  S   LIG A   1      -7.744   3.310 123.468  0.00  0.00    -0.088 S 
ENDROOT
BRANCH   1   2
ATOM      2  C   LIG A   1      -6.369   2.931 122.338  0.00  0.00    +0.116 C 
BRANCH   2   3
ATOM      3  C   LIG A   1      -6.332   3.802 121.102  0.00  0.00    -0.037 A 
ATOM      4  C   LIG A   1      -7.385   3.748 120.175  0.00  0.00    +0.004 A 
ATOM      5  C   LIG A   1      -7.365   4.549 119.029  0.00  0.00    +0.000 A 
ATOM      6  C   LIG A   1      -6.287   5.392 118.784  0.00  0.00    +0.000 A 
ATOM      7  C   LIG A   1      -5.216   5.429 119.676  0.00  0.00    +0.000 A 
ATOM      8  C   LIG A   1      -5.244   4.647 120.840  0.00  0.00    +0.004 A 
ENDBRANCH   2   3
ENDBRANCH   1   2
BRANCH   1   9
ATOM      9  S   LIG A   1      -8.685   1.469 123.617  0.00  0.00    -0.088 S 
BRANCH   9  10
ATOM     10  C   LIG A   1      -7.302   0.305 123.387  0.00  0.00    +0.116 C 
BRANCH  10  11
ATOM     11  C   LIG A   1      -7.693  -1.133 123.648  0.00  0.00    -0.037 A 
ATOM     12  C   LIG A   1      -6.842  -2.007 124.350  0.00  0.00    +0.004 A 
ATOM     13  C   LIG A   1      -7.235  -3.326 124.597  0.00  0.00    +0.000 A 
ATOM     14  C   LIG A   1      -8.489  -3.775 124.202  0.00  0.00    +0.000 A 
ATOM     15  C   LIG A   1      -9.349  -2.916 123.515  0.00  0.00    +0.000 A 
ATOM     16  C   LIG A   1      -8.931  -1.620 123.210  0.00  0.00    +0.004 A 
ENDBRANCH  10  11
ENDBRANCH   9  10
ENDBRANCH   1   9
TORSDOF 5
ENDMDL
MODEL 2
REMARK VINA RESULT:      -6.5      1.496      7.445
REMARK  Name = NuBBE_400
REMARK  5 active torsions:
REMARK  status: ('A' for Active; 'I' for Inactive)
REMARK    1  A    between atoms: C_1  and  C_2
REMARK    2  A    between atoms: C_2  and  S_3
REMARK    3  A    between atoms: S_3  and  S_4
REMARK    4  A    between atoms: S_4  and  C_5
REMARK    5  A    between atoms: C_5  and  C_6
REMARK                            x       y       z     vdW  Elec       q    Type
REMARK                         _______ _______ _______ _____ _____    ______ ____
ROOT
ATOM      1  S   LIG A   1      -8.306   0.104 124.165  0.00  0.00    -0.088 S 
ENDROOT
BRANCH   1   2
ATOM      2  C   LIG A   1      -8.399  -1.483 123.281  0.00  0.00    +0.116 C 
BRANCH   2   3
ATOM      3  C   LIG A   1      -7.205  -2.382 123.507  0.00  0.00    -0.037 A 
ATOM      4  C   LIG A   1      -5.976  -2.081 122.898  0.00  0.00    +0.004 A 
ATOM      5  C   LIG A   1      -4.862  -2.902 123.099  0.00  0.00    +0.000 A 
ATOM      6  C   LIG A   1      -4.968  -4.043 123.887  0.00  0.00    +0.000 A 
ATOM      7  C   LIG A   1      -6.192  -4.376 124.467  0.00  0.00    +0.000 A 
ATOM      8  C   LIG A   1      -7.304  -3.542 124.289  0.00  0.00    +0.004 A 
ENDBRANCH   2   3
ENDBRANCH   1   2
BRANCH   1   9
ATOM      9  S   LIG A   1      -9.451   1.331 122.947  0.00  0.00    -0.088 S 
BRANCH   9  10
ATOM     10  C   LIG A   1      -8.569   2.922 123.057  0.00  0.00    +0.116 C 
BRANCH  10  11
ATOM     11  C   LIG A   1      -8.038   3.394 121.722  0.00  0.00    -0.037 A 
ATOM     12  C   LIG A   1      -8.905   3.740 120.670  0.00  0.00    +0.004 A 
ATOM     13  C   LIG A   1      -8.390   4.194 119.452  0.00  0.00    +0.000 A 
ATOM     14  C   LIG A   1      -7.021   4.361 119.282  0.00  0.00    +0.000 A 
ATOM     15  C   LIG A   1      -6.149   4.032 120.321  0.00  0.00    +0.000 A 
ATOM     16  C   LIG A   1      -6.658   3.517 121.514  0.00  0.00    +0.004 A 
ENDBRANCH  10  11
ENDBRANCH   9  10
ENDBRANCH   1   9
TORSDOF 5
ENDMDL
MODEL 3
REMARK VINA RESULT:      -6.5      1.390      7.101
REMARK  Name = NuBBE_400
REMARK  5 active torsions:
REMARK  status: ('A' for Active; 'I' for Inactive)
REMARK    1  A    between atoms: C_1  and  C_2
REMARK    2  A    between atoms: C_2  and  S_3
REMARK    3  A    between atoms: S_3  and  S_4
REMARK    4  A    between atoms: S_4  and  C_5
REMARK    5  A    between atoms: C_5  and  C_6
REMARK                            x       y       z     vdW  Elec       q    Type
REMARK                         _______ _______ _______ _____ _____    ______ ____
ROOT
ATOM      1  S   LIG A   1      -7.782   1.426 125.561  0.00  0.00    -0.088 S 
ENDROOT
BRANCH   1   2
ATOM      2  C   LIG A   1      -7.410   0.331 124.157  0.00  0.00    +0.116 C 
BRANCH   2   3
ATOM      3  C   LIG A   1      -8.129  -0.998 124.209  0.00  0.00    -0.037 A 
ATOM      4  C   LIG A   1      -8.544  -1.617 123.019  0.00  0.00    +0.004 A 
ATOM      5  C   LIG A   1      -9.208  -2.848 123.051  0.00  0.00    +0.000 A 
ATOM      6  C   LIG A   1      -9.487  -3.460 124.268  0.00  0.00    +0.000 A 
ATOM      7  C   LIG A   1      -9.115  -2.838 125.460  0.00  0.00    +0.000 A 
ATOM      8  C   LIG A   1      -8.426  -1.618 125.431  0.00  0.00    +0.004 A 
ENDBRANCH   2   3
ENDBRANCH   1   2
BRANCH   1   9
ATOM      9  S   LIG A   1      -8.172   3.222 124.601  0.00  0.00    -0.088 S 
BRANCH   9  10
ATOM     10  C   LIG A   1      -8.875   2.671 123.013  0.00  0.00    +0.116 C 
BRANCH  10  11
ATOM     11  C   LIG A   1      -8.177   3.279 121.817  0.00  0.00    -0.037 A 
ATOM     12  C   LIG A   1      -6.778   3.431 121.785  0.00  0.00    +0.004 A 
ATOM     13  C   LIG A   1      -6.154   3.978 120.659  0.00  0.00    +0.000 A 
ATOM     14  C   LIG A   1      -6.898   4.327 119.538  0.00  0.00    +0.000 A 
ATOM     15  C   LIG A   1      -8.285   4.171 119.552  0.00  0.00    +0.000 A 
ATOM     16  C   LIG A   1      -8.916   3.688 120.700  0.00  0.00    +0.004 A 
ENDBRANCH  10  11
ENDBRANCH   9  10
ENDBRANCH   1   9
TORSDOF 5
ENDMDL
MODEL 4
REMARK VINA RESULT:      -6.4      4.736      7.067
REMARK  Name = NuBBE_400
REMARK  5 active torsions:
REMARK  status: ('A' for Active; 'I' for Inactive)
REMARK    1  A    between atoms: C_1  and  C_2
REMARK    2  A    between atoms: C_2  and  S_3
REMARK    3  A    between atoms: S_3  and  S_4
REMARK    4  A    between atoms: S_4  and  C_5
REMARK    5  A    between atoms: C_5  and  C_6
REMARK                            x       y       z     vdW  Elec       q    Type
REMARK                         _______ _______ _______ _____ _____    ______ ____
ROOT
ATOM      1  S   LIG A   1      -7.273  -1.642 128.666  0.00  0.00    -0.088 S 
ENDROOT
BRANCH   1   2
ATOM      2  C   LIG A   1      -8.215  -3.071 128.047  0.00  0.00    +0.116 C 
BRANCH   2   3
ATOM      3  C   LIG A   1      -8.556  -2.990 126.577  0.00  0.00    -0.037 A 
ATOM      4  C   LIG A   1      -9.202  -1.852 126.068  0.00  0.00    +0.004 A 
ATOM      5  C   LIG A   1      -9.522  -1.762 124.710  0.00  0.00    +0.000 A 
ATOM      6  C   LIG A   1      -9.225  -2.814 123.851  0.00  0.00    +0.000 A 
ATOM      7  C   LIG A   1      -8.619  -3.968 124.348  0.00  0.00    +0.000 A 
ATOM      8  C   LIG A   1      -8.272  -4.051 125.704  0.00  0.00    +0.004 A 
ENDBRANCH   2   3
ENDBRANCH   1   2
BRANCH   1   9
ATOM      9  S   LIG A   1      -5.450  -1.897 127.714  0.00  0.00    -0.088 S 
BRANCH   9  10
ATOM     10  C   LIG A   1      -5.497  -0.607 126.428  0.00  0.00    +0.116 C 
BRANCH  10  11
ATOM     11  C   LIG A   1      -5.684  -1.169 125.036  0.00  0.00    -0.037 A 
ATOM     12  C   LIG A   1      -6.361  -0.444 124.039  0.00  0.00    +0.004 A 
ATOM     13  C   LIG A   1      -6.503  -0.976 122.753  0.00  0.00    +0.000 A 
ATOM     14  C   LIG A   1      -5.933  -2.201 122.429  0.00  0.00    +0.000 A 
ATOM     15  C   LIG A   1      -5.249  -2.927 123.405  0.00  0.00    +0.000 A 
ATOM     16  C   LIG A   1      -5.164  -2.427 124.706  0.00  0.00    +0.004 A 
ENDBRANCH  10  11
ENDBRANCH   9  10
ENDBRANCH   1   9
TORSDOF 5
ENDMDL
MODEL 5
REMARK VINA RESULT:      -6.3      3.771      4.902
REMARK  Name = NuBBE_400
REMARK  5 active torsions:
REMARK  status: ('A' for Active; 'I' for Inactive)
REMARK    1  A    between atoms: C_1  and  C_2
REMARK    2  A    between atoms: C_2  and  S_3
REMARK    3  A    between atoms: S_3  and  S_4
REMARK    4  A    between atoms: S_4  and  C_5
REMARK    5  A    between atoms: C_5  and  C_6
REMARK                            x       y       z     vdW  Elec       q    Type
REMARK                         _______ _______ _______ _____ _____    ______ ____
ROOT
ATOM      1  S   LIG A   1      -5.741  -0.023 127.400  0.00  0.00    -0.088 S 
ENDROOT
BRANCH   1   2
ATOM      2  C   LIG A   1      -7.515   0.370 127.304  0.00  0.00    +0.116 C 
BRANCH   2   3
ATOM      3  C   LIG A   1      -7.992   0.713 125.911  0.00  0.00    -0.037 A 
ATOM      4  C   LIG A   1      -7.090   1.232 124.968  0.00  0.00    +0.004 A 
ATOM      5  C   LIG A   1      -7.516   1.552 123.675  0.00  0.00    +0.000 A 
ATOM      6  C   LIG A   1      -8.849   1.382 123.317  0.00  0.00    +0.000 A 
ATOM      7  C   LIG A   1      -9.766   0.904 124.254  0.00  0.00    +0.000 A 
ATOM      8  C   LIG A   1      -9.337   0.557 125.543  0.00  0.00    +0.004 A 
ENDBRANCH   2   3
ENDBRANCH   1   2
BRANCH   1   9
ATOM      9  S   LIG A   1      -5.749  -2.073 127.089  0.00  0.00    -0.088 S 
BRANCH   9  10
ATOM     10  C   LIG A   1      -5.583  -2.194 125.279  0.00  0.00    +0.116 C 
BRANCH  10  11
ATOM     11  C   LIG A   1      -6.904  -2.434 124.582  0.00  0.00    -0.037 A 
ATOM     12  C   LIG A   1      -8.007  -2.974 125.268  0.00  0.00    +0.004 A 
ATOM     13  C   LIG A   1      -9.224  -3.168 124.607  0.00  0.00    +0.000 A 
ATOM     14  C   LIG A   1      -9.376  -2.781 123.281  0.00  0.00    +0.000 A 
ATOM     15  C   LIG A   1      -8.293  -2.234 122.590  0.00  0.00    +0.000 A 
ATOM     16  C   LIG A   1      -7.060  -2.102 123.230  0.00  0.00    +0.004 A 
ENDBRANCH  10  11
ENDBRANCH   9  10
ENDBRANCH   1   9
TORSDOF 5
ENDMDL
MODEL 6
REMARK VINA RESULT:      -6.3      4.252      6.122
REMARK  Name = NuBBE_400
REMARK  5 active torsions:
REMARK  status: ('A' for Active; 'I' for Inactive)
REMARK    1  A    between atoms: C_1  and  C_2
REMARK    2  A    between atoms: C_2  and  S_3
REMARK    3  A    between atoms: S_3  and  S_4
REMARK    4  A    between atoms: S_4  and  C_5
REMARK    5  A    between atoms: C_5  and  C_6
REMARK                            x       y       z     vdW  Elec       q    Type
REMARK                         _______ _______ _______ _____ _____    ______ ____
ROOT
ATOM      1  S   LIG A   1      -8.285   1.812 125.302  0.00  0.00    -0.088 S 
ENDROOT
BRANCH   1   2
ATOM      2  C   LIG A   1      -6.658   1.312 125.943  0.00  0.00    +0.116 C 
BRANCH   2   3
ATOM      3  C   LIG A   1      -6.653  -0.044 126.613  0.00  0.00    -0.037 A 
ATOM      4  C   LIG A   1      -7.843  -0.567 127.144  0.00  0.00    +0.004 A 
ATOM      5  C   LIG A   1      -7.854  -1.820 127.765  0.00  0.00    +0.000 A 
ATOM      6  C   LIG A   1      -6.677  -2.552 127.884  0.00  0.00    +0.000 A 
ATOM      7  C   LIG A   1      -5.480  -2.028 127.396  0.00  0.00    +0.000 A 
ATOM      8  C   LIG A   1      -5.470  -0.784 126.750  0.00  0.00    +0.004 A 
ENDBRANCH   2   3
ENDBRANCH   1   2
BRANCH   1   9
ATOM      9  S   LIG A   1      -8.132   1.277 123.305  0.00  0.00    -0.088 S 
BRANCH   9  10
ATOM     10  C   LIG A   1      -8.936  -0.359 123.277  0.00  0.00    +0.116 C 
BRANCH  10  11
ATOM     11  C   LIG A   1      -7.969  -1.494 123.526  0.00  0.00    -0.037 A 
ATOM     12  C   LIG A   1      -6.607  -1.384 123.187  0.00  0.00    +0.004 A 
ATOM     13  C   LIG A   1      -5.728  -2.441 123.446  0.00  0.00    +0.000 A 
ATOM     14  C   LIG A   1      -6.174  -3.589 124.088  0.00  0.00    +0.000 A 
ATOM     15  C   LIG A   1      -7.520  -3.709 124.440  0.00  0.00    +0.000 A 
ATOM     16  C   LIG A   1      -8.411  -2.682 124.122  0.00  0.00    +0.004 A 
ENDBRANCH  10  11
ENDBRANCH   9  10
ENDBRANCH   1   9
TORSDOF 5
ENDMDL
MODEL 7
REMARK VINA RESULT:      -6.2      1.183      2.202
REMARK  Name = NuBBE_400
REMARK  5 active torsions:
REMARK  status: ('A' for Active; 'I' for Inactive)
REMARK    1  A    between atoms: C_1  and  C_2
REMARK    2  A    between atoms: C_2  and  S_3
REMARK    3  A    between atoms: S_3  and  S_4
REMARK    4  A    between atoms: S_4  and  C_5
REMARK    5  A    between atoms: C_5  and  C_6
REMARK                            x       y       z     vdW  Elec       q    Type
REMARK                         _______ _______ _______ _____ _____    ______ ____
ROOT
ATOM      1  S   LIG A   1      -7.962   3.313 124.777  0.00  0.00    -0.088 S 
ENDROOT
BRANCH   1   2
ATOM      2  C   LIG A   1      -6.707   2.989 123.501  0.00  0.00    +0.116 C 
BRANCH   2   3
ATOM      3  C   LIG A   1      -7.124   3.411 122.110  0.00  0.00    -0.037 A 
ATOM      4  C   LIG A   1      -6.157   3.852 121.192  0.00  0.00    +0.004 A 
ATOM      5  C   LIG A   1      -6.528   4.244 119.901  0.00  0.00    +0.000 A 
ATOM      6  C   LIG A   1      -7.865   4.223 119.522  0.00  0.00    +0.000 A 
ATOM      7  C   LIG A   1      -8.841   3.824 120.435  0.00  0.00    +0.000 A 
ATOM      8  C   LIG A   1      -8.471   3.405 121.721  0.00  0.00    +0.004 A 
ENDBRANCH   2   3
ENDBRANCH   1   2
BRANCH   1   9
ATOM      9  S   LIG A   1      -8.318   1.405 125.508  0.00  0.00    -0.088 S 
BRANCH   9  10
ATOM     10  C   LIG A   1      -8.461   0.422 123.981  0.00  0.00    +0.116 C 
BRANCH  10  11
ATOM     11  C   LIG A   1      -7.782  -0.925 124.082  0.00  0.00    -0.037 A 
ATOM     12  C   LIG A   1      -8.525  -2.121 124.078  0.00  0.00    +0.004 A 
ATOM     13  C   LIG A   1      -7.873  -3.356 124.152  0.00  0.00    +0.000 A 
ATOM     14  C   LIG A   1      -6.485  -3.422 124.175  0.00  0.00    +0.000 A 
ATOM     15  C   LIG A   1      -5.735  -2.244 124.168  0.00  0.00    +0.000 A 
ATOM     16  C   LIG A   1      -6.387  -1.010 124.162  0.00  0.00    +0.004 A 
ENDBRANCH  10  11
ENDBRANCH   9  10
ENDBRANCH   1   9
TORSDOF 5
ENDMDL
MODEL 8
REMARK VINA RESULT:      -6.2      3.417      6.282
REMARK  Name = NuBBE_400
REMARK  5 active torsions:
REMARK  status: ('A' for Active; 'I' for Inactive)
REMARK    1  A    between atoms: C_1  and  C_2
REMARK    2  A    between atoms: C_2  and  S_3
REMARK    3  A    between atoms: S_3  and  S_4
REMARK    4  A    between atoms: S_4  and  C_5
REMARK    5  A    between atoms: C_5  and  C_6
REMARK                            x       y       z     vdW  Elec       q    Type
REMARK                         _______ _______ _______ _____ _____    ______ ____
ROOT
ATOM      1  S   LIG A   1      -5.755  -1.192 126.950  0.00  0.00    -0.088 S 
ENDROOT
BRANCH   1   2
ATOM      2  C   LIG A   1      -5.618  -1.475 125.158  0.00  0.00    +0.116 C 
BRANCH   2   3
ATOM      3  C   LIG A   1      -6.915  -1.892 124.502  0.00  0.00    -0.037 A 
ATOM      4  C   LIG A   1      -7.880  -2.596 125.240  0.00  0.00    +0.004 A 
ATOM      5  C   LIG A   1      -9.084  -2.986 124.647  0.00  0.00    +0.000 A 
ATOM      6  C   LIG A   1      -9.328  -2.702 123.308  0.00  0.00    +0.000 A 
ATOM      7  C   LIG A   1      -8.363  -2.038 122.551  0.00  0.00    +0.000 A 
ATOM      8  C   LIG A   1      -7.166  -1.621 123.149  0.00  0.00    +0.004 A 
ENDBRANCH   2   3
ENDBRANCH   1   2
BRANCH   1   9
ATOM      9  S   LIG A   1      -6.117   0.848 127.025  0.00  0.00    -0.088 S 
BRANCH   9  10
ATOM     10  C   LIG A   1      -7.934   0.927 126.908  0.00  0.00    +0.116 C 
BRANCH  10  11
ATOM     11  C   LIG A   1      -8.421   1.229 125.508  0.00  0.00    -0.037 A 
ATOM     12  C   LIG A   1      -7.575   1.814 124.549  0.00  0.00    +0.004 A 
ATOM     13  C   LIG A   1      -8.043   2.065 123.255  0.00  0.00    +0.000 A 
ATOM     14  C   LIG A   1      -9.329   1.691 122.884  0.00  0.00    +0.000 A 
ATOM     15  C   LIG A   1     -10.176   1.100 123.823  0.00  0.00    +0.000 A 
ATOM     16  C   LIG A   1      -9.732   0.910 125.132  0.00  0.00    +0.004 A 
ENDBRANCH  10  11
ENDBRANCH   9  10
ENDBRANCH   1   9
TORSDOF 5
ENDMDL
MODEL 9
REMARK VINA RESULT:      -6.2      3.757      5.586
REMARK  Name = NuBBE_400
REMARK  5 active torsions:
REMARK  status: ('A' for Active; 'I' for Inactive)
REMARK    1  A    between atoms: C_1  and  C_2
REMARK    2  A    between atoms: C_2  and  S_3
REMARK    3  A    between atoms: S_3  and  S_4
REMARK    4  A    between atoms: S_4  and  C_5
REMARK    5  A    between atoms: C_5  and  C_6
REMARK                            x       y       z     vdW  Elec       q    Type
REMARK                         _______ _______ _______ _____ _____    ______ ____
ROOT
ATOM      1  S   LIG A   1      -7.847   3.161 123.370  0.00  0.00    -0.088 S 
ENDROOT
BRANCH   1   2
ATOM      2  C   LIG A   1      -6.296   3.077 122.422  0.00  0.00    +0.116 C 
BRANCH   2   3
ATOM      3  C   LIG A   1      -6.328   3.851 121.123  0.00  0.00    -0.037 A 
ATOM      4  C   LIG A   1      -5.246   4.672 120.769  0.00  0.00    +0.004 A 
ATOM      5  C   LIG A   1      -5.261   5.392 119.570  0.00  0.00    +0.000 A 
ATOM      6  C   LIG A   1      -6.364   5.321 118.726  0.00  0.00    +0.000 A 
ATOM      7  C   LIG A   1      -7.463   4.540 119.083  0.00  0.00    +0.000 A 
ATOM      8  C   LIG A   1      -7.441   3.796 120.270  0.00  0.00    +0.004 A 
ENDBRANCH   2   3
ENDBRANCH   1   2
BRANCH   1   9
ATOM      9  S   LIG A   1      -7.177   3.835 125.212  0.00  0.00    -0.088 S 
BRANCH   9  10
ATOM     10  C   LIG A   1      -5.793   2.703 125.563  0.00  0.00    +0.116 C 
BRANCH  10  11
ATOM     11  C   LIG A   1      -4.667   3.367 126.322  0.00  0.00    -0.037 A 
ATOM     12  C   LIG A   1      -3.417   2.739 126.475  0.00  0.00    +0.004 A 
ATOM     13  C   LIG A   1      -2.384   3.382 127.164  0.00  0.00    +0.000 A 
ATOM     14  C   LIG A   1      -2.559   4.669 127.659  0.00  0.00    +0.000 A 
ATOM     15  C   LIG A   1      -3.790   5.309 127.505  0.00  0.00    +0.000 A 
ATOM     16  C   LIG A   1      -4.842   4.641 126.875  0.00  0.00    +0.004 A 
ENDBRANCH  10  11
ENDBRANCH   9  10
ENDBRANCH   1   9
TORSDOF 5
ENDMDL
