MODEL 1
REMARK VINA RESULT:      -5.5      0.000      0.000
REMARK  Name = NuBBE_1737
REMARK  3 active torsions:
REMARK  status: ('A' for Active; 'I' for Inactive)
REMARK    1  A    between atoms: C_1  and  C_2
REMARK    2  A    between atoms: C_1  and  C_3
REMARK    3  A    between atoms: C_1  and  C_4
REMARK                            x       y       z     vdW  Elec       q    Type
REMARK                         _______ _______ _______ _____ _____    ______ ____
ROOT
ATOM      1  C   LIG A   1     -11.724   7.439 129.142  0.00  0.00    -0.020 C 
ATOM      2  C   LIG A   1     -10.797   6.515 129.911  0.00  0.00    +0.021 C 
ATOM      3  C   LIG A   1     -10.242   7.746 129.258  0.00  0.00    +0.016 C 
ATOM      4  C   LIG A   1     -11.216   6.562 131.319  0.00  0.00    -0.073 C 
ATOM      5  C   LIG A   1     -10.508   6.140 132.375  0.00  0.00    +0.008 C 
ATOM      6  C   LIG A   1     -12.562   7.239 131.425  0.00  0.00    +0.031 C 
ATOM      7  C   LIG A   1     -12.662   8.090 130.149  0.00  0.00    +0.012 C 
ENDROOT
BRANCH   1   8
ATOM      8  C   LIG A   1     -12.334   7.078 127.795  0.00  0.00    -0.010 C 
ATOM      9  C   LIG A   1     -13.758   7.636 127.699  0.00  0.00    +0.008 C 
ATOM     10  C   LIG A   1     -11.524   7.520 126.574  0.00  0.00    +0.008 C 
ENDBRANCH   1   8
TORSDOF 1
ENDMDL
MODEL 2
REMARK VINA RESULT:      -5.3      1.059      4.056
REMARK  Name = NuBBE_1737
REMARK  3 active torsions:
REMARK  status: ('A' for Active; 'I' for Inactive)
REMARK    1  A    between atoms: C_1  and  C_2
REMARK    2  A    between atoms: C_1  and  C_3
REMARK    3  A    between atoms: C_1  and  C_4
REMARK                            x       y       z     vdW  Elec       q    Type
REMARK                         _______ _______ _______ _____ _____    ______ ____
ROOT
ATOM      1  C   LIG A   1     -11.187   7.217 130.139  0.00  0.00    -0.020 C 
ATOM      2  C   LIG A   1     -12.517   6.668 129.656  0.00  0.00    +0.021 C 
ATOM      3  C   LIG A   1     -12.483   7.611 130.823  0.00  0.00    +0.016 C 
ATOM      4  C   LIG A   1     -12.731   7.195 128.301  0.00  0.00    -0.073 C 
ATOM      5  C   LIG A   1     -13.887   7.207 127.625  0.00  0.00    +0.008 C 
ATOM      6  C   LIG A   1     -11.449   7.805 127.786  0.00  0.00    +0.031 C 
ATOM      7  C   LIG A   1     -10.650   8.141 129.055  0.00  0.00    +0.012 C 
ENDROOT
BRANCH   1   8
ATOM      8  C   LIG A   1     -10.152   6.375 130.872  0.00  0.00    -0.010 C 
ATOM      9  C   LIG A   1      -8.760   6.992 130.704  0.00  0.00    +0.008 C 
ATOM     10  C   LIG A   1     -10.437   6.141 132.358  0.00  0.00    +0.008 C 
ENDBRANCH   1   8
TORSDOF 1
ENDMDL
MODEL 3
REMARK VINA RESULT:      -5.1      1.474      3.631
REMARK  Name = NuBBE_1737
REMARK  3 active torsions:
REMARK  status: ('A' for Active; 'I' for Inactive)
REMARK    1  A    between atoms: C_1  and  C_2
REMARK    2  A    between atoms: C_1  and  C_3
REMARK    3  A    between atoms: C_1  and  C_4
REMARK                            x       y       z     vdW  Elec       q    Type
REMARK                         _______ _______ _______ _____ _____    ______ ____
ROOT
ATOM      1  C   LIG A   1     -12.362   7.169 129.551  0.00  0.00    -0.020 C 
ATOM      2  C   LIG A   1     -12.645   8.232 128.505  0.00  0.00    +0.021 C 
ATOM      3  C   LIG A   1     -13.420   6.947 128.485  0.00  0.00    +0.016 C 
ATOM      4  C   LIG A   1     -13.187   9.399 129.215  0.00  0.00    -0.073 C 
ATOM      5  C   LIG A   1     -13.836  10.434 128.666  0.00  0.00    +0.008 C 
ATOM      6  C   LIG A   1     -12.972   9.233 130.701  0.00  0.00    +0.031 C 
ATOM      7  C   LIG A   1     -12.819   7.717 130.897  0.00  0.00    +0.012 C 
ENDROOT
BRANCH   1   8
ATOM      8  C   LIG A   1     -11.094   6.328 129.567  0.00  0.00    -0.010 C 
ATOM      9  C   LIG A   1      -9.937   7.135 130.165  0.00  0.00    +0.008 C 
ATOM     10  C   LIG A   1     -11.213   4.984 130.289  0.00  0.00    +0.008 C 
ENDBRANCH   1   8
TORSDOF 1
ENDMDL
MODEL 4
REMARK VINA RESULT:      -5.1      1.423      3.750
REMARK  Name = NuBBE_1737
REMARK  3 active torsions:
REMARK  status: ('A' for Active; 'I' for Inactive)
REMARK    1  A    between atoms: C_1  and  C_2
REMARK    2  A    between atoms: C_1  and  C_3
REMARK    3  A    between atoms: C_1  and  C_4
REMARK                            x       y       z     vdW  Elec       q    Type
REMARK                         _______ _______ _______ _____ _____    ______ ____
ROOT
ATOM      1  C   LIG A   1     -10.549   6.770 130.368  0.00  0.00    -0.020 C 
ATOM      2  C   LIG A   1     -10.830   7.963 129.473  0.00  0.00    +0.021 C 
ATOM      3  C   LIG A   1     -10.473   6.642 128.857  0.00  0.00    +0.016 C 
ATOM      4  C   LIG A   1     -12.243   8.319 129.664  0.00  0.00    -0.073 C 
ATOM      5  C   LIG A   1     -12.980   9.107 128.871  0.00  0.00    +0.008 C 
ATOM      6  C   LIG A   1     -12.789   7.595 130.872  0.00  0.00    +0.031 C 
ATOM      7  C   LIG A   1     -11.858   6.386 131.045  0.00  0.00    +0.012 C 
ENDROOT
BRANCH   1   8
ATOM      8  C   LIG A   1      -9.293   6.640 131.218  0.00  0.00    -0.010 C 
ATOM      9  C   LIG A   1      -9.642   6.022 132.576  0.00  0.00    +0.008 C 
ATOM     10  C   LIG A   1      -8.148   5.855 130.572  0.00  0.00    +0.008 C 
ENDBRANCH   1   8
TORSDOF 1
ENDMDL
MODEL 5
REMARK VINA RESULT:      -5.1     11.390     12.474
REMARK  Name = NuBBE_1737
REMARK  3 active torsions:
REMARK  status: ('A' for Active; 'I' for Inactive)
REMARK    1  A    between atoms: C_1  and  C_2
REMARK    2  A    between atoms: C_1  and  C_3
REMARK    3  A    between atoms: C_1  and  C_4
REMARK                            x       y       z     vdW  Elec       q    Type
REMARK                         _______ _______ _______ _____ _____    ______ ____
ROOT
ATOM      1  C   LIG A   1      -7.116  -2.169 124.227  0.00  0.00    -0.020 C 
ATOM      2  C   LIG A   1      -6.136  -3.206 124.746  0.00  0.00    +0.021 C 
ATOM      3  C   LIG A   1      -7.578  -3.577 124.557  0.00  0.00    +0.016 C 
ATOM      4  C   LIG A   1      -5.171  -3.462 123.668  0.00  0.00    -0.073 C 
ATOM      5  C   LIG A   1      -4.327  -4.498 123.585  0.00  0.00    +0.008 C 
ATOM      6  C   LIG A   1      -5.314  -2.405 122.598  0.00  0.00    +0.031 C 
ATOM      7  C   LIG A   1      -6.742  -1.869 122.781  0.00  0.00    +0.012 C 
ENDROOT
BRANCH   1   8
ATOM      8  C   LIG A   1      -7.597  -0.985 125.053  0.00  0.00    -0.010 C 
ATOM      9  C   LIG A   1      -7.420   0.314 124.260  0.00  0.00    +0.008 C 
ATOM     10  C   LIG A   1      -9.037  -1.088 125.561  0.00  0.00    +0.008 C 
ENDBRANCH   1   8
TORSDOF 1
ENDMDL
MODEL 6
REMARK VINA RESULT:      -5.1      1.365      2.350
REMARK  Name = NuBBE_1737
REMARK  3 active torsions:
REMARK  status: ('A' for Active; 'I' for Inactive)
REMARK    1  A    between atoms: C_1  and  C_2
REMARK    2  A    between atoms: C_1  and  C_3
REMARK    3  A    between atoms: C_1  and  C_4
REMARK                            x       y       z     vdW  Elec       q    Type
REMARK                         _______ _______ _______ _____ _____    ______ ____
ROOT
ATOM      1  C   LIG A   1     -11.529   6.661 129.871  0.00  0.00    -0.020 C 
ATOM      2  C   LIG A   1     -11.151   6.237 131.278  0.00  0.00    +0.021 C 
ATOM      3  C   LIG A   1     -11.634   5.208 130.298  0.00  0.00    +0.016 C 
ATOM      4  C   LIG A   1      -9.709   6.481 131.427  0.00  0.00    -0.073 C 
ATOM      5  C   LIG A   1      -8.913   5.988 132.385  0.00  0.00    +0.008 C 
ATOM      6  C   LIG A   1      -9.218   7.328 130.278  0.00  0.00    +0.031 C 
ATOM      7  C   LIG A   1     -10.253   7.100 129.166  0.00  0.00    +0.012 C 
ENDROOT
BRANCH   1   8
ATOM      8  C   LIG A   1     -12.781   7.462 129.547  0.00  0.00    -0.010 C 
ATOM      9  C   LIG A   1     -12.414   8.928 129.294  0.00  0.00    +0.008 C 
ATOM     10  C   LIG A   1     -13.612   6.929 128.377  0.00  0.00    +0.008 C 
ENDBRANCH   1   8
TORSDOF 1
ENDMDL
MODEL 7
REMARK VINA RESULT:      -4.9      0.844      3.767
REMARK  Name = NuBBE_1737
REMARK  3 active torsions:
REMARK  status: ('A' for Active; 'I' for Inactive)
REMARK    1  A    between atoms: C_1  and  C_2
REMARK    2  A    between atoms: C_1  and  C_3
REMARK    3  A    between atoms: C_1  and  C_4
REMARK                            x       y       z     vdW  Elec       q    Type
REMARK                         _______ _______ _______ _____ _____    ______ ____
ROOT
ATOM      1  C   LIG A   1     -11.404   6.786 129.645  0.00  0.00    -0.020 C 
ATOM      2  C   LIG A   1     -10.592   7.515 128.591  0.00  0.00    +0.021 C 
ATOM      3  C   LIG A   1     -10.107   6.198 129.121  0.00  0.00    +0.016 C 
ATOM      4  C   LIG A   1     -11.408   7.553 127.370  0.00  0.00    -0.073 C 
ATOM      5  C   LIG A   1     -10.979   7.833 126.133  0.00  0.00    +0.008 C 
ATOM      6  C   LIG A   1     -12.827   7.149 127.697  0.00  0.00    +0.031 C 
ATOM      7  C   LIG A   1     -12.702   6.331 128.991  0.00  0.00    +0.012 C 
ENDROOT
BRANCH   1   8
ATOM      8  C   LIG A   1     -11.512   7.253 131.090  0.00  0.00    -0.010 C 
ATOM      9  C   LIG A   1     -12.972   7.569 131.430  0.00  0.00    +0.008 C 
ATOM     10  C   LIG A   1     -10.936   6.290 132.130  0.00  0.00    +0.008 C 
ENDBRANCH   1   8
TORSDOF 1
ENDMDL
MODEL 8
REMARK VINA RESULT:      -4.9     10.357     11.106
REMARK  Name = NuBBE_1737
REMARK  3 active torsions:
REMARK  status: ('A' for Active; 'I' for Inactive)
REMARK    1  A    between atoms: C_1  and  C_2
REMARK    2  A    between atoms: C_1  and  C_3
REMARK    3  A    between atoms: C_1  and  C_4
REMARK                            x       y       z     vdW  Elec       q    Type
REMARK                         _______ _______ _______ _____ _____    ______ ____
ROOT
ATOM      1  C   LIG A   1      -7.899  -2.469 126.465  0.00  0.00    -0.020 C 
ATOM      2  C   LIG A   1      -7.204  -2.329 127.807  0.00  0.00    +0.021 C 
ATOM      3  C   LIG A   1      -7.848  -1.129 127.177  0.00  0.00    +0.016 C 
ATOM      4  C   LIG A   1      -7.962  -3.140 128.770  0.00  0.00    -0.073 C 
ATOM      5  C   LIG A   1      -7.880  -3.075 130.105  0.00  0.00    +0.008 C 
ATOM      6  C   LIG A   1      -8.928  -4.034 128.028  0.00  0.00    +0.031 C 
ATOM      7  C   LIG A   1      -9.134  -3.334 126.676  0.00  0.00    +0.012 C 
ENDROOT
BRANCH   1   8
ATOM      8  C   LIG A   1      -7.153  -2.676 125.155  0.00  0.00    -0.010 C 
ATOM      9  C   LIG A   1      -7.740  -3.874 124.402  0.00  0.00    +0.008 C 
ATOM     10  C   LIG A   1      -7.109  -1.457 124.231  0.00  0.00    +0.008 C 
ENDBRANCH   1   8
TORSDOF 1
ENDMDL
MODEL 9
REMARK VINA RESULT:      -4.8     10.355     11.281
REMARK  Name = NuBBE_1737
REMARK  3 active torsions:
REMARK  status: ('A' for Active; 'I' for Inactive)
REMARK    1  A    between atoms: C_1  and  C_2
REMARK    2  A    between atoms: C_1  and  C_3
REMARK    3  A    between atoms: C_1  and  C_4
REMARK                            x       y       z     vdW  Elec       q    Type
REMARK                         _______ _______ _______ _____ _____    ______ ____
ROOT
ATOM      1  C   LIG A   1      -8.002  -1.645 124.568  0.00  0.00    -0.020 C 
ATOM      2  C   LIG A   1      -8.030  -1.865 126.069  0.00  0.00    +0.021 C 
ATOM      3  C   LIG A   1      -8.981  -0.887 125.445  0.00  0.00    +0.016 C 
ATOM      4  C   LIG A   1      -8.455  -3.254 126.292  0.00  0.00    -0.073 C 
ATOM      5  C   LIG A   1      -8.892  -3.778 127.445  0.00  0.00    +0.008 C 
ATOM      6  C   LIG A   1      -8.401  -4.015 124.989  0.00  0.00    +0.031 C 
ATOM      7  C   LIG A   1      -8.491  -2.927 123.908  0.00  0.00    +0.012 C 
ENDROOT
BRANCH   1   8
ATOM      8  C   LIG A   1      -6.879  -0.910 123.851  0.00  0.00    -0.010 C 
ATOM      9  C   LIG A   1      -6.393  -1.736 122.654  0.00  0.00    +0.008 C 
ATOM     10  C   LIG A   1      -7.218   0.510 123.394  0.00  0.00    +0.008 C 
ENDBRANCH   1   8
TORSDOF 1
ENDMDL
