MODEL 1
REMARK VINA RESULT:      -6.4      0.000      0.000
REMARK  Name = NuBBE_1939
REMARK  6 active torsions:
REMARK  status: ('A' for Active; 'I' for Inactive)
REMARK    1  A    between atoms: O_1  and  C_2
REMARK    2  A    between atoms: C_5  and  C_7
REMARK    3  A    between atoms: C_7  and  C_8
REMARK    4  A    between atoms: C_7  and  C_9
REMARK    5  A    between atoms: C_12  and  C_14
REMARK    6  A    between atoms: C_16  and  C_19
REMARK                            x       y       z     vdW  Elec       q    Type
REMARK                         _______ _______ _______ _____ _____    ______ ____
ROOT
ATOM      1  C   LIG A   1      -8.040   2.796 124.928  0.00  0.00    +0.075 C 
ATOM      2  C   LIG A   1      -7.754   2.487 123.405  0.00  0.00    +0.047 C 
ATOM      3  C   LIG A   1      -7.016   3.655 122.675  0.00  0.00    +0.001 C 
ATOM      4  C   LIG A   1      -5.757   4.045 123.491  0.00  0.00    +0.005 C 
ATOM      5  C   LIG A   1      -6.008   4.289 124.974  0.00  0.00    +0.006 C 
ATOM      6  C   LIG A   1      -6.704   3.101 125.649  0.00  0.00    +0.018 C 
ATOM      7  C   LIG A   1      -6.851   3.398 127.146  0.00  0.00    +0.010 C 
ATOM      8  C   LIG A   1      -9.094   2.086 122.768  0.00  0.00    -0.021 C 
ATOM      9  C   LIG A   1      -9.667   1.002 123.333  0.00  0.00    -0.076 C 
ATOM     10  C   LIG A   1     -10.045   1.170 124.785  0.00  0.00    +0.033 C 
ATOM     11  C   LIG A   1      -8.808   1.614 125.589  0.00  0.00    +0.040 C 
ATOM     12  C   LIG A   1      -9.278  -0.388 122.916  0.00  0.00    +0.038 C 
ENDROOT
BRANCH   3  13
ATOM     13  C   LIG A   1      -6.598   3.329 121.191  0.00  0.00    -0.013 C 
ATOM     14  C   LIG A   1      -5.117   3.651 120.919  0.00  0.00    +0.007 C 
ATOM     15  C   LIG A   1      -7.425   4.060 120.126  0.00  0.00    +0.007 C 
ENDBRANCH   3  13
BRANCH   1  16
ATOM     16  O   LIG A   1      -8.876   3.966 125.007  0.00  0.00    -0.388 OA
ATOM     17  H   LIG A   1      -9.148   4.210 124.106  0.00  0.00    +0.210 HD
ENDBRANCH   1  16
TORSDOF 2
ENDMDL
MODEL 2
REMARK VINA RESULT:      -6.1      4.494      6.985
REMARK  Name = NuBBE_1939
REMARK  6 active torsions:
REMARK  status: ('A' for Active; 'I' for Inactive)
REMARK    1  A    between atoms: O_1  and  C_2
REMARK    2  A    between atoms: C_5  and  C_7
REMARK    3  A    between atoms: C_7  and  C_8
REMARK    4  A    between atoms: C_7  and  C_9
REMARK    5  A    between atoms: C_12  and  C_14
REMARK    6  A    between atoms: C_16  and  C_19
REMARK                            x       y       z     vdW  Elec       q    Type
REMARK                         _______ _______ _______ _____ _____    ______ ____
ROOT
ATOM      1  C   LIG A   1      -7.259  -1.584 123.993  0.00  0.00    +0.075 C 
ATOM      2  C   LIG A   1      -6.739  -2.440 125.215  0.00  0.00    +0.047 C 
ATOM      3  C   LIG A   1      -7.207  -1.878 126.596  0.00  0.00    +0.001 C 
ATOM      4  C   LIG A   1      -8.744  -1.682 126.566  0.00  0.00    +0.005 C 
ATOM      5  C   LIG A   1      -9.266  -0.907 125.363  0.00  0.00    +0.006 C 
ATOM      6  C   LIG A   1      -8.806  -1.519 124.034  0.00  0.00    +0.018 C 
ATOM      7  C   LIG A   1      -9.432  -0.727 122.880  0.00  0.00    +0.010 C 
ATOM      8  C   LIG A   1      -5.215  -2.563 125.063  0.00  0.00    -0.021 C 
ATOM      9  C   LIG A   1      -4.824  -3.157 123.915  0.00  0.00    -0.076 C 
ATOM     10  C   LIG A   1      -5.209  -2.418 122.656  0.00  0.00    +0.033 C 
ATOM     11  C   LIG A   1      -6.731  -2.170 122.652  0.00  0.00    +0.040 C 
ATOM     12  C   LIG A   1      -4.757  -4.653 123.800  0.00  0.00    +0.038 C 
ENDROOT
BRANCH   3  13
ATOM     13  C   LIG A   1      -6.818  -2.780 127.828  0.00  0.00    -0.013 C 
ATOM     14  C   LIG A   1      -8.045  -3.184 128.664  0.00  0.00    +0.007 C 
ATOM     15  C   LIG A   1      -5.805  -2.140 128.786  0.00  0.00    +0.007 C 
ENDBRANCH   3  13
BRANCH   1  16
ATOM     16  O   LIG A   1      -6.745  -0.244 124.124  0.00  0.00    -0.388 OA
ATOM     17  H   LIG A   1      -7.213   0.193 124.854  0.00  0.00    +0.210 HD
ENDBRANCH   1  16
TORSDOF 2
ENDMDL
MODEL 3
REMARK VINA RESULT:      -6.0      3.593      6.783
REMARK  Name = NuBBE_1939
REMARK  6 active torsions:
REMARK  status: ('A' for Active; 'I' for Inactive)
REMARK    1  A    between atoms: O_1  and  C_2
REMARK    2  A    between atoms: C_5  and  C_7
REMARK    3  A    between atoms: C_7  and  C_8
REMARK    4  A    between atoms: C_7  and  C_9
REMARK    5  A    between atoms: C_12  and  C_14
REMARK    6  A    between atoms: C_16  and  C_19
REMARK                            x       y       z     vdW  Elec       q    Type
REMARK                         _______ _______ _______ _____ _____    ______ ____
ROOT
ATOM      1  C   LIG A   1      -8.017  -0.966 124.444  0.00  0.00    +0.075 C 
ATOM      2  C   LIG A   1      -7.539  -1.107 125.943  0.00  0.00    +0.047 C 
ATOM      3  C   LIG A   1      -8.423  -2.092 126.775  0.00  0.00    +0.001 C 
ATOM      4  C   LIG A   1      -8.529  -3.438 126.013  0.00  0.00    +0.005 C 
ATOM      5  C   LIG A   1      -8.933  -3.313 124.550  0.00  0.00    +0.006 C 
ATOM      6  C   LIG A   1      -8.016  -2.361 123.773  0.00  0.00    +0.018 C 
ATOM      7  C   LIG A   1      -8.444  -2.351 122.300  0.00  0.00    +0.010 C 
ATOM      8  C   LIG A   1      -7.454   0.314 126.524  0.00  0.00    -0.021 C 
ATOM      9  C   LIG A   1      -6.597   1.125 125.866  0.00  0.00    -0.076 C 
ATOM     10  C   LIG A   1      -6.959   1.394 124.425  0.00  0.00    +0.033 C 
ATOM     11  C   LIG A   1      -7.123   0.055 123.680  0.00  0.00    +0.040 C 
ATOM     12  C   LIG A   1      -5.129   1.122 126.182  0.00  0.00    +0.038 C 
ENDROOT
BRANCH   3  13
ATOM     13  C   LIG A   1      -7.896  -2.357 128.236  0.00  0.00    -0.013 C 
ATOM     14  C   LIG A   1      -6.375  -2.591 128.273  0.00  0.00    +0.007 C 
ATOM     15  C   LIG A   1      -8.558  -3.549 128.939  0.00  0.00    +0.007 C 
ENDBRANCH   3  13
BRANCH   1  16
ATOM     16  O   LIG A   1      -9.366  -0.462 124.441  0.00  0.00    -0.388 OA
ATOM     17  H   LIG A   1      -9.483   0.094 123.653  0.00  0.00    +0.210 HD
ENDBRANCH   1  16
TORSDOF 2
ENDMDL
MODEL 4
REMARK VINA RESULT:      -6.0      3.804      5.581
REMARK  Name = NuBBE_1939
REMARK  6 active torsions:
REMARK  status: ('A' for Active; 'I' for Inactive)
REMARK    1  A    between atoms: O_1  and  C_2
REMARK    2  A    between atoms: C_5  and  C_7
REMARK    3  A    between atoms: C_7  and  C_8
REMARK    4  A    between atoms: C_7  and  C_9
REMARK    5  A    between atoms: C_12  and  C_14
REMARK    6  A    between atoms: C_16  and  C_19
REMARK                            x       y       z     vdW  Elec       q    Type
REMARK                         _______ _______ _______ _____ _____    ______ ____
ROOT
ATOM      1  C   LIG A   1      -8.423  -2.330 125.791  0.00  0.00    +0.075 C 
ATOM      2  C   LIG A   1      -7.482  -1.122 125.401  0.00  0.00    +0.047 C 
ATOM      3  C   LIG A   1      -7.548   0.057 126.424  0.00  0.00    +0.001 C 
ATOM      4  C   LIG A   1      -7.308  -0.499 127.850  0.00  0.00    +0.005 C 
ATOM      5  C   LIG A   1      -8.168  -1.700 128.220  0.00  0.00    +0.006 C 
ATOM      6  C   LIG A   1      -8.042  -2.841 127.203  0.00  0.00    +0.018 C 
ATOM      7  C   LIG A   1      -8.878  -4.032 127.687  0.00  0.00    +0.010 C 
ATOM      8  C   LIG A   1      -7.830  -0.730 123.956  0.00  0.00    -0.021 C 
ATOM      9  C   LIG A   1      -7.657  -1.726 123.060  0.00  0.00    -0.076 C 
ATOM     10  C   LIG A   1      -8.536  -2.934 123.280  0.00  0.00    +0.033 C 
ATOM     11  C   LIG A   1      -8.343  -3.454 124.718  0.00  0.00    +0.040 C 
ATOM     12  C   LIG A   1      -6.311  -1.999 122.452  0.00  0.00    +0.038 C 
ENDROOT
BRANCH   3  13
ATOM     13  C   LIG A   1      -6.525   1.221 126.136  0.00  0.00    -0.013 C 
ATOM     14  C   LIG A   1      -5.066   0.730 126.150  0.00  0.00    +0.007 C 
ATOM     15  C   LIG A   1      -6.617   2.399 127.113  0.00  0.00    +0.007 C 
ENDBRANCH   3  13
BRANCH   1  16
ATOM     16  O   LIG A   1      -9.782  -1.854 125.832  0.00  0.00    -0.388 OA
ATOM     17  H   LIG A   1     -10.215  -2.232 126.615  0.00  0.00    +0.210 HD
ENDBRANCH   1  16
TORSDOF 2
ENDMDL
MODEL 5
REMARK VINA RESULT:      -6.0      3.694      6.294
REMARK  Name = NuBBE_1939
REMARK  6 active torsions:
REMARK  status: ('A' for Active; 'I' for Inactive)
REMARK    1  A    between atoms: O_1  and  C_2
REMARK    2  A    between atoms: C_5  and  C_7
REMARK    3  A    between atoms: C_7  and  C_8
REMARK    4  A    between atoms: C_7  and  C_9
REMARK    5  A    between atoms: C_12  and  C_14
REMARK    6  A    between atoms: C_16  and  C_19
REMARK                            x       y       z     vdW  Elec       q    Type
REMARK                         _______ _______ _______ _____ _____    ______ ____
ROOT
ATOM      1  C   LIG A   1      -7.988  -0.448 125.168  0.00  0.00    +0.075 C 
ATOM      2  C   LIG A   1      -8.181  -1.864 125.842  0.00  0.00    +0.047 C 
ATOM      3  C   LIG A   1      -7.484  -1.975 127.237  0.00  0.00    +0.001 C 
ATOM      4  C   LIG A   1      -7.933  -0.784 128.121  0.00  0.00    +0.005 C 
ATOM      5  C   LIG A   1      -7.806   0.584 127.462  0.00  0.00    +0.006 C 
ATOM      6  C   LIG A   1      -8.534   0.649 126.114  0.00  0.00    +0.018 C 
ATOM      7  C   LIG A   1      -8.420   2.074 125.557  0.00  0.00    +0.010 C 
ATOM      8  C   LIG A   1      -7.726  -2.916 124.819  0.00  0.00    -0.021 C 
ATOM      9  C   LIG A   1      -8.416  -2.887 123.658  0.00  0.00    -0.076 C 
ATOM     10  C   LIG A   1      -8.281  -1.604 122.873  0.00  0.00    +0.033 C 
ATOM     11  C   LIG A   1      -8.671  -0.412 123.769  0.00  0.00    +0.040 C 
ATOM     12  C   LIG A   1      -9.727  -3.605 123.517  0.00  0.00    +0.038 C 
ENDROOT
BRANCH   3  13
ATOM     13  C   LIG A   1      -7.767  -3.326 127.996  0.00  0.00    -0.013 C 
ATOM     14  C   LIG A   1      -9.197  -3.841 127.754  0.00  0.00    +0.007 C 
ATOM     15  C   LIG A   1      -7.560  -3.253 129.514  0.00  0.00    +0.007 C 
ENDBRANCH   3  13
BRANCH   1  16
ATOM     16  O   LIG A   1      -6.578  -0.223 124.977  0.00  0.00    -0.388 OA
ATOM     17  H   LIG A   1      -6.465   0.596 124.468  0.00  0.00    +0.210 HD
ENDBRANCH   1  16
TORSDOF 2
ENDMDL
MODEL 6
REMARK VINA RESULT:      -5.7      4.152      6.386
REMARK  Name = NuBBE_1939
REMARK  6 active torsions:
REMARK  status: ('A' for Active; 'I' for Inactive)
REMARK    1  A    between atoms: O_1  and  C_2
REMARK    2  A    between atoms: C_5  and  C_7
REMARK    3  A    between atoms: C_7  and  C_8
REMARK    4  A    between atoms: C_7  and  C_9
REMARK    5  A    between atoms: C_12  and  C_14
REMARK    6  A    between atoms: C_16  and  C_19
REMARK                            x       y       z     vdW  Elec       q    Type
REMARK                         _______ _______ _______ _____ _____    ______ ____
ROOT
ATOM      1  C   LIG A   1      -6.901  -1.644 127.496  0.00  0.00    +0.075 C 
ATOM      2  C   LIG A   1      -7.320  -1.415 125.991  0.00  0.00    +0.047 C 
ATOM      3  C   LIG A   1      -7.864  -2.710 125.306  0.00  0.00    +0.001 C 
ATOM      4  C   LIG A   1      -8.982  -3.317 126.191  0.00  0.00    +0.005 C 
ATOM      5  C   LIG A   1      -8.611  -3.490 127.658  0.00  0.00    +0.006 C 
ATOM      6  C   LIG A   1      -8.116  -2.184 128.291  0.00  0.00    +0.018 C 
ATOM      7  C   LIG A   1      -7.836  -2.428 129.778  0.00  0.00    +0.010 C 
ATOM      8  C   LIG A   1      -6.115  -0.778 125.280  0.00  0.00    -0.021 C 
ATOM      9  C   LIG A   1      -5.726   0.402 125.810  0.00  0.00    -0.076 C 
ATOM     10  C   LIG A   1      -5.246   0.326 127.239  0.00  0.00    +0.033 C 
ATOM     11  C   LIG A   1      -6.334  -0.331 128.112  0.00  0.00    +0.040 C 
ATOM     12  C   LIG A   1      -6.390   1.688 125.410  0.00  0.00    +0.038 C 
ENDROOT
BRANCH   3  13
ATOM     13  C   LIG A   1      -8.414  -2.488 123.846  0.00  0.00    -0.013 C 
ATOM     14  C   LIG A   1      -8.932  -1.054 123.632  0.00  0.00    +0.007 C 
ATOM     15  C   LIG A   1      -9.542  -3.445 123.444  0.00  0.00    +0.007 C 
ENDBRANCH   3  13
BRANCH   1  16
ATOM     16  O   LIG A   1      -5.857  -2.636 127.533  0.00  0.00    -0.388 OA
ATOM     17  H   LIG A   1      -6.121  -3.379 126.966  0.00  0.00    +0.210 HD
ENDBRANCH   1  16
TORSDOF 2
ENDMDL
MODEL 7
REMARK VINA RESULT:      -5.6      8.216      9.154
REMARK  Name = NuBBE_1939
REMARK  6 active torsions:
REMARK  status: ('A' for Active; 'I' for Inactive)
REMARK    1  A    between atoms: O_1  and  C_2
REMARK    2  A    between atoms: C_5  and  C_7
REMARK    3  A    between atoms: C_7  and  C_8
REMARK    4  A    between atoms: C_7  and  C_9
REMARK    5  A    between atoms: C_12  and  C_14
REMARK    6  A    between atoms: C_16  and  C_19
REMARK                            x       y       z     vdW  Elec       q    Type
REMARK                         _______ _______ _______ _____ _____    ______ ____
ROOT
ATOM      1  C   LIG A   1      -7.294   4.973 132.371  0.00  0.00    +0.075 C 
ATOM      2  C   LIG A   1      -8.825   4.840 132.005  0.00  0.00    +0.047 C 
ATOM      3  C   LIG A   1      -9.514   6.219 131.750  0.00  0.00    +0.001 C 
ATOM      4  C   LIG A   1      -8.681   7.015 130.713  0.00  0.00    +0.005 C 
ATOM      5  C   LIG A   1      -7.191   7.104 131.023  0.00  0.00    +0.006 C 
ATOM      6  C   LIG A   1      -6.558   5.722 131.232  0.00  0.00    +0.018 C 
ATOM      7  C   LIG A   1      -5.053   5.897 131.464  0.00  0.00    +0.010 C 
ATOM      8  C   LIG A   1      -9.480   3.997 133.111  0.00  0.00    -0.021 C 
ATOM      9  C   LIG A   1      -8.953   2.761 133.244  0.00  0.00    -0.076 C 
ATOM     10  C   LIG A   1      -7.497   2.734 133.646  0.00  0.00    +0.033 C 
ATOM     11  C   LIG A   1      -6.674   3.573 132.649  0.00  0.00    +0.040 C 
ATOM     12  C   LIG A   1      -9.414   1.624 132.379  0.00  0.00    +0.038 C 
ENDROOT
BRANCH   3  13
ATOM     13  C   LIG A   1     -11.006   6.116 131.255  0.00  0.00    -0.013 C 
ATOM     14  C   LIG A   1     -11.233   4.897 130.342  0.00  0.00    +0.007 C 
ATOM     15  C   LIG A   1     -11.507   7.351 130.496  0.00  0.00    +0.007 C 
ENDBRANCH   3  13
BRANCH   1  16
ATOM     16  O   LIG A   1      -7.180   5.755 133.575  0.00  0.00    -0.388 OA
ATOM     17  H   LIG A   1      -8.000   5.653 134.085  0.00  0.00    +0.210 HD
ENDBRANCH   1  16
TORSDOF 2
ENDMDL
MODEL 8
REMARK VINA RESULT:      -5.6      3.026      4.675
REMARK  Name = NuBBE_1939
REMARK  6 active torsions:
REMARK  status: ('A' for Active; 'I' for Inactive)
REMARK    1  A    between atoms: O_1  and  C_2
REMARK    2  A    between atoms: C_5  and  C_7
REMARK    3  A    between atoms: C_7  and  C_8
REMARK    4  A    between atoms: C_7  and  C_9
REMARK    5  A    between atoms: C_12  and  C_14
REMARK    6  A    between atoms: C_16  and  C_19
REMARK                            x       y       z     vdW  Elec       q    Type
REMARK                         _______ _______ _______ _____ _____    ______ ____
ROOT
ATOM      1  C   LIG A   1      -7.747   0.689 125.906  0.00  0.00    +0.075 C 
ATOM      2  C   LIG A   1      -7.646  -0.386 124.754  0.00  0.00    +0.047 C 
ATOM      3  C   LIG A   1      -6.423  -1.345 124.919  0.00  0.00    +0.001 C 
ATOM      4  C   LIG A   1      -6.444  -1.946 126.348  0.00  0.00    +0.005 C 
ATOM      5  C   LIG A   1      -6.598  -0.925 127.468  0.00  0.00    +0.006 C 
ATOM      6  C   LIG A   1      -7.830  -0.032 127.275  0.00  0.00    +0.018 C 
ATOM      7  C   LIG A   1      -7.952   0.912 128.477  0.00  0.00    +0.010 C 
ATOM      8  C   LIG A   1      -7.678   0.379 123.421  0.00  0.00    -0.021 C 
ATOM      9  C   LIG A   1      -8.795   1.115 123.237  0.00  0.00    -0.076 C 
ATOM     10  C   LIG A   1      -8.996   2.223 124.242  0.00  0.00    +0.033 C 
ATOM     11  C   LIG A   1      -8.959   1.636 125.667  0.00  0.00    +0.040 C 
ATOM     12  C   LIG A   1     -10.048   0.497 122.684  0.00  0.00    +0.038 C 
ENDROOT
BRANCH   3  13
ATOM     13  C   LIG A   1      -6.368  -2.511 123.862  0.00  0.00    -0.013 C 
ATOM     14  C   LIG A   1      -7.280  -3.690 124.246  0.00  0.00    +0.007 C 
ATOM     15  C   LIG A   1      -4.964  -3.081 123.622  0.00  0.00    +0.007 C 
ENDBRANCH   3  13
BRANCH   1  16
ATOM     16  O   LIG A   1      -6.549   1.490 125.888  0.00  0.00    -0.388 OA
ATOM     17  H   LIG A   1      -6.642   2.164 125.195  0.00  0.00    +0.210 HD
ENDBRANCH   1  16
TORSDOF 2
ENDMDL
MODEL 9
REMARK VINA RESULT:      -5.6      2.858      4.208
REMARK  Name = NuBBE_1939
REMARK  6 active torsions:
REMARK  status: ('A' for Active; 'I' for Inactive)
REMARK    1  A    between atoms: O_1  and  C_2
REMARK    2  A    between atoms: C_5  and  C_7
REMARK    3  A    between atoms: C_7  and  C_8
REMARK    4  A    between atoms: C_7  and  C_9
REMARK    5  A    between atoms: C_12  and  C_14
REMARK    6  A    between atoms: C_16  and  C_19
REMARK                            x       y       z     vdW  Elec       q    Type
REMARK                         _______ _______ _______ _____ _____    ______ ____
ROOT
ATOM      1  C   LIG A   1      -8.053  -1.335 125.729  0.00  0.00    +0.075 C 
ATOM      2  C   LIG A   1      -7.685  -0.295 124.598  0.00  0.00    +0.047 C 
ATOM      3  C   LIG A   1      -8.298   1.121 124.848  0.00  0.00    +0.001 C 
ATOM      4  C   LIG A   1      -7.928   1.584 126.280  0.00  0.00    +0.005 C 
ATOM      5  C   LIG A   1      -8.225   0.568 127.376  0.00  0.00    +0.006 C 
ATOM      6  C   LIG A   1      -7.574  -0.793 127.099  0.00  0.00    +0.018 C 
ATOM      7  C   LIG A   1      -7.858  -1.729 128.280  0.00  0.00    +0.010 C 
ATOM      8  C   LIG A   1      -8.082  -0.931 123.256  0.00  0.00    -0.021 C 
ATOM      9  C   LIG A   1      -7.457  -2.100 122.996  0.00  0.00    -0.076 C 
ATOM     10  C   LIG A   1      -7.759  -3.210 123.974  0.00  0.00    +0.033 C 
ATOM     11  C   LIG A   1      -7.447  -2.732 125.406  0.00  0.00    +0.040 C 
ATOM     12  C   LIG A   1      -6.089  -2.127 122.378  0.00  0.00    +0.038 C 
ENDROOT
BRANCH   3  13
ATOM     13  C   LIG A   1      -7.843   2.215 123.810  0.00  0.00    -0.013 C 
ATOM     14  C   LIG A   1      -7.444   3.535 124.493  0.00  0.00    +0.007 C 
ATOM     15  C   LIG A   1      -8.896   2.553 122.746  0.00  0.00    +0.007 C 
ENDBRANCH   3  13
BRANCH   1  16
ATOM     16  O   LIG A   1      -9.486  -1.473 125.773  0.00  0.00    -0.388 OA
ATOM     17  H   LIG A   1      -9.758  -1.550 126.702  0.00  0.00    +0.210 HD
ENDBRANCH   1  16
TORSDOF 2
ENDMDL
