MODEL 1
REMARK VINA RESULT:      -6.9      0.000      0.000
REMARK  Name = NuBBE_1439
REMARK  9 active torsions:
REMARK  status: ('A' for Active; 'I' for Inactive)
REMARK    1  A    between atoms: O_1  and  C_2
REMARK    2  A    between atoms: C_14  and  O_15
REMARK    3  A    between atoms: O_15  and  C_16
REMARK    4  A    between atoms: C_17  and  O_18
REMARK    5  A    between atoms: C_17  and  C_20
REMARK    6  A    between atoms: O_18  and  C_19
REMARK    7  A    between atoms: C_20  and  C_21
REMARK    8  A    between atoms: C_22  and  C_23
REMARK    9  A    between atoms: C_22  and  C_24
REMARK                            x       y       z     vdW  Elec       q    Type
REMARK                         _______ _______ _______ _____ _____    ______ ____
ROOT
ATOM      1  C   LIG A   1      -9.844   5.453 132.348  0.00  0.00    +0.153 C 
ATOM      2  C   LIG A   1      -8.983   4.877 133.477  0.00  0.00    +0.039 C 
ATOM      3  C   LIG A   1      -7.618   4.371 133.040  0.00  0.00    +0.043 C 
ATOM      4  C   LIG A   1      -6.883   5.433 132.264  0.00  0.00    +0.019 A 
ATOM      5  C   LIG A   1      -7.601   6.257 131.380  0.00  0.00    +0.086 A 
ATOM      6  N   LIG A   1      -7.031   7.232 130.637  0.00  0.00    -0.214 NA
ATOM      7  C   LIG A   1      -5.700   7.326 130.756  0.00  0.00    +0.231 A 
ATOM      8  O   LIG A   1      -4.977   8.220 130.030  0.00  0.00    -0.445 OA
ATOM      9  C   LIG A   1      -3.672   8.013 130.324  0.00  0.00    +0.198 A 
ATOM     10  C   LIG A   1      -3.542   6.995 131.240  0.00  0.00    +0.055 A 
ATOM     11  C   LIG A   1      -4.859   6.546 131.549  0.00  0.00    +0.082 A 
ATOM     12  C   LIG A   1      -5.480   5.569 132.353  0.00  0.00    +0.137 A 
ATOM     13  C   LIG A   1      -9.071   5.914 131.057  0.00  0.00    +0.140 C 
ENDROOT
BRANCH   1  14
ATOM     14  O   LIG A   1     -10.616   6.507 132.949  0.00  0.00    -0.389 OA
ATOM     15  H   LIG A   1     -10.423   6.498 133.902  0.00  0.00    +0.210 HD
ENDBRANCH   1  14
BRANCH  12  16
ATOM     16  O   LIG A   1      -4.828   4.622 133.129  0.00  0.00    -0.494 OA
ATOM     17  C   LIG A   1      -4.234   5.102 134.327  0.00  0.00    +0.277 C 
ENDBRANCH  12  16
BRANCH  13  18
ATOM     18  O   LIG A   1      -9.066   4.740 130.178  0.00  0.00    -0.368 OA
ATOM     19  C   LIG A   1     -10.110   3.790 130.383  0.00  0.00    +0.195 C 
ENDBRANCH  13  18
BRANCH  13  20
ATOM     20  C   LIG A   1      -9.814   7.119 130.377  0.00  0.00    +0.071 C 
BRANCH  20  21
ATOM     21  C   LIG A   1     -10.023   6.982 128.882  0.00  0.00    -0.025 C 
ATOM     22  C   LIG A   1     -10.907   7.663 128.116  0.00  0.00    -0.080 C 
ATOM     23  C   LIG A   1     -11.844   8.722 128.622  0.00  0.00    +0.038 C 
ATOM     24  C   LIG A   1     -10.998   7.403 126.637  0.00  0.00    +0.038 C 
ENDBRANCH  20  21
ENDBRANCH  13  20
TORSDOF 5
ENDMDL
MODEL 2
REMARK VINA RESULT:      -6.6      7.654      9.662
REMARK  Name = NuBBE_1439
REMARK  9 active torsions:
REMARK  status: ('A' for Active; 'I' for Inactive)
REMARK    1  A    between atoms: O_1  and  C_2
REMARK    2  A    between atoms: C_14  and  O_15
REMARK    3  A    between atoms: O_15  and  C_16
REMARK    4  A    between atoms: C_17  and  O_18
REMARK    5  A    between atoms: C_17  and  C_20
REMARK    6  A    between atoms: O_18  and  C_19
REMARK    7  A    between atoms: C_20  and  C_21
REMARK    8  A    between atoms: C_22  and  C_23
REMARK    9  A    between atoms: C_22  and  C_24
REMARK                            x       y       z     vdW  Elec       q    Type
REMARK                         _______ _______ _______ _____ _____    ______ ____
ROOT
ATOM      1  C   LIG A   1      -8.815  -1.626 123.156  0.00  0.00    +0.153 C 
ATOM      2  C   LIG A   1      -9.141  -2.896 123.950  0.00  0.00    +0.039 C 
ATOM      3  C   LIG A   1      -8.215  -3.165 125.124  0.00  0.00    +0.043 C 
ATOM      4  C   LIG A   1      -8.127  -1.956 126.019  0.00  0.00    +0.019 A 
ATOM      5  C   LIG A   1      -8.112  -0.676 125.440  0.00  0.00    +0.086 A 
ATOM      6  N   LIG A   1      -8.030   0.468 126.157  0.00  0.00    -0.214 NA
ATOM      7  C   LIG A   1      -7.904   0.295 127.480  0.00  0.00    +0.231 A 
ATOM      8  O   LIG A   1      -7.754   1.347 128.329  0.00  0.00    -0.445 OA
ATOM      9  C   LIG A   1      -7.581   0.839 129.571  0.00  0.00    +0.198 A 
ATOM     10  C   LIG A   1      -7.622  -0.536 129.537  0.00  0.00    +0.055 A 
ATOM     11  C   LIG A   1      -7.853  -0.909 128.181  0.00  0.00    +0.082 A 
ATOM     12  C   LIG A   1      -7.990  -2.086 127.418  0.00  0.00    +0.137 A 
ATOM     13  C   LIG A   1      -7.958  -0.542 123.910  0.00  0.00    +0.140 C 
ENDROOT
BRANCH   1  14
ATOM     14  O   LIG A   1     -10.080  -1.122 122.694  0.00  0.00    -0.389 OA
ATOM     15  H   LIG A   1     -10.277  -0.321 123.210  0.00  0.00    +0.210 HD
ENDBRANCH   1  14
BRANCH  12  16
ATOM     16  O   LIG A   1      -7.861  -3.382 127.896  0.00  0.00    -0.494 OA
ATOM     17  C   LIG A   1      -9.007  -3.925 128.538  0.00  0.00    +0.277 C 
ENDBRANCH  12  16
BRANCH  13  18
ATOM     18  O   LIG A   1      -6.566  -0.861 123.579  0.00  0.00    -0.368 OA
ATOM     19  C   LIG A   1      -6.360  -1.699 122.443  0.00  0.00    +0.195 C 
ENDBRANCH  13  18
BRANCH  13  20
ATOM     20  C   LIG A   1      -8.337   0.897 123.411  0.00  0.00    +0.071 C 
BRANCH  20  21
ATOM     21  C   LIG A   1      -7.159   1.797 123.094  0.00  0.00    -0.025 C 
ATOM     22  C   LIG A   1      -7.159   2.892 122.298  0.00  0.00    -0.080 C 
ATOM     23  C   LIG A   1      -8.365   3.438 121.588  0.00  0.00    +0.038 C 
ATOM     24  C   LIG A   1      -5.896   3.678 122.076  0.00  0.00    +0.038 C 
ENDBRANCH  20  21
ENDBRANCH  13  20
TORSDOF 5
ENDMDL
MODEL 3
REMARK VINA RESULT:      -6.5      6.854      9.459
REMARK  Name = NuBBE_1439
REMARK  9 active torsions:
REMARK  status: ('A' for Active; 'I' for Inactive)
REMARK    1  A    between atoms: O_1  and  C_2
REMARK    2  A    between atoms: C_14  and  O_15
REMARK    3  A    between atoms: O_15  and  C_16
REMARK    4  A    between atoms: C_17  and  O_18
REMARK    5  A    between atoms: C_17  and  C_20
REMARK    6  A    between atoms: O_18  and  C_19
REMARK    7  A    between atoms: C_20  and  C_21
REMARK    8  A    between atoms: C_22  and  C_23
REMARK    9  A    between atoms: C_22  and  C_24
REMARK                            x       y       z     vdW  Elec       q    Type
REMARK                         _______ _______ _______ _____ _____    ______ ____
ROOT
ATOM      1  C   LIG A   1      -8.561   2.787 124.391  0.00  0.00    +0.153 C 
ATOM      2  C   LIG A   1      -9.764   1.902 124.047  0.00  0.00    +0.039 C 
ATOM      3  C   LIG A   1      -9.450   0.420 123.930  0.00  0.00    +0.043 C 
ATOM      4  C   LIG A   1      -8.732  -0.069 125.161  0.00  0.00    +0.019 A 
ATOM      5  C   LIG A   1      -7.784   0.766 125.778  0.00  0.00    +0.086 A 
ATOM      6  N   LIG A   1      -7.085   0.416 126.882  0.00  0.00    -0.214 NA
ATOM      7  C   LIG A   1      -7.318  -0.827 127.324  0.00  0.00    +0.231 A 
ATOM      8  O   LIG A   1      -6.651  -1.345 128.391  0.00  0.00    -0.445 OA
ATOM      9  C   LIG A   1      -7.057  -2.628 128.534  0.00  0.00    +0.198 A 
ATOM     10  C   LIG A   1      -7.988  -2.947 127.573  0.00  0.00    +0.055 A 
ATOM     11  C   LIG A   1      -8.186  -1.776 126.785  0.00  0.00    +0.082 A 
ATOM     12  C   LIG A   1      -8.941  -1.371 125.665  0.00  0.00    +0.137 A 
ATOM     13  C   LIG A   1      -7.338   2.058 125.061  0.00  0.00    +0.140 C 
ENDROOT
BRANCH   1  14
ATOM     14  O   LIG A   1      -9.085   3.860 125.191  0.00  0.00    -0.389 OA
ATOM     15  H   LIG A   1      -8.326   4.323 125.585  0.00  0.00    +0.210 HD
ENDBRANCH   1  14
BRANCH  12  16
ATOM     16  O   LIG A   1      -9.777  -2.184 124.913  0.00  0.00    -0.494 OA
ATOM     17  C   LIG A   1      -9.137  -3.198 124.151  0.00  0.00    +0.277 C 
ENDBRANCH  12  16
BRANCH  13  18
ATOM     18  O   LIG A   1      -6.472   1.665 123.945  0.00  0.00    -0.368 OA
ATOM     19  C   LIG A   1      -6.618   2.408 122.737  0.00  0.00    +0.195 C 
ENDBRANCH  13  18
BRANCH  13  20
ATOM     20  C   LIG A   1      -6.588   3.034 126.035  0.00  0.00    +0.071 C 
BRANCH  20  21
ATOM     21  C   LIG A   1      -5.082   3.081 125.863  0.00  0.00    -0.025 C 
ATOM     22  C   LIG A   1      -4.145   2.861 126.814  0.00  0.00    -0.080 C 
ATOM     23  C   LIG A   1      -4.439   2.497 128.242  0.00  0.00    +0.038 C 
ATOM     24  C   LIG A   1      -2.681   2.953 126.483  0.00  0.00    +0.038 C 
ENDBRANCH  20  21
ENDBRANCH  13  20
TORSDOF 5
ENDMDL
MODEL 4
REMARK VINA RESULT:      -6.4      2.625      4.349
REMARK  Name = NuBBE_1439
REMARK  9 active torsions:
REMARK  status: ('A' for Active; 'I' for Inactive)
REMARK    1  A    between atoms: O_1  and  C_2
REMARK    2  A    between atoms: C_14  and  O_15
REMARK    3  A    between atoms: O_15  and  C_16
REMARK    4  A    between atoms: C_17  and  O_18
REMARK    5  A    between atoms: C_17  and  C_20
REMARK    6  A    between atoms: O_18  and  C_19
REMARK    7  A    between atoms: C_20  and  C_21
REMARK    8  A    between atoms: C_22  and  C_23
REMARK    9  A    between atoms: C_22  and  C_24
REMARK                            x       y       z     vdW  Elec       q    Type
REMARK                         _______ _______ _______ _____ _____    ______ ____
ROOT
ATOM      1  C   LIG A   1      -8.595   6.710 131.116  0.00  0.00    +0.153 C 
ATOM      2  C   LIG A   1      -7.484   6.053 131.943  0.00  0.00    +0.039 C 
ATOM      3  C   LIG A   1      -7.686   4.572 132.215  0.00  0.00    +0.043 C 
ATOM      4  C   LIG A   1      -7.939   3.827 130.930  0.00  0.00    +0.019 A 
ATOM      5  C   LIG A   1      -8.719   4.431 129.930  0.00  0.00    +0.086 A 
ATOM      6  N   LIG A   1      -9.005   3.842 128.746  0.00  0.00    -0.214 NA
ATOM      7  C   LIG A   1      -8.536   2.595 128.611  0.00  0.00    +0.231 A 
ATOM      8  O   LIG A   1      -8.790   1.850 127.501  0.00  0.00    -0.445 OA
ATOM      9  C   LIG A   1      -8.246   0.628 127.705  0.00  0.00    +0.198 A 
ATOM     10  C   LIG A   1      -7.636   0.573 128.936  0.00  0.00    +0.055 A 
ATOM     11  C   LIG A   1      -7.798   1.856 129.535  0.00  0.00    +0.082 A 
ATOM     12  C   LIG A   1      -7.468   2.509 130.741  0.00  0.00    +0.137 A 
ATOM     13  C   LIG A   1      -9.479   5.736 130.252  0.00  0.00    +0.140 C 
ENDROOT
BRANCH   1  14
ATOM     14  O   LIG A   1      -7.946   7.726 130.333  0.00  0.00    -0.389 OA
ATOM     15  H   LIG A   1      -8.645   8.255 129.911  0.00  0.00    +0.210 HD
ENDBRANCH   1  14
BRANCH  12  16
ATOM     16  O   LIG A   1      -6.838   1.928 131.831  0.00  0.00    -0.494 OA
ATOM     17  C   LIG A   1      -7.599   0.966 132.549  0.00  0.00    +0.277 C 
ENDBRANCH  12  16
BRANCH  13  18
ATOM     18  O   LIG A   1     -10.610   5.383 131.115  0.00  0.00    -0.368 OA
ATOM     19  C   LIG A   1     -10.905   6.289 132.176  0.00  0.00    +0.195 C 
ENDBRANCH  13  18
BRANCH  13  20
ATOM     20  C   LIG A   1      -9.973   6.459 128.949  0.00  0.00    +0.071 C 
BRANCH  20  21
ATOM     21  C   LIG A   1     -10.790   7.714 129.183  0.00  0.00    -0.025 C 
ATOM     22  C   LIG A   1     -12.130   7.852 129.053  0.00  0.00    -0.080 C 
ATOM     23  C   LIG A   1     -13.073   6.747 128.669  0.00  0.00    +0.038 C 
ATOM     24  C   LIG A   1     -12.793   9.176 129.316  0.00  0.00    +0.038 C 
ENDBRANCH  20  21
ENDBRANCH  13  20
TORSDOF 5
ENDMDL
MODEL 5
REMARK VINA RESULT:      -6.2      2.210      2.397
REMARK  Name = NuBBE_1439
REMARK  9 active torsions:
REMARK  status: ('A' for Active; 'I' for Inactive)
REMARK    1  A    between atoms: O_1  and  C_2
REMARK    2  A    between atoms: C_14  and  O_15
REMARK    3  A    between atoms: O_15  and  C_16
REMARK    4  A    between atoms: C_17  and  O_18
REMARK    5  A    between atoms: C_17  and  C_20
REMARK    6  A    between atoms: O_18  and  C_19
REMARK    7  A    between atoms: C_20  and  C_21
REMARK    8  A    between atoms: C_22  and  C_23
REMARK    9  A    between atoms: C_22  and  C_24
REMARK                            x       y       z     vdW  Elec       q    Type
REMARK                         _______ _______ _______ _____ _____    ______ ____
ROOT
ATOM      1  C   LIG A   1      -9.329   4.308 132.545  0.00  0.00    +0.153 C 
ATOM      2  C   LIG A   1      -8.505   3.089 132.973  0.00  0.00    +0.039 C 
ATOM      3  C   LIG A   1      -7.670   2.467 131.866  0.00  0.00    +0.043 C 
ATOM      4  C   LIG A   1      -6.815   3.512 131.196  0.00  0.00    +0.019 A 
ATOM      5  C   LIG A   1      -7.342   4.798 130.989  0.00  0.00    +0.086 A 
ATOM      6  N   LIG A   1      -6.656   5.800 130.393  0.00  0.00    -0.214 NA
ATOM      7  C   LIG A   1      -5.437   5.462 129.951  0.00  0.00    +0.231 A 
ATOM      8  O   LIG A   1      -4.648   6.345 129.281  0.00  0.00    -0.445 OA
ATOM      9  C   LIG A   1      -3.528   5.681 128.911  0.00  0.00    +0.198 A 
ATOM     10  C   LIG A   1      -3.580   4.375 129.341  0.00  0.00    +0.055 A 
ATOM     11  C   LIG A   1      -4.812   4.219 130.040  0.00  0.00    +0.082 A 
ATOM     12  C   LIG A   1      -5.525   3.204 130.710  0.00  0.00    +0.137 A 
ATOM     13  C   LIG A   1      -8.844   5.048 131.244  0.00  0.00    +0.140 C 
ENDROOT
BRANCH   1  14
ATOM     14  O   LIG A   1      -9.377   5.167 133.697  0.00  0.00    -0.389 OA
ATOM     15  H   LIG A   1      -8.988   6.020 133.437  0.00  0.00    +0.210 HD
ENDBRANCH   1  14
BRANCH  12  16
ATOM     16  O   LIG A   1      -5.139   1.876 130.817  0.00  0.00    -0.494 OA
ATOM     17  C   LIG A   1      -5.133   1.131 129.607  0.00  0.00    +0.277 C 
ENDBRANCH  12  16
BRANCH  13  18
ATOM     18  O   LIG A   1      -9.586   4.416 130.148  0.00  0.00    -0.368 OA
ATOM     19  C   LIG A   1     -10.891   3.935 130.462  0.00  0.00    +0.195 C 
ENDBRANCH  13  18
BRANCH  13  20
ATOM     20  C   LIG A   1      -9.172   6.580 131.333  0.00  0.00    +0.071 C 
BRANCH  20  21
ATOM     21  C   LIG A   1      -9.415   7.262 130.001  0.00  0.00    -0.025 C 
ATOM     22  C   LIG A   1     -10.602   7.686 129.506  0.00  0.00    -0.080 C 
ATOM     23  C   LIG A   1     -11.919   7.576 130.220  0.00  0.00    +0.038 C 
ATOM     24  C   LIG A   1     -10.677   8.342 128.154  0.00  0.00    +0.038 C 
ENDBRANCH  20  21
ENDBRANCH  13  20
TORSDOF 5
ENDMDL
MODEL 6
REMARK VINA RESULT:      -6.2      7.531     10.468
REMARK  Name = NuBBE_1439
REMARK  9 active torsions:
REMARK  status: ('A' for Active; 'I' for Inactive)
REMARK    1  A    between atoms: O_1  and  C_2
REMARK    2  A    between atoms: C_14  and  O_15
REMARK    3  A    between atoms: O_15  and  C_16
REMARK    4  A    between atoms: C_17  and  O_18
REMARK    5  A    between atoms: C_17  and  C_20
REMARK    6  A    between atoms: O_18  and  C_19
REMARK    7  A    between atoms: C_20  and  C_21
REMARK    8  A    between atoms: C_22  and  C_23
REMARK    9  A    between atoms: C_22  and  C_24
REMARK                            x       y       z     vdW  Elec       q    Type
REMARK                         _______ _______ _______ _____ _____    ______ ____
ROOT
ATOM      1  C   LIG A   1      -7.334   0.240 129.141  0.00  0.00    +0.153 C 
ATOM      2  C   LIG A   1      -7.469   1.444 128.202  0.00  0.00    +0.039 C 
ATOM      3  C   LIG A   1      -7.012   1.191 126.776  0.00  0.00    +0.043 C 
ATOM      4  C   LIG A   1      -7.686  -0.033 126.212  0.00  0.00    +0.019 A 
ATOM      5  C   LIG A   1      -7.901  -1.142 127.048  0.00  0.00    +0.086 A 
ATOM      6  N   LIG A   1      -8.492  -2.286 126.635  0.00  0.00    -0.214 NA
ATOM      7  C   LIG A   1      -8.812  -2.316 125.334  0.00  0.00    +0.231 A 
ATOM      8  O   LIG A   1      -9.362  -3.419 124.757  0.00  0.00    -0.445 OA
ATOM      9  C   LIG A   1      -9.495  -3.155 123.436  0.00  0.00    +0.198 A 
ATOM     10  C   LIG A   1      -9.043  -1.888 123.151  0.00  0.00    +0.055 A 
ATOM     11  C   LIG A   1      -8.611  -1.316 124.383  0.00  0.00    +0.082 A 
ATOM     12  C   LIG A   1      -8.039  -0.114 124.847  0.00  0.00    +0.137 A 
ATOM     13  C   LIG A   1      -7.249  -1.170 128.447  0.00  0.00    +0.140 C 
ENDROOT
BRANCH   1  14
ATOM     14  O   LIG A   1      -8.429   0.347 130.068  0.00  0.00    -0.389 OA
ATOM     15  H   LIG A   1      -8.046   0.507 130.948  0.00  0.00    +0.210 HD
ENDBRANCH   1  14
BRANCH  12  16
ATOM     16  O   LIG A   1      -7.657   0.960 124.058  0.00  0.00    -0.494 OA
ATOM     17  C   LIG A   1      -8.711   1.764 123.548  0.00  0.00    +0.277 C 
ENDBRANCH  12  16
BRANCH  13  18
ATOM     18  O   LIG A   1      -5.816  -1.415 128.259  0.00  0.00    -0.368 OA
ATOM     19  C   LIG A   1      -4.939  -0.797 129.199  0.00  0.00    +0.195 C 
ENDBRANCH  13  18
BRANCH  13  20
ATOM     20  C   LIG A   1      -7.890  -2.270 129.366  0.00  0.00    +0.071 C 
BRANCH  20  21
ATOM     21  C   LIG A   1      -7.023  -3.491 129.604  0.00  0.00    -0.025 C 
ATOM     22  C   LIG A   1      -6.406  -3.841 130.756  0.00  0.00    -0.080 C 
ATOM     23  C   LIG A   1      -6.494  -3.075 132.045  0.00  0.00    +0.038 C 
ATOM     24  C   LIG A   1      -5.568  -5.088 130.828  0.00  0.00    +0.038 C 
ENDBRANCH  20  21
ENDBRANCH  13  20
TORSDOF 5
ENDMDL
MODEL 7
REMARK VINA RESULT:      -6.1      3.558      6.261
REMARK  Name = NuBBE_1439
REMARK  9 active torsions:
REMARK  status: ('A' for Active; 'I' for Inactive)
REMARK    1  A    between atoms: O_1  and  C_2
REMARK    2  A    between atoms: C_14  and  O_15
REMARK    3  A    between atoms: O_15  and  C_16
REMARK    4  A    between atoms: C_17  and  O_18
REMARK    5  A    between atoms: C_17  and  C_20
REMARK    6  A    between atoms: O_18  and  C_19
REMARK    7  A    between atoms: C_20  and  C_21
REMARK    8  A    between atoms: C_22  and  C_23
REMARK    9  A    between atoms: C_22  and  C_24
REMARK                            x       y       z     vdW  Elec       q    Type
REMARK                         _______ _______ _______ _____ _____    ______ ____
ROOT
ATOM      1  C   LIG A   1      -3.734   7.646 129.802  0.00  0.00    +0.153 C 
ATOM      2  C   LIG A   1      -2.788   7.512 128.603  0.00  0.00    +0.039 C 
ATOM      3  C   LIG A   1      -2.436   6.082 128.230  0.00  0.00    +0.043 C 
ATOM      4  C   LIG A   1      -3.685   5.259 128.049  0.00  0.00    +0.019 A 
ATOM      5  C   LIG A   1      -4.777   5.472 128.907  0.00  0.00    +0.086 A 
ATOM      6  N   LIG A   1      -5.937   4.781 128.828  0.00  0.00    -0.214 NA
ATOM      7  C   LIG A   1      -5.956   3.820 127.896  0.00  0.00    +0.231 A 
ATOM      8  O   LIG A   1      -7.031   3.003 127.732  0.00  0.00    -0.445 OA
ATOM      9  C   LIG A   1      -6.710   2.104 126.772  0.00  0.00    +0.198 A 
ATOM     10  C   LIG A   1      -5.436   2.335 126.306  0.00  0.00    +0.055 A 
ATOM     11  C   LIG A   1      -4.935   3.465 127.015  0.00  0.00    +0.082 A 
ATOM     12  C   LIG A   1      -3.754   4.232 127.082  0.00  0.00    +0.137 A 
ATOM     13  C   LIG A   1      -4.596   6.375 130.147  0.00  0.00    +0.140 C 
ENDROOT
BRANCH   1  14
ATOM     14  O   LIG A   1      -4.532   8.813 129.536  0.00  0.00    -0.389 OA
ATOM     15  H   LIG A   1      -5.459   8.521 129.479  0.00  0.00    +0.210 HD
ENDBRANCH   1  14
BRANCH  12  16
ATOM     16  O   LIG A   1      -2.585   3.983 126.378  0.00  0.00    -0.494 OA
ATOM     17  C   LIG A   1      -1.760   2.945 126.888  0.00  0.00    +0.277 C 
ENDBRANCH  12  16
BRANCH  13  18
ATOM     18  O   LIG A   1      -3.796   5.628 131.122  0.00  0.00    -0.368 OA
ATOM     19  C   LIG A   1      -2.869   6.387 131.897  0.00  0.00    +0.195 C 
ENDBRANCH  13  18
BRANCH  13  20
ATOM     20  C   LIG A   1      -5.975   6.802 130.762  0.00  0.00    +0.071 C 
BRANCH  20  21
ATOM     21  C   LIG A   1      -6.315   6.149 132.088  0.00  0.00    -0.025 C 
ATOM     22  C   LIG A   1      -7.550   5.916 132.590  0.00  0.00    -0.080 C 
ATOM     23  C   LIG A   1      -8.838   6.249 131.892  0.00  0.00    +0.038 C 
ATOM     24  C   LIG A   1      -7.719   5.261 133.934  0.00  0.00    +0.038 C 
ENDBRANCH  20  21
ENDBRANCH  13  20
TORSDOF 5
ENDMDL
MODEL 8
REMARK VINA RESULT:      -6.1      5.806      8.133
REMARK  Name = NuBBE_1439
REMARK  9 active torsions:
REMARK  status: ('A' for Active; 'I' for Inactive)
REMARK    1  A    between atoms: O_1  and  C_2
REMARK    2  A    between atoms: C_14  and  O_15
REMARK    3  A    between atoms: O_15  and  C_16
REMARK    4  A    between atoms: C_17  and  O_18
REMARK    5  A    between atoms: C_17  and  C_20
REMARK    6  A    between atoms: O_18  and  C_19
REMARK    7  A    between atoms: C_20  and  C_21
REMARK    8  A    between atoms: C_22  and  C_23
REMARK    9  A    between atoms: C_22  and  C_24
REMARK                            x       y       z     vdW  Elec       q    Type
REMARK                         _______ _______ _______ _____ _____    ______ ____
ROOT
ATOM      1  C   LIG A   1      -4.775   2.618 128.101  0.00  0.00    +0.153 C 
ATOM      2  C   LIG A   1      -5.543   1.357 127.689  0.00  0.00    +0.039 C 
ATOM      3  C   LIG A   1      -6.718   1.606 126.758  0.00  0.00    +0.043 C 
ATOM      4  C   LIG A   1      -6.284   2.411 125.560  0.00  0.00    +0.019 A 
ATOM      5  C   LIG A   1      -5.341   3.439 125.731  0.00  0.00    +0.086 A 
ATOM      6  N   LIG A   1      -4.894   4.219 124.721  0.00  0.00    -0.214 NA
ATOM      7  C   LIG A   1      -5.463   3.981 123.532  0.00  0.00    +0.231 A 
ATOM      8  O   LIG A   1      -5.159   4.720 122.431  0.00  0.00    -0.445 OA
ATOM      9  C   LIG A   1      -5.948   4.281 121.423  0.00  0.00    +0.198 A 
ATOM     10  C   LIG A   1      -6.759   3.259 121.858  0.00  0.00    +0.055 A 
ATOM     11  C   LIG A   1      -6.442   3.035 123.229  0.00  0.00    +0.082 A 
ATOM     12  C   LIG A   1      -6.856   2.200 124.287  0.00  0.00    +0.137 A 
ATOM     13  C   LIG A   1      -4.944   3.868 127.160  0.00  0.00    +0.140 C 
ENDROOT
BRANCH   1  14
ATOM     14  O   LIG A   1      -3.405   2.205 128.250  0.00  0.00    -0.389 OA
ATOM     15  H   LIG A   1      -3.414   1.280 128.551  0.00  0.00    +0.210 HD
ENDBRANCH   1  14
BRANCH  12  16
ATOM     16  O   LIG A   1      -7.886   1.272 124.232  0.00  0.00    -0.494 OA
ATOM     17  C   LIG A   1      -9.197   1.805 124.104  0.00  0.00    +0.277 C 
ENDBRANCH  12  16
BRANCH  13  18
ATOM     18  O   LIG A   1      -6.071   4.617 127.724  0.00  0.00    -0.368 OA
ATOM     19  C   LIG A   1      -6.389   4.353 129.089  0.00  0.00    +0.195 C 
ENDBRANCH  13  18
BRANCH  13  20
ATOM     20  C   LIG A   1      -3.635   4.735 127.165  0.00  0.00    +0.071 C 
BRANCH  20  21
ATOM     21  C   LIG A   1      -3.791   6.127 127.744  0.00  0.00    -0.025 C 
ATOM     22  C   LIG A   1      -3.404   6.549 128.971  0.00  0.00    -0.080 C 
ATOM     23  C   LIG A   1      -2.708   5.695 129.992  0.00  0.00    +0.038 C 
ATOM     24  C   LIG A   1      -3.639   7.971 129.401  0.00  0.00    +0.038 C 
ENDBRANCH  20  21
ENDBRANCH  13  20
TORSDOF 5
ENDMDL
MODEL 9
REMARK VINA RESULT:      -6.1      6.572      8.509
REMARK  Name = NuBBE_1439
REMARK  9 active torsions:
REMARK  status: ('A' for Active; 'I' for Inactive)
REMARK    1  A    between atoms: O_1  and  C_2
REMARK    2  A    between atoms: C_14  and  O_15
REMARK    3  A    between atoms: O_15  and  C_16
REMARK    4  A    between atoms: C_17  and  O_18
REMARK    5  A    between atoms: C_17  and  C_20
REMARK    6  A    between atoms: O_18  and  C_19
REMARK    7  A    between atoms: C_20  and  C_21
REMARK    8  A    between atoms: C_22  and  C_23
REMARK    9  A    between atoms: C_22  and  C_24
REMARK                            x       y       z     vdW  Elec       q    Type
REMARK                         _______ _______ _______ _____ _____    ______ ____
ROOT
ATOM      1  C   LIG A   1      -7.462  -2.917 128.425  0.00  0.00    +0.153 C 
ATOM      2  C   LIG A   1      -7.940  -3.019 129.877  0.00  0.00    +0.039 C 
ATOM      3  C   LIG A   1      -7.491  -1.878 130.775  0.00  0.00    +0.043 C 
ATOM      4  C   LIG A   1      -7.849  -0.549 130.162  0.00  0.00    +0.019 A 
ATOM      5  C   LIG A   1      -7.738  -0.384 128.770  0.00  0.00    +0.086 A 
ATOM      6  N   LIG A   1      -8.030   0.770 128.128  0.00  0.00    -0.214 NA
ATOM      7  C   LIG A   1      -8.384   1.785 128.928  0.00  0.00    +0.231 A 
ATOM      8  O   LIG A   1      -8.654   3.024 128.437  0.00  0.00    -0.445 OA
ATOM      9  C   LIG A   1      -8.904   3.830 129.495  0.00  0.00    +0.198 A 
ATOM     10  C   LIG A   1      -8.805   3.123 130.670  0.00  0.00    +0.055 A 
ATOM     11  C   LIG A   1      -8.485   1.779 130.319  0.00  0.00    +0.082 A 
ATOM     12  C   LIG A   1      -8.225   0.552 130.963  0.00  0.00    +0.137 A 
ATOM     13  C   LIG A   1      -7.045  -1.481 127.934  0.00  0.00    +0.140 C 
ENDROOT
BRANCH   1  14
ATOM     14  O   LIG A   1      -8.509  -3.502 127.631  0.00  0.00    -0.389 OA
ATOM     15  H   LIG A   1      -9.353  -3.290 128.066  0.00  0.00    +0.210 HD
ENDBRANCH   1  14
BRANCH  12  16
ATOM     16  O   LIG A   1      -8.164   0.352 132.334  0.00  0.00    -0.494 OA
ATOM     17  C   LIG A   1      -7.061   0.950 133.001  0.00  0.00    +0.277 C 
ENDBRANCH  12  16
BRANCH  13  18
ATOM     18  O   LIG A   1      -5.606  -1.393 128.200  0.00  0.00    -0.368 OA
ATOM     19  C   LIG A   1      -4.919  -2.628 128.388  0.00  0.00    +0.195 C 
ENDBRANCH  13  18
BRANCH  13  20
ATOM     20  C   LIG A   1      -7.343  -1.320 126.402  0.00  0.00    +0.071 C 
BRANCH  20  21
ATOM     21  C   LIG A   1      -6.209  -1.728 125.482  0.00  0.00    -0.025 C 
ATOM     22  C   LIG A   1      -6.204  -2.753 124.598  0.00  0.00    -0.080 C 
ATOM     23  C   LIG A   1      -7.361  -3.677 124.347  0.00  0.00    +0.038 C 
ATOM     24  C   LIG A   1      -4.988  -3.034 123.758  0.00  0.00    +0.038 C 
ENDBRANCH  20  21
ENDBRANCH  13  20
TORSDOF 5
ENDMDL
