MODEL 1
REMARK VINA RESULT:      -6.3      0.000      0.000
REMARK  Name = NuBBE_2212
REMARK  3 active torsions:
REMARK  status: ('A' for Active; 'I' for Inactive)
REMARK    1  A    between atoms: C_1  and  C_3
REMARK    2  A    between atoms: C_9  and  C_12
REMARK    3  A    between atoms: C_13  and  O_16
REMARK                            x       y       z     vdW  Elec       q    Type
REMARK                         _______ _______ _______ _____ _____    ______ ____
ROOT
ATOM      1  C   LIG A   1      -7.558  -2.707 126.863  0.00  0.00    +0.018 A 
ATOM      2  C   LIG A   1      -7.030  -2.436 125.584  0.00  0.00    -0.016 A 
ATOM      3  C   LIG A   1      -7.873  -2.570 124.461  0.00  0.00    +0.104 A 
ATOM      4  C   LIG A   1      -7.382  -2.220 123.102  0.00  0.00    +0.343 C 
ATOM      5  O   LIG A   1      -8.167  -2.139 122.164  0.00  0.00    -0.245 OA
ATOM      6  O   LIG A   1      -6.058  -1.979 122.955  0.00  0.00    -0.458 OA
ATOM      7  C   LIG A   1      -5.123  -2.374 123.974  0.00  0.00    +0.178 C 
ATOM      8  C   LIG A   1      -5.620  -1.962 125.358  0.00  0.00    +0.081 C 
ATOM      9  C   LIG A   1      -4.812  -3.863 123.845  0.00  0.00    +0.052 C 
ATOM     10  C   LIG A   1      -9.199  -3.004 124.622  0.00  0.00    +0.131 A 
ATOM     11  C   LIG A   1      -9.694  -3.312 125.883  0.00  0.00    +0.047 A 
ATOM     12  C   LIG A   1      -8.878  -3.159 127.002  0.00  0.00    +0.015 A 
ENDROOT
BRANCH   1  13
ATOM     13  C   LIG A   1      -6.769  -2.509 128.104  0.00  0.00    +0.259 C 
ATOM     14  O   LIG A   1      -6.980  -3.163 129.120  0.00  0.00    -0.296 OA
ENDBRANCH   1  13
BRANCH  10  15
ATOM     15  O   LIG A   1     -10.080  -3.148 123.584  0.00  0.00    -0.506 OA
ATOM     16  H   LIG A   1      -9.640  -2.868 122.750  0.00  0.00    +0.292 HD
ENDBRANCH  10  15
TORSDOF 2
ENDMDL
MODEL 2
REMARK VINA RESULT:      -6.3     10.931     12.134
REMARK  Name = NuBBE_2212
REMARK  3 active torsions:
REMARK  status: ('A' for Active; 'I' for Inactive)
REMARK    1  A    between atoms: C_1  and  C_3
REMARK    2  A    between atoms: C_9  and  C_12
REMARK    3  A    between atoms: C_13  and  O_16
REMARK                            x       y       z     vdW  Elec       q    Type
REMARK                         _______ _______ _______ _____ _____    ______ ____
ROOT
ATOM      1  C   LIG A   1     -11.116   7.627 127.949  0.00  0.00    +0.018 A 
ATOM      2  C   LIG A   1     -10.724   6.897 129.089  0.00  0.00    -0.016 A 
ATOM      3  C   LIG A   1     -11.426   7.098 130.297  0.00  0.00    +0.104 A 
ATOM      4  C   LIG A   1     -11.098   6.293 131.503  0.00  0.00    +0.343 C 
ATOM      5  O   LIG A   1     -11.835   6.320 132.482  0.00  0.00    -0.245 OA
ATOM      6  O   LIG A   1      -9.982   5.527 131.464  0.00  0.00    -0.458 OA
ATOM      7  C   LIG A   1      -8.983   5.740 130.453  0.00  0.00    +0.178 C 
ATOM      8  C   LIG A   1      -9.623   5.872 129.073  0.00  0.00    +0.081 C 
ATOM      9  C   LIG A   1      -8.095   6.920 130.839  0.00  0.00    +0.052 C 
ATOM     10  C   LIG A   1     -12.465   8.040 130.360  0.00  0.00    +0.131 A 
ATOM     11  C   LIG A   1     -12.813   8.787 129.242  0.00  0.00    +0.047 A 
ATOM     12  C   LIG A   1     -12.143   8.578 128.038  0.00  0.00    +0.015 A 
ENDROOT
BRANCH   1  13
ATOM     13  C   LIG A   1     -10.493   7.416 126.619  0.00  0.00    +0.259 C 
ATOM     14  O   LIG A   1     -10.885   8.003 125.617  0.00  0.00    -0.296 OA
ENDBRANCH   1  13
BRANCH  10  15
ATOM     15  O   LIG A   1     -13.198   8.284 131.491  0.00  0.00    -0.506 OA
ATOM     16  H   LIG A   1     -12.734   7.891 132.264  0.00  0.00    +0.292 HD
ENDBRANCH  10  15
TORSDOF 2
ENDMDL
MODEL 3
REMARK VINA RESULT:      -6.1     10.925     11.736
REMARK  Name = NuBBE_2212
REMARK  3 active torsions:
REMARK  status: ('A' for Active; 'I' for Inactive)
REMARK    1  A    between atoms: C_1  and  C_3
REMARK    2  A    between atoms: C_9  and  C_12
REMARK    3  A    between atoms: C_13  and  O_16
REMARK                            x       y       z     vdW  Elec       q    Type
REMARK                         _______ _______ _______ _____ _____    ______ ____
ROOT
ATOM      1  C   LIG A   1     -10.046   5.725 129.895  0.00  0.00    +0.018 A 
ATOM      2  C   LIG A   1     -10.679   6.808 129.254  0.00  0.00    -0.016 A 
ATOM      3  C   LIG A   1     -11.704   7.495 129.938  0.00  0.00    +0.104 A 
ATOM      4  C   LIG A   1     -12.346   8.691 129.332  0.00  0.00    +0.343 C 
ATOM      5  O   LIG A   1     -13.082   9.404 130.005  0.00  0.00    -0.245 OA
ATOM      6  O   LIG A   1     -12.068   8.965 128.036  0.00  0.00    -0.458 OA
ATOM      7  C   LIG A   1     -11.466   7.971 127.190  0.00  0.00    +0.178 C 
ATOM      8  C   LIG A   1     -10.284   7.304 127.890  0.00  0.00    +0.081 C 
ATOM      9  C   LIG A   1     -12.529   6.991 126.700  0.00  0.00    +0.052 C 
ATOM     10  C   LIG A   1     -12.104   7.074 131.216  0.00  0.00    +0.131 A 
ATOM     11  C   LIG A   1     -11.503   5.976 131.820  0.00  0.00    +0.047 A 
ATOM     12  C   LIG A   1     -10.473   5.305 131.164  0.00  0.00    +0.015 A 
ENDROOT
BRANCH   1  13
ATOM     13  C   LIG A   1      -8.902   5.001 129.287  0.00  0.00    +0.259 C 
ATOM     14  O   LIG A   1      -8.947   3.801 129.043  0.00  0.00    -0.296 OA
ENDBRANCH   1  13
BRANCH  10  15
ATOM     15  O   LIG A   1     -13.082   7.694 131.946  0.00  0.00    -0.506 OA
ATOM     16  H   LIG A   1     -12.937   7.506 132.901  0.00  0.00    +0.292 HD
ENDBRANCH  10  15
TORSDOF 2
ENDMDL
MODEL 4
REMARK VINA RESULT:      -5.6      5.964      7.888
REMARK  Name = NuBBE_2212
REMARK  3 active torsions:
REMARK  status: ('A' for Active; 'I' for Inactive)
REMARK    1  A    between atoms: C_1  and  C_3
REMARK    2  A    between atoms: C_9  and  C_12
REMARK    3  A    between atoms: C_13  and  O_16
REMARK                            x       y       z     vdW  Elec       q    Type
REMARK                         _______ _______ _______ _____ _____    ______ ____
ROOT
ATOM      1  C   LIG A   1      -6.552   3.687 121.747  0.00  0.00    +0.018 A 
ATOM      2  C   LIG A   1      -7.566   3.279 122.638  0.00  0.00    -0.016 A 
ATOM      3  C   LIG A   1      -7.378   3.489 124.020  0.00  0.00    +0.104 A 
ATOM      4  C   LIG A   1      -8.452   3.146 124.989  0.00  0.00    +0.343 C 
ATOM      5  O   LIG A   1      -8.373   3.515 126.155  0.00  0.00    -0.245 OA
ATOM      6  O   LIG A   1      -9.512   2.441 124.529  0.00  0.00    -0.458 OA
ATOM      7  C   LIG A   1      -9.447   1.762 123.263  0.00  0.00    +0.178 C 
ATOM      8  C   LIG A   1      -8.867   2.674 122.185  0.00  0.00    +0.081 C 
ATOM      9  C   LIG A   1      -8.703   0.438 123.421  0.00  0.00    +0.052 C 
ATOM     10  C   LIG A   1      -6.183   4.056 124.491  0.00  0.00    +0.131 A 
ATOM     11  C   LIG A   1      -5.172   4.412 123.607  0.00  0.00    +0.047 A 
ATOM     12  C   LIG A   1      -5.358   4.233 122.238  0.00  0.00    +0.015 A 
ENDROOT
BRANCH   1  13
ATOM     13  C   LIG A   1      -6.703   3.586 120.274  0.00  0.00    +0.259 C 
ATOM     14  O   LIG A   1      -7.221   4.476 119.611  0.00  0.00    -0.296 OA
ENDBRANCH   1  13
BRANCH  10  15
ATOM     15  O   LIG A   1      -5.931   4.300 125.815  0.00  0.00    -0.506 OA
ATOM     16  H   LIG A   1      -5.848   5.270 125.951  0.00  0.00    +0.292 HD
ENDBRANCH  10  15
TORSDOF 2
ENDMDL
MODEL 5
REMARK VINA RESULT:      -5.5      1.953      3.969
REMARK  Name = NuBBE_2212
REMARK  3 active torsions:
REMARK  status: ('A' for Active; 'I' for Inactive)
REMARK    1  A    between atoms: C_1  and  C_3
REMARK    2  A    between atoms: C_9  and  C_12
REMARK    3  A    between atoms: C_13  and  O_16
REMARK                            x       y       z     vdW  Elec       q    Type
REMARK                         _______ _______ _______ _____ _____    ______ ____
ROOT
ATOM      1  C   LIG A   1      -5.717  -2.600 124.557  0.00  0.00    +0.018 A 
ATOM      2  C   LIG A   1      -6.963  -2.030 124.225  0.00  0.00    -0.016 A 
ATOM      3  C   LIG A   1      -7.710  -1.395 125.239  0.00  0.00    +0.104 A 
ATOM      4  C   LIG A   1      -8.991  -0.713 124.919  0.00  0.00    +0.343 C 
ATOM      5  O   LIG A   1      -9.531   0.009 125.751  0.00  0.00    -0.245 OA
ATOM      6  O   LIG A   1      -9.513  -0.903 123.685  0.00  0.00    -0.458 OA
ATOM      7  C   LIG A   1      -9.044  -1.974 122.848  0.00  0.00    +0.178 C 
ATOM      8  C   LIG A   1      -7.518  -2.020 122.827  0.00  0.00    +0.081 C 
ATOM      9  C   LIG A   1      -9.699  -3.287 123.269  0.00  0.00    +0.052 C 
ATOM     10  C   LIG A   1      -7.231  -1.373 126.559  0.00  0.00    +0.131 A 
ATOM     11  C   LIG A   1      -6.023  -1.978 126.883  0.00  0.00    +0.047 A 
ATOM     12  C   LIG A   1      -5.265  -2.586 125.885  0.00  0.00    +0.015 A 
ENDROOT
BRANCH   1  13
ATOM     13  C   LIG A   1      -4.828  -3.210 123.539  0.00  0.00    +0.259 C 
ATOM     14  O   LIG A   1      -4.478  -4.384 123.600  0.00  0.00    -0.296 OA
ENDBRANCH   1  13
BRANCH  10  15
ATOM     15  O   LIG A   1      -7.891  -0.769 127.595  0.00  0.00    -0.506 OA
ATOM     16  H   LIG A   1      -8.014  -1.421 128.321  0.00  0.00    +0.292 HD
ENDBRANCH  10  15
TORSDOF 2
ENDMDL
MODEL 6
REMARK VINA RESULT:      -5.5      2.381      2.744
REMARK  Name = NuBBE_2212
REMARK  3 active torsions:
REMARK  status: ('A' for Active; 'I' for Inactive)
REMARK    1  A    between atoms: C_1  and  C_3
REMARK    2  A    between atoms: C_9  and  C_12
REMARK    3  A    between atoms: C_13  and  O_16
REMARK                            x       y       z     vdW  Elec       q    Type
REMARK                         _______ _______ _______ _____ _____    ______ ____
ROOT
ATOM      1  C   LIG A   1      -7.811  -2.422 128.643  0.00  0.00    +0.018 A 
ATOM      2  C   LIG A   1      -7.792  -1.406 127.666  0.00  0.00    -0.016 A 
ATOM      3  C   LIG A   1      -8.509  -1.606 126.467  0.00  0.00    +0.104 A 
ATOM      4  C   LIG A   1      -8.582  -0.532 125.443  0.00  0.00    +0.343 C 
ATOM      5  O   LIG A   1      -9.366  -0.624 124.505  0.00  0.00    -0.245 OA
ATOM      6  O   LIG A   1      -7.774   0.543 125.601  0.00  0.00    -0.458 OA
ATOM      7  C   LIG A   1      -6.663   0.497 126.512  0.00  0.00    +0.178 C 
ATOM      8  C   LIG A   1      -7.084  -0.093 127.856  0.00  0.00    +0.081 C 
ATOM      9  C   LIG A   1      -5.486  -0.225 125.860  0.00  0.00    +0.052 C 
ATOM     10  C   LIG A   1      -9.191  -2.814 126.246  0.00  0.00    +0.131 A 
ATOM     11  C   LIG A   1      -9.165  -3.826 127.198  0.00  0.00    +0.047 A 
ATOM     12  C   LIG A   1      -8.481  -3.629 128.395  0.00  0.00    +0.015 A 
ENDROOT
BRANCH   1  13
ATOM     13  C   LIG A   1      -7.158  -2.262 129.966  0.00  0.00    +0.259 C 
ATOM     14  O   LIG A   1      -7.207  -3.135 130.825  0.00  0.00    -0.296 OA
ENDBRANCH   1  13
BRANCH  10  15
ATOM     15  O   LIG A   1      -9.917  -3.078 125.115  0.00  0.00    -0.506 OA
ATOM     16  H   LIG A   1     -10.746  -2.550 125.137  0.00  0.00    +0.292 HD
ENDBRANCH  10  15
TORSDOF 2
ENDMDL
MODEL 7
REMARK VINA RESULT:      -5.5      2.629      4.713
REMARK  Name = NuBBE_2212
REMARK  3 active torsions:
REMARK  status: ('A' for Active; 'I' for Inactive)
REMARK    1  A    between atoms: C_1  and  C_3
REMARK    2  A    between atoms: C_9  and  C_12
REMARK    3  A    between atoms: C_13  and  O_16
REMARK                            x       y       z     vdW  Elec       q    Type
REMARK                         _______ _______ _______ _____ _____    ______ ____
ROOT
ATOM      1  C   LIG A   1      -9.145  -0.010 124.184  0.00  0.00    +0.018 A 
ATOM      2  C   LIG A   1      -8.937  -1.272 124.778  0.00  0.00    -0.016 A 
ATOM      3  C   LIG A   1      -8.525  -1.327 126.126  0.00  0.00    +0.104 A 
ATOM      4  C   LIG A   1      -8.369  -2.634 126.815  0.00  0.00    +0.343 C 
ATOM      5  O   LIG A   1      -8.214  -2.677 128.031  0.00  0.00    -0.245 OA
ATOM      6  O   LIG A   1      -8.428  -3.755 126.058  0.00  0.00    -0.458 OA
ATOM      7  C   LIG A   1      -8.300  -3.681 124.628  0.00  0.00    +0.178 C 
ATOM      8  C   LIG A   1      -9.182  -2.571 124.060  0.00  0.00    +0.081 C 
ATOM      9  C   LIG A   1      -6.828  -3.561 124.243  0.00  0.00    +0.052 C 
ATOM     10  C   LIG A   1      -8.289  -0.141 126.840  0.00  0.00    +0.131 A 
ATOM     11  C   LIG A   1      -8.453   1.097 126.231  0.00  0.00    +0.047 A 
ATOM     12  C   LIG A   1      -8.884   1.163 124.907  0.00  0.00    +0.015 A 
ENDROOT
BRANCH   1  13
ATOM     13  C   LIG A   1      -9.661   0.140 122.801  0.00  0.00    +0.259 C 
ATOM     14  O   LIG A   1     -10.852   0.311 122.567  0.00  0.00    -0.296 OA
ENDBRANCH   1  13
BRANCH  10  15
ATOM     15  O   LIG A   1      -7.898  -0.112 128.152  0.00  0.00    -0.506 OA
ATOM     16  H   LIG A   1      -8.467   0.523 128.642  0.00  0.00    +0.292 HD
ENDBRANCH  10  15
TORSDOF 2
ENDMDL
MODEL 8
REMARK VINA RESULT:      -5.4      3.309      4.834
REMARK  Name = NuBBE_2212
REMARK  3 active torsions:
REMARK  status: ('A' for Active; 'I' for Inactive)
REMARK    1  A    between atoms: C_1  and  C_3
REMARK    2  A    between atoms: C_9  and  C_12
REMARK    3  A    between atoms: C_13  and  O_16
REMARK                            x       y       z     vdW  Elec       q    Type
REMARK                         _______ _______ _______ _____ _____    ______ ____
ROOT
ATOM      1  C   LIG A   1      -9.062  -1.258 123.787  0.00  0.00    +0.018 A 
ATOM      2  C   LIG A   1      -8.716  -0.881 125.101  0.00  0.00    -0.016 A 
ATOM      3  C   LIG A   1      -8.879   0.468 125.483  0.00  0.00    +0.104 A 
ATOM      4  C   LIG A   1      -8.602   0.895 126.880  0.00  0.00    +0.343 C 
ATOM      5  O   LIG A   1      -8.937   2.011 127.262  0.00  0.00    -0.245 OA
ATOM      6  O   LIG A   1      -7.994   0.007 127.700  0.00  0.00    -0.458 OA
ATOM      7  C   LIG A   1      -7.340  -1.157 127.165  0.00  0.00    +0.178 C 
ATOM      8  C   LIG A   1      -8.227  -1.855 126.137  0.00  0.00    +0.081 C 
ATOM      9  C   LIG A   1      -5.958  -0.779 126.636  0.00  0.00    +0.052 C 
ATOM     10  C   LIG A   1      -9.339   1.414 124.553  0.00  0.00    +0.131 A 
ATOM     11  C   LIG A   1      -9.633   1.038 123.248  0.00  0.00    +0.047 A 
ATOM     12  C   LIG A   1      -9.500  -0.295 122.867  0.00  0.00    +0.015 A 
ENDROOT
BRANCH   1  13
ATOM     13  C   LIG A   1      -9.005  -2.668 123.327  0.00  0.00    +0.259 C 
ATOM     14  O   LIG A   1      -9.988  -3.401 123.354  0.00  0.00    -0.296 OA
ENDBRANCH   1  13
BRANCH  10  15
ATOM     15  O   LIG A   1      -9.532   2.736 124.851  0.00  0.00    -0.506 OA
ATOM     16  H   LIG A   1      -9.742   2.822 125.808  0.00  0.00    +0.292 HD
ENDBRANCH  10  15
TORSDOF 2
ENDMDL
MODEL 9
REMARK VINA RESULT:      -5.4      2.989      3.770
REMARK  Name = NuBBE_2212
REMARK  3 active torsions:
REMARK  status: ('A' for Active; 'I' for Inactive)
REMARK    1  A    between atoms: C_1  and  C_3
REMARK    2  A    between atoms: C_9  and  C_12
REMARK    3  A    between atoms: C_13  and  O_16
REMARK                            x       y       z     vdW  Elec       q    Type
REMARK                         _______ _______ _______ _____ _____    ______ ____
ROOT
ATOM      1  C   LIG A   1      -6.831   0.048 125.363  0.00  0.00    +0.018 A 
ATOM      2  C   LIG A   1      -7.626  -0.504 124.339  0.00  0.00    -0.016 A 
ATOM      3  C   LIG A   1      -8.834   0.140 123.997  0.00  0.00    +0.104 A 
ATOM      4  C   LIG A   1      -9.666  -0.362 122.872  0.00  0.00    +0.343 C 
ATOM      5  O   LIG A   1     -10.598   0.311 122.445  0.00  0.00    -0.245 OA
ATOM      6  O   LIG A   1      -9.340  -1.561 122.335  0.00  0.00    -0.458 OA
ATOM      7  C   LIG A   1      -8.461  -2.461 123.032  0.00  0.00    +0.178 C 
ATOM      8  C   LIG A   1      -7.229  -1.724 123.553  0.00  0.00    +0.081 C 
ATOM      9  C   LIG A   1      -9.235  -3.213 124.112  0.00  0.00    +0.052 C 
ATOM     10  C   LIG A   1      -9.245   1.286 124.698  0.00  0.00    +0.131 A 
ATOM     11  C   LIG A   1      -8.474   1.794 125.736  0.00  0.00    +0.047 A 
ATOM     12  C   LIG A   1      -7.268   1.180 126.065  0.00  0.00    +0.015 A 
ENDROOT
BRANCH   1  13
ATOM     13  C   LIG A   1      -5.506  -0.513 125.728  0.00  0.00    +0.259 C 
ATOM     14  O   LIG A   1      -5.373  -1.327 126.634  0.00  0.00    -0.296 OA
ENDBRANCH   1  13
BRANCH  10  15
ATOM     15  O   LIG A   1     -10.397   1.972 124.418  0.00  0.00    -0.506 OA
ATOM     16  H   LIG A   1     -10.611   1.863 123.465  0.00  0.00    +0.292 HD
ENDBRANCH  10  15
TORSDOF 2
ENDMDL
