MODEL 1
REMARK VINA RESULT:      -8.1      0.000      0.000
REMARK  Name = NuBBE_1313
REMARK  1 active torsions:
REMARK  status: ('A' for Active; 'I' for Inactive)
REMARK    1  A    between atoms: C_4  and  C_5
REMARK                            x       y       z     vdW  Elec       q    Type
REMARK                         _______ _______ _______ _____ _____    ______ ____
ROOT
ATOM      1  O   LIG A   1     -10.847   0.470 122.734  0.00  0.00    -0.287 OA
ATOM      2  C   LIG A   1      -9.632   0.412 122.870  0.00  0.00    +0.193 A 
ATOM      3  C   LIG A   1      -8.793   1.605 122.680  0.00  0.00    +0.098 A 
ATOM      4  C   LIG A   1      -7.466   1.510 122.845  0.00  0.00    +0.139 A 
ATOM      5  O   LIG A   1      -6.804   0.338 123.174  0.00  0.00    -0.454 OA
ATOM      6  C   LIG A   1      -8.939  -0.835 123.229  0.00  0.00    +0.065 A 
ATOM      7  C   LIG A   1      -7.545  -0.805 123.364  0.00  0.00    +0.150 A 
ATOM      8  C   LIG A   1      -6.881  -1.998 123.707  0.00  0.00    +0.063 A 
ATOM      9  C   LIG A   1      -5.532  -2.387 123.935  0.00  0.00    +0.053 A 
ATOM     10  C   LIG A   1      -5.559  -3.728 124.242  0.00  0.00    +0.196 A 
ATOM     11  O   LIG A   1      -6.833  -4.198 124.219  0.00  0.00    -0.463 OA
ATOM     12  C   LIG A   1      -7.639  -3.150 123.896  0.00  0.00    +0.138 A 
ATOM     13  C   LIG A   1      -9.025  -3.208 123.767  0.00  0.00    +0.048 A 
ATOM     14  C   LIG A   1      -9.670  -2.014 123.426  0.00  0.00    +0.019 A 
ENDROOT
BRANCH   4  15
ATOM     15  C   LIG A   1      -6.577   2.672 122.657  0.00  0.00    +0.017 A 
ATOM     16  C   LIG A   1      -6.149   3.025 121.368  0.00  0.00    +0.011 A 
ATOM     17  C   LIG A   1      -5.299   4.117 121.171  0.00  0.00    +0.001 A 
ATOM     18  C   LIG A   1      -4.859   4.864 122.260  0.00  0.00    +0.000 A 
ATOM     19  C   LIG A   1      -5.267   4.520 123.548  0.00  0.00    +0.001 A 
ATOM     20  C   LIG A   1      -6.118   3.430 123.746  0.00  0.00    +0.011 A 
ENDBRANCH   4  15
TORSDOF 1
ENDMDL
MODEL 2
REMARK VINA RESULT:      -8.0      2.417      3.216
REMARK  Name = NuBBE_1313
REMARK  1 active torsions:
REMARK  status: ('A' for Active; 'I' for Inactive)
REMARK    1  A    between atoms: C_4  and  C_5
REMARK                            x       y       z     vdW  Elec       q    Type
REMARK                         _______ _______ _______ _____ _____    ______ ____
ROOT
ATOM      1  O   LIG A   1      -8.259   3.367 126.340  0.00  0.00    -0.287 OA
ATOM      2  C   LIG A   1      -8.282   2.756 125.279  0.00  0.00    +0.193 A 
ATOM      3  C   LIG A   1      -8.016   3.443 124.006  0.00  0.00    +0.098 A 
ATOM      4  C   LIG A   1      -8.041   2.743 122.863  0.00  0.00    +0.139 A 
ATOM      5  O   LIG A   1      -8.322   1.388 122.785  0.00  0.00    -0.454 OA
ATOM      6  C   LIG A   1      -8.571   1.315 125.207  0.00  0.00    +0.065 A 
ATOM      7  C   LIG A   1      -8.575   0.700 123.948  0.00  0.00    +0.150 A 
ATOM      8  C   LIG A   1      -8.853  -0.678 123.879  0.00  0.00    +0.063 A 
ATOM      9  C   LIG A   1      -8.951  -1.648 122.844  0.00  0.00    +0.053 A 
ATOM     10  C   LIG A   1      -9.257  -2.842 123.457  0.00  0.00    +0.196 A 
ATOM     11  O   LIG A   1      -9.356  -2.678 124.802  0.00  0.00    -0.463 OA
ATOM     12  C   LIG A   1      -9.110  -1.364 125.061  0.00  0.00    +0.138 A 
ATOM     13  C   LIG A   1      -9.113  -0.778 126.326  0.00  0.00    +0.048 A 
ATOM     14  C   LIG A   1      -8.835   0.592 126.378  0.00  0.00    +0.019 A 
ENDROOT
BRANCH   4  15
ATOM     15  C   LIG A   1      -7.792   3.383 121.557  0.00  0.00    +0.017 A 
ATOM     16  C   LIG A   1      -8.861   3.630 120.683  0.00  0.00    +0.011 A 
ATOM     17  C   LIG A   1      -8.644   4.226 119.438  0.00  0.00    +0.001 A 
ATOM     18  C   LIG A   1      -7.354   4.577 119.048  0.00  0.00    +0.000 A 
ATOM     19  C   LIG A   1      -6.279   4.329 119.901  0.00  0.00    +0.001 A 
ATOM     20  C   LIG A   1      -6.496   3.734 121.146  0.00  0.00    +0.011 A 
ENDBRANCH   4  15
TORSDOF 1
ENDMDL
MODEL 3
REMARK VINA RESULT:      -7.9      4.103      5.949
REMARK  Name = NuBBE_1313
REMARK  1 active torsions:
REMARK  status: ('A' for Active; 'I' for Inactive)
REMARK    1  A    between atoms: C_4  and  C_5
REMARK                            x       y       z     vdW  Elec       q    Type
REMARK                         _______ _______ _______ _____ _____    ______ ____
ROOT
ATOM      1  O   LIG A   1      -8.956   2.354 125.304  0.00  0.00    -0.287 OA
ATOM      2  C   LIG A   1      -7.900   2.820 124.895  0.00  0.00    +0.193 A 
ATOM      3  C   LIG A   1      -6.772   3.051 125.810  0.00  0.00    +0.098 A 
ATOM      4  C   LIG A   1      -5.627   3.555 125.327  0.00  0.00    +0.139 A 
ATOM      5  O   LIG A   1      -5.424   3.899 124.000  0.00  0.00    -0.454 OA
ATOM      6  C   LIG A   1      -7.691   3.173 123.482  0.00  0.00    +0.065 A 
ATOM      7  C   LIG A   1      -6.449   3.700 123.105  0.00  0.00    +0.150 A 
ATOM      8  C   LIG A   1      -6.249   4.039 121.754  0.00  0.00    +0.063 A 
ATOM      9  C   LIG A   1      -5.182   4.579 120.984  0.00  0.00    +0.053 A 
ATOM     10  C   LIG A   1      -5.641   4.666 119.689  0.00  0.00    +0.196 A 
ATOM     11  O   LIG A   1      -6.921   4.218 119.604  0.00  0.00    -0.463 OA
ATOM     12  C   LIG A   1      -7.293   3.836 120.856  0.00  0.00    +0.138 A 
ATOM     13  C   LIG A   1      -8.537   3.314 121.203  0.00  0.00    +0.048 A 
ATOM     14  C   LIG A   1      -8.720   2.982 122.550  0.00  0.00    +0.019 A 
ENDROOT
BRANCH   4  15
ATOM     15  C   LIG A   1      -4.467   3.817 126.201  0.00  0.00    +0.017 A 
ATOM     16  C   LIG A   1      -4.441   4.967 127.004  0.00  0.00    +0.011 A 
ATOM     17  C   LIG A   1      -3.346   5.237 127.831  0.00  0.00    +0.001 A 
ATOM     18  C   LIG A   1      -2.262   4.364 127.860  0.00  0.00    +0.000 A 
ATOM     19  C   LIG A   1      -2.269   3.221 127.062  0.00  0.00    +0.001 A 
ATOM     20  C   LIG A   1      -3.363   2.950 126.236  0.00  0.00    +0.011 A 
ENDBRANCH   4  15
TORSDOF 1
ENDMDL
MODEL 4
REMARK VINA RESULT:      -7.8     10.403     11.285
REMARK  Name = NuBBE_1313
REMARK  1 active torsions:
REMARK  status: ('A' for Active; 'I' for Inactive)
REMARK    1  A    between atoms: C_4  and  C_5
REMARK                            x       y       z     vdW  Elec       q    Type
REMARK                         _______ _______ _______ _____ _____    ______ ____
ROOT
ATOM      1  O   LIG A   1      -9.286   4.583 133.581  0.00  0.00    -0.287 OA
ATOM      2  C   LIG A   1      -8.955   5.352 132.688  0.00  0.00    +0.193 A 
ATOM      3  C   LIG A   1      -9.960   5.958 131.801  0.00  0.00    +0.098 A 
ATOM      4  C   LIG A   1      -9.564   6.803 130.838  0.00  0.00    +0.139 A 
ATOM      5  O   LIG A   1      -8.243   7.146 130.597  0.00  0.00    -0.454 OA
ATOM      6  C   LIG A   1      -7.551   5.718 132.446  0.00  0.00    +0.065 A 
ATOM      7  C   LIG A   1      -7.266   6.607 131.400  0.00  0.00    +0.150 A 
ATOM      8  C   LIG A   1      -5.922   6.957 131.168  0.00  0.00    +0.063 A 
ATOM      9  C   LIG A   1      -5.230   7.791 130.249  0.00  0.00    +0.053 A 
ATOM     10  C   LIG A   1      -3.893   7.693 130.563  0.00  0.00    +0.196 A 
ATOM     11  O   LIG A   1      -3.710   6.853 131.615  0.00  0.00    -0.463 OA
ATOM     12  C   LIG A   1      -4.941   6.405 131.985  0.00  0.00    +0.138 A 
ATOM     13  C   LIG A   1      -5.195   5.519 133.030  0.00  0.00    +0.048 A 
ATOM     14  C   LIG A   1      -6.535   5.181 133.249  0.00  0.00    +0.019 A 
ENDROOT
BRANCH   4  15
ATOM     15  C   LIG A   1     -10.528   7.430 129.914  0.00  0.00    +0.017 A 
ATOM     16  C   LIG A   1     -11.879   7.535 130.277  0.00  0.00    +0.011 A 
ATOM     17  C   LIG A   1     -12.809   8.118 129.411  0.00  0.00    +0.001 A 
ATOM     18  C   LIG A   1     -12.400   8.596 128.169  0.00  0.00    +0.000 A 
ATOM     19  C   LIG A   1     -11.064   8.491 127.789  0.00  0.00    +0.001 A 
ATOM     20  C   LIG A   1     -10.133   7.910 128.655  0.00  0.00    +0.011 A 
ENDBRANCH   4  15
TORSDOF 1
ENDMDL
MODEL 5
REMARK VINA RESULT:      -7.8      2.215      3.793
REMARK  Name = NuBBE_1313
REMARK  1 active torsions:
REMARK  status: ('A' for Active; 'I' for Inactive)
REMARK    1  A    between atoms: C_4  and  C_5
REMARK                            x       y       z     vdW  Elec       q    Type
REMARK                         _______ _______ _______ _____ _____    ______ ____
ROOT
ATOM      1  O   LIG A   1      -5.290   4.006 125.978  0.00  0.00    -0.287 OA
ATOM      2  C   LIG A   1      -5.758   3.419 125.010  0.00  0.00    +0.193 A 
ATOM      3  C   LIG A   1      -5.790   4.056 123.684  0.00  0.00    +0.098 A 
ATOM      4  C   LIG A   1      -6.302   3.383 122.643  0.00  0.00    +0.139 A 
ATOM      5  O   LIG A   1      -6.831   2.105 122.726  0.00  0.00    -0.454 OA
ATOM      6  C   LIG A   1      -6.308   2.058 125.105  0.00  0.00    +0.065 A 
ATOM      7  C   LIG A   1      -6.822   1.466 123.944  0.00  0.00    +0.150 A 
ATOM      8  C   LIG A   1      -7.350   0.164 124.034  0.00  0.00    +0.063 A 
ATOM      9  C   LIG A   1      -7.943  -0.761 123.133  0.00  0.00    +0.053 A 
ATOM     10  C   LIG A   1      -8.248  -1.883 123.870  0.00  0.00    +0.196 A 
ATOM     11  O   LIG A   1      -7.885  -1.715 125.169  0.00  0.00    -0.463 OA
ATOM     12  C   LIG A   1      -7.338  -0.473 125.271  0.00  0.00    +0.138 A 
ATOM     13  C   LIG A   1      -6.834   0.092 126.441  0.00  0.00    +0.048 A 
ATOM     14  C   LIG A   1      -6.313   1.386 126.335  0.00  0.00    +0.019 A 
ENDROOT
BRANCH   4  15
ATOM     15  C   LIG A   1      -6.369   3.977 121.295  0.00  0.00    +0.017 A 
ATOM     16  C   LIG A   1      -7.519   3.804 120.510  0.00  0.00    +0.011 A 
ATOM     17  C   LIG A   1      -7.597   4.351 119.226  0.00  0.00    +0.001 A 
ATOM     18  C   LIG A   1      -6.523   5.072 118.708  0.00  0.00    +0.000 A 
ATOM     19  C   LIG A   1      -5.370   5.244 119.472  0.00  0.00    +0.001 A 
ATOM     20  C   LIG A   1      -5.292   4.699 120.755  0.00  0.00    +0.011 A 
ENDBRANCH   4  15
TORSDOF 1
ENDMDL
MODEL 6
REMARK VINA RESULT:      -7.8      9.880     11.018
REMARK  Name = NuBBE_1313
REMARK  1 active torsions:
REMARK  status: ('A' for Active; 'I' for Inactive)
REMARK    1  A    between atoms: C_4  and  C_5
REMARK                            x       y       z     vdW  Elec       q    Type
REMARK                         _______ _______ _______ _____ _____    ______ ____
ROOT
ATOM      1  O   LIG A   1      -8.670   5.210 133.840  0.00  0.00    -0.287 OA
ATOM      2  C   LIG A   1      -8.426   5.753 132.770  0.00  0.00    +0.193 A 
ATOM      3  C   LIG A   1      -7.043   5.881 132.286  0.00  0.00    +0.098 A 
ATOM      4  C   LIG A   1      -6.812   6.473 131.105  0.00  0.00    +0.139 A 
ATOM      5  O   LIG A   1      -7.801   7.003 130.292  0.00  0.00    -0.454 OA
ATOM      6  C   LIG A   1      -9.484   6.303 131.908  0.00  0.00    +0.065 A 
ATOM      7  C   LIG A   1      -9.111   6.906 130.700  0.00  0.00    +0.150 A 
ATOM      8  C   LIG A   1     -10.122   7.434 129.875  0.00  0.00    +0.063 A 
ATOM      9  C   LIG A   1     -10.172   8.099 128.620  0.00  0.00    +0.053 A 
ATOM     10  C   LIG A   1     -11.500   8.355 128.366  0.00  0.00    +0.196 A 
ATOM     11  O   LIG A   1     -12.278   7.893 129.380  0.00  0.00    -0.463 OA
ATOM     12  C   LIG A   1     -11.444   7.333 130.298  0.00  0.00    +0.138 A 
ATOM     13  C   LIG A   1     -11.843   6.739 131.494  0.00  0.00    +0.048 A 
ATOM     14  C   LIG A   1     -10.826   6.219 132.302  0.00  0.00    +0.019 A 
ENDROOT
BRANCH   4  15
ATOM     15  C   LIG A   1      -5.444   6.638 130.577  0.00  0.00    +0.017 A 
ATOM     16  C   LIG A   1      -4.623   5.515 130.395  0.00  0.00    +0.011 A 
ATOM     17  C   LIG A   1      -3.322   5.652 129.905  0.00  0.00    +0.001 A 
ATOM     18  C   LIG A   1      -2.822   6.915 129.597  0.00  0.00    +0.000 A 
ATOM     19  C   LIG A   1      -3.622   8.042 129.780  0.00  0.00    +0.001 A 
ATOM     20  C   LIG A   1      -4.923   7.905 130.269  0.00  0.00    +0.011 A 
ENDBRANCH   4  15
TORSDOF 1
ENDMDL
MODEL 7
REMARK VINA RESULT:      -7.4      2.965      3.332
REMARK  Name = NuBBE_1313
REMARK  1 active torsions:
REMARK  status: ('A' for Active; 'I' for Inactive)
REMARK    1  A    between atoms: C_4  and  C_5
REMARK                            x       y       z     vdW  Elec       q    Type
REMARK                         _______ _______ _______ _____ _____    ______ ____
ROOT
ATOM      1  O   LIG A   1      -9.668  -2.057 123.261  0.00  0.00    -0.287 OA
ATOM      2  C   LIG A   1      -8.952  -1.446 124.043  0.00  0.00    +0.193 A 
ATOM      3  C   LIG A   1      -8.313  -0.180 123.652  0.00  0.00    +0.098 A 
ATOM      4  C   LIG A   1      -7.541   0.468 124.537  0.00  0.00    +0.139 A 
ATOM      5  O   LIG A   1      -7.278   0.017 125.820  0.00  0.00    -0.454 OA
ATOM      6  C   LIG A   1      -8.687  -1.928 125.408  0.00  0.00    +0.065 A 
ATOM      7  C   LIG A   1      -7.854  -1.161 126.234  0.00  0.00    +0.150 A 
ATOM      8  C   LIG A   1      -7.600  -1.622 127.540  0.00  0.00    +0.063 A 
ATOM      9  C   LIG A   1      -6.845  -1.166 128.654  0.00  0.00    +0.053 A 
ATOM     10  C   LIG A   1      -7.018  -2.098 129.651  0.00  0.00    +0.196 A 
ATOM     11  O   LIG A   1      -7.830  -3.103 129.231  0.00  0.00    -0.463 OA
ATOM     12  C   LIG A   1      -8.186  -2.816 127.948  0.00  0.00    +0.138 A 
ATOM     13  C   LIG A   1      -9.016  -3.599 127.148  0.00  0.00    +0.048 A 
ATOM     14  C   LIG A   1      -9.260  -3.127 125.854  0.00  0.00    +0.019 A 
ENDROOT
BRANCH   4  15
ATOM     15  C   LIG A   1      -6.868   1.735 124.194  0.00  0.00    +0.017 A 
ATOM     16  C   LIG A   1      -6.144   2.432 125.174  0.00  0.00    +0.011 A 
ATOM     17  C   LIG A   1      -5.509   3.639 124.871  0.00  0.00    +0.001 A 
ATOM     18  C   LIG A   1      -5.593   4.168 123.585  0.00  0.00    +0.000 A 
ATOM     19  C   LIG A   1      -6.316   3.494 122.603  0.00  0.00    +0.001 A 
ATOM     20  C   LIG A   1      -6.951   2.287 122.905  0.00  0.00    +0.011 A 
ENDBRANCH   4  15
TORSDOF 1
ENDMDL
MODEL 8
REMARK VINA RESULT:      -7.4      2.766      6.350
REMARK  Name = NuBBE_1313
REMARK  1 active torsions:
REMARK  status: ('A' for Active; 'I' for Inactive)
REMARK    1  A    between atoms: C_4  and  C_5
REMARK                            x       y       z     vdW  Elec       q    Type
REMARK                         _______ _______ _______ _____ _____    ______ ____
ROOT
ATOM      1  O   LIG A   1     -10.158   0.086 122.623  0.00  0.00    -0.287 OA
ATOM      2  C   LIG A   1      -9.343   0.182 123.531  0.00  0.00    +0.193 A 
ATOM      3  C   LIG A   1      -9.298  -0.814 124.613  0.00  0.00    +0.098 A 
ATOM      4  C   LIG A   1      -8.387  -0.685 125.589  0.00  0.00    +0.139 A 
ATOM      5  O   LIG A   1      -7.471   0.352 125.668  0.00  0.00    -0.454 OA
ATOM      6  C   LIG A   1      -8.367   1.280 123.601  0.00  0.00    +0.065 A 
ATOM      7  C   LIG A   1      -7.472   1.307 124.678  0.00  0.00    +0.150 A 
ATOM      8  C   LIG A   1      -6.539   2.359 124.746  0.00  0.00    +0.063 A 
ATOM      9  C   LIG A   1      -5.497   2.743 125.634  0.00  0.00    +0.053 A 
ATOM     10  C   LIG A   1      -4.951   3.896 125.119  0.00  0.00    +0.196 A 
ATOM     11  O   LIG A   1      -5.584   4.254 123.971  0.00  0.00    -0.463 OA
ATOM     12  C   LIG A   1      -6.549   3.322 123.742  0.00  0.00    +0.138 A 
ATOM     13  C   LIG A   1      -7.428   3.320 122.660  0.00  0.00    +0.048 A 
ATOM     14  C   LIG A   1      -8.349   2.268 122.607  0.00  0.00    +0.019 A 
ENDROOT
BRANCH   4  15
ATOM     15  C   LIG A   1      -8.305  -1.648 126.703  0.00  0.00    +0.017 A 
ATOM     16  C   LIG A   1      -8.898  -2.914 126.580  0.00  0.00    +0.011 A 
ATOM     17  C   LIG A   1      -8.839  -3.836 127.629  0.00  0.00    +0.001 A 
ATOM     18  C   LIG A   1      -8.192  -3.502 128.816  0.00  0.00    +0.000 A 
ATOM     19  C   LIG A   1      -7.605  -2.246 128.957  0.00  0.00    +0.001 A 
ATOM     20  C   LIG A   1      -7.663  -1.324 127.909  0.00  0.00    +0.011 A 
ENDBRANCH   4  15
TORSDOF 1
ENDMDL
MODEL 9
REMARK VINA RESULT:      -7.3      2.257      6.526
REMARK  Name = NuBBE_1313
REMARK  1 active torsions:
REMARK  status: ('A' for Active; 'I' for Inactive)
REMARK    1  A    between atoms: C_4  and  C_5
REMARK                            x       y       z     vdW  Elec       q    Type
REMARK                         _______ _______ _______ _____ _____    ______ ____
ROOT
ATOM      1  O   LIG A   1      -7.220   2.527 127.752  0.00  0.00    -0.287 OA
ATOM      2  C   LIG A   1      -7.237   2.109 126.601  0.00  0.00    +0.193 A 
ATOM      3  C   LIG A   1      -7.806   0.790 126.285  0.00  0.00    +0.098 A 
ATOM      4  C   LIG A   1      -7.817   0.367 125.012  0.00  0.00    +0.139 A 
ATOM      5  O   LIG A   1      -7.305   1.089 123.946  0.00  0.00    -0.454 OA
ATOM      6  C   LIG A   1      -6.701   2.888 125.474  0.00  0.00    +0.065 A 
ATOM      7  C   LIG A   1      -6.764   2.329 124.190  0.00  0.00    +0.150 A 
ATOM      8  C   LIG A   1      -6.250   3.073 123.111  0.00  0.00    +0.063 A 
ATOM      9  C   LIG A   1      -6.124   2.882 121.708  0.00  0.00    +0.053 A 
ATOM     10  C   LIG A   1      -5.518   4.014 121.213  0.00  0.00    +0.196 A 
ATOM     11  O   LIG A   1      -5.259   4.895 122.215  0.00  0.00    -0.463 OA
ATOM     12  C   LIG A   1      -5.703   4.326 123.369  0.00  0.00    +0.138 A 
ATOM     13  C   LIG A   1      -5.626   4.905 124.635  0.00  0.00    +0.048 A 
ATOM     14  C   LIG A   1      -6.142   4.153 125.696  0.00  0.00    +0.019 A 
ENDROOT
BRANCH   4  15
ATOM     15  C   LIG A   1      -8.365  -0.951 124.640  0.00  0.00    +0.017 A 
ATOM     16  C   LIG A   1      -8.404  -1.338 123.292  0.00  0.00    +0.011 A 
ATOM     17  C   LIG A   1      -8.929  -2.579 122.919  0.00  0.00    +0.001 A 
ATOM     18  C   LIG A   1      -9.428  -3.445 123.889  0.00  0.00    +0.000 A 
ATOM     19  C   LIG A   1      -9.405  -3.072 125.231  0.00  0.00    +0.001 A 
ATOM     20  C   LIG A   1      -8.880  -1.832 125.605  0.00  0.00    +0.011 A 
ENDBRANCH   4  15
TORSDOF 1
ENDMDL
