MODEL 1
REMARK VINA RESULT:      -6.4      0.000      0.000
REMARK  Name = NuBBE_595
REMARK  4 active torsions:
REMARK  status: ('A' for Active; 'I' for Inactive)
REMARK    1  A    between atoms: C_1  and  C_2
REMARK    2  A    between atoms: C_5  and  O_7
REMARK    3  A    between atoms: C_11  and  O_12
REMARK    4  A    between atoms: C_13  and  O_14
REMARK                            x       y       z     vdW  Elec       q    Type
REMARK                         _______ _______ _______ _____ _____    ______ ____
ROOT
ATOM      1  C   LIG A   1     -12.995   7.118 127.148  0.00  0.00    +0.055 C 
ATOM      2  C   LIG A   1     -11.866   8.057 127.577  0.00  0.00    +0.206 C 
ATOM      3  O   LIG A   1     -12.228   8.701 128.809  0.00  0.00    -0.455 OA
ATOM      4  C   LIG A   1     -10.481   7.415 127.694  0.00  0.00    +0.186 C 
ATOM      5  C   LIG A   1     -10.384   6.588 128.951  0.00  0.00    +0.002 A 
ATOM      6  C   LIG A   1      -9.389   5.596 129.069  0.00  0.00    +0.011 A 
ATOM      7  C   LIG A   1      -9.276   4.830 130.229  0.00  0.00    +0.049 A 
ATOM      8  C   LIG A   1     -10.157   5.065 131.273  0.00  0.00    +0.159 A 
ATOM      9  C   LIG A   1     -11.132   6.064 131.186  0.00  0.00    +0.173 A 
ATOM     10  C   LIG A   1     -11.250   6.851 130.035  0.00  0.00    +0.110 A 
ATOM     11  C   LIG A   1     -12.237   7.980 129.967  0.00  0.00    +0.344 C 
ATOM     12  O   LIG A   1     -12.974   8.306 130.880  0.00  0.00    -0.245 OA
ENDROOT
BRANCH   4  13
ATOM     13  O   LIG A   1     -10.192   6.638 126.533  0.00  0.00    -0.384 OA
ATOM     14  H   LIG A   1      -9.385   6.124 126.709  0.00  0.00    +0.210 HD
ENDBRANCH   4  13
BRANCH   8  15
ATOM     15  O   LIG A   1     -10.098   4.340 132.433  0.00  0.00    -0.503 OA
ATOM     16  H   LIG A   1      -9.658   4.877 133.115  0.00  0.00    +0.292 HD
ENDBRANCH   8  15
BRANCH   9  17
ATOM     17  O   LIG A   1     -11.951   6.227 132.270  0.00  0.00    -0.503 OA
ATOM     18  H   LIG A   1     -11.412   6.679 132.948  0.00  0.00    +0.292 HD
ENDBRANCH   9  17
TORSDOF 3
ENDMDL
MODEL 2
REMARK VINA RESULT:      -6.1      1.543      4.772
REMARK  Name = NuBBE_595
REMARK  4 active torsions:
REMARK  status: ('A' for Active; 'I' for Inactive)
REMARK    1  A    between atoms: C_1  and  C_2
REMARK    2  A    between atoms: C_5  and  O_7
REMARK    3  A    between atoms: C_11  and  O_12
REMARK    4  A    between atoms: C_13  and  O_14
REMARK                            x       y       z     vdW  Elec       q    Type
REMARK                         _______ _______ _______ _____ _____    ______ ____
ROOT
ATOM      1  C   LIG A   1      -9.602   3.494 131.094  0.00  0.00    +0.055 C 
ATOM      2  C   LIG A   1      -9.027   4.898 131.284  0.00  0.00    +0.206 C 
ATOM      3  O   LIG A   1      -8.564   5.396 130.019  0.00  0.00    -0.455 OA
ATOM      4  C   LIG A   1      -9.963   5.911 131.950  0.00  0.00    +0.186 C 
ATOM      5  C   LIG A   1     -11.013   6.382 130.977  0.00  0.00    +0.002 A 
ATOM      6  C   LIG A   1     -12.201   6.976 131.451  0.00  0.00    +0.011 A 
ATOM      7  C   LIG A   1     -13.178   7.430 130.566  0.00  0.00    +0.049 A 
ATOM      8  C   LIG A   1     -12.960   7.293 129.204  0.00  0.00    +0.159 A 
ATOM      9  C   LIG A   1     -11.776   6.732 128.713  0.00  0.00    +0.173 A 
ATOM     10  C   LIG A   1     -10.779   6.285 129.588  0.00  0.00    +0.110 A 
ATOM     11  C   LIG A   1      -9.472   5.761 129.068  0.00  0.00    +0.344 C 
ATOM     12  O   LIG A   1      -9.173   5.704 127.889  0.00  0.00    -0.245 OA
ENDROOT
BRANCH   4  13
ATOM     13  O   LIG A   1     -10.550   5.350 133.124  0.00  0.00    -0.384 OA
ATOM     14  H   LIG A   1     -10.470   6.003 133.840  0.00  0.00    +0.210 HD
ENDBRANCH   4  13
BRANCH   8  15
ATOM     15  O   LIG A   1     -13.887   7.713 128.287  0.00  0.00    -0.503 OA
ATOM     16  H   LIG A   1     -13.613   7.406 127.405  0.00  0.00    +0.292 HD
ENDBRANCH   8  15
BRANCH   9  17
ATOM     17  O   LIG A   1     -11.648   6.646 127.353  0.00  0.00    -0.503 OA
ATOM     18  H   LIG A   1     -12.415   7.123 126.980  0.00  0.00    +0.292 HD
ENDBRANCH   9  17
TORSDOF 3
ENDMDL
MODEL 3
REMARK VINA RESULT:      -6.0      1.935      3.449
REMARK  Name = NuBBE_595
REMARK  4 active torsions:
REMARK  status: ('A' for Active; 'I' for Inactive)
REMARK    1  A    between atoms: C_1  and  C_2
REMARK    2  A    between atoms: C_5  and  O_7
REMARK    3  A    between atoms: C_11  and  O_12
REMARK    4  A    between atoms: C_13  and  O_14
REMARK                            x       y       z     vdW  Elec       q    Type
REMARK                         _______ _______ _______ _____ _____    ______ ____
ROOT
ATOM      1  C   LIG A   1     -12.117   8.667 129.229  0.00  0.00    +0.055 C 
ATOM      2  C   LIG A   1     -12.442   7.174 129.305  0.00  0.00    +0.206 C 
ATOM      3  O   LIG A   1     -11.575   6.454 128.414  0.00  0.00    -0.455 OA
ATOM      4  C   LIG A   1     -12.399   6.560 130.707  0.00  0.00    +0.186 C 
ATOM      5  C   LIG A   1     -10.974   6.358 131.155  0.00  0.00    +0.002 A 
ATOM      6  C   LIG A   1     -10.679   6.202 132.525  0.00  0.00    +0.011 A 
ATOM      7  C   LIG A   1      -9.369   6.002 132.957  0.00  0.00    +0.049 A 
ATOM      8  C   LIG A   1      -8.355   5.952 132.014  0.00  0.00    +0.159 A 
ATOM      9  C   LIG A   1      -8.630   6.076 130.648  0.00  0.00    +0.173 A 
ATOM     10  C   LIG A   1      -9.942   6.263 130.196  0.00  0.00    +0.110 A 
ATOM     11  C   LIG A   1     -10.256   6.311 128.729  0.00  0.00    +0.344 C 
ATOM     12  O   LIG A   1      -9.431   6.176 127.844  0.00  0.00    -0.245 OA
ENDROOT
BRANCH   4  13
ATOM     13  O   LIG A   1     -13.128   7.370 131.629  0.00  0.00    -0.384 OA
ATOM     14  H   LIG A   1     -14.020   6.992 131.720  0.00  0.00    +0.210 HD
ENDBRANCH   4  13
BRANCH   8  15
ATOM     15  O   LIG A   1      -7.048   5.765 132.379  0.00  0.00    -0.503 OA
ATOM     16  H   LIG A   1      -6.711   4.968 131.934  0.00  0.00    +0.292 HD
ENDBRANCH   8  15
BRANCH   9  17
ATOM     17  O   LIG A   1      -7.566   6.006 129.791  0.00  0.00    -0.503 OA
ATOM     18  H   LIG A   1      -7.304   5.064 129.764  0.00  0.00    +0.292 HD
ENDBRANCH   9  17
TORSDOF 3
ENDMDL
MODEL 4
REMARK VINA RESULT:      -6.0      1.232      4.027
REMARK  Name = NuBBE_595
REMARK  4 active torsions:
REMARK  status: ('A' for Active; 'I' for Inactive)
REMARK    1  A    between atoms: C_1  and  C_2
REMARK    2  A    between atoms: C_5  and  O_7
REMARK    3  A    between atoms: C_11  and  O_12
REMARK    4  A    between atoms: C_13  and  O_14
REMARK                            x       y       z     vdW  Elec       q    Type
REMARK                         _______ _______ _______ _____ _____    ______ ____
ROOT
ATOM      1  C   LIG A   1      -8.367   6.270 131.663  0.00  0.00    +0.055 C 
ATOM      2  C   LIG A   1      -9.330   5.262 131.032  0.00  0.00    +0.206 C 
ATOM      3  O   LIG A   1     -10.586   5.309 131.727  0.00  0.00    -0.455 OA
ATOM      4  C   LIG A   1      -9.545   5.409 129.523  0.00  0.00    +0.186 C 
ATOM      5  C   LIG A   1     -10.446   6.582 129.228  0.00  0.00    +0.002 A 
ATOM      6  C   LIG A   1     -10.456   7.157 127.940  0.00  0.00    +0.011 A 
ATOM      7  C   LIG A   1     -11.291   8.234 127.645  0.00  0.00    +0.049 A 
ATOM      8  C   LIG A   1     -12.121   8.729 128.639  0.00  0.00    +0.159 A 
ATOM      9  C   LIG A   1     -12.145   8.153 129.914  0.00  0.00    +0.173 A 
ATOM     10  C   LIG A   1     -11.324   7.063 130.223  0.00  0.00    +0.110 A 
ATOM     11  C   LIG A   1     -11.406   6.387 131.561  0.00  0.00    +0.344 C 
ATOM     12  O   LIG A   1     -12.179   6.705 132.446  0.00  0.00    -0.245 OA
ENDROOT
BRANCH   4  13
ATOM     13  O   LIG A   1      -8.293   5.528 128.850  0.00  0.00    -0.384 OA
ATOM     14  H   LIG A   1      -8.468   5.560 127.894  0.00  0.00    +0.210 HD
ENDBRANCH   4  13
BRANCH   8  15
ATOM     15  O   LIG A   1     -12.957   9.789 128.409  0.00  0.00    -0.503 OA
ATOM     16  H   LIG A   1     -13.242   9.765 127.479  0.00  0.00    +0.292 HD
ENDBRANCH   8  15
BRANCH   9  17
ATOM     17  O   LIG A   1     -13.002   8.705 130.827  0.00  0.00    -0.503 OA
ATOM     18  H   LIG A   1     -13.895   8.395 130.579  0.00  0.00    +0.292 HD
ENDBRANCH   9  17
TORSDOF 3
ENDMDL
MODEL 5
REMARK VINA RESULT:      -5.8      7.783      9.818
REMARK  Name = NuBBE_595
REMARK  4 active torsions:
REMARK  status: ('A' for Active; 'I' for Inactive)
REMARK    1  A    between atoms: C_1  and  C_2
REMARK    2  A    between atoms: C_5  and  O_7
REMARK    3  A    between atoms: C_11  and  O_12
REMARK    4  A    between atoms: C_13  and  O_14
REMARK                            x       y       z     vdW  Elec       q    Type
REMARK                         _______ _______ _______ _____ _____    ______ ____
ROOT
ATOM      1  C   LIG A   1      -8.155  -2.932 124.712  0.00  0.00    +0.055 C 
ATOM      2  C   LIG A   1      -7.526  -2.303 123.467  0.00  0.00    +0.206 C 
ATOM      3  O   LIG A   1      -8.567  -1.841 122.593  0.00  0.00    -0.455 OA
ATOM      4  C   LIG A   1      -6.511  -1.188 123.731  0.00  0.00    +0.186 C 
ATOM      5  C   LIG A   1      -7.214   0.088 124.122  0.00  0.00    +0.002 A 
ATOM      6  C   LIG A   1      -6.509   1.105 124.797  0.00  0.00    +0.011 A 
ATOM      7  C   LIG A   1      -7.139   2.296 125.156  0.00  0.00    +0.049 A 
ATOM      8  C   LIG A   1      -8.475   2.469 124.830  0.00  0.00    +0.159 A 
ATOM      9  C   LIG A   1      -9.184   1.483 124.135  0.00  0.00    +0.173 A 
ATOM     10  C   LIG A   1      -8.563   0.288 123.756  0.00  0.00    +0.110 A 
ATOM     11  C   LIG A   1      -9.292  -0.737 122.937  0.00  0.00    +0.344 C 
ATOM     12  O   LIG A   1     -10.434  -0.610 122.531  0.00  0.00    -0.245 OA
ENDROOT
BRANCH   4  13
ATOM     13  O   LIG A   1      -5.571  -1.593 124.726  0.00  0.00    -0.384 OA
ATOM     14  H   LIG A   1      -5.150  -2.416 124.422  0.00  0.00    +0.210 HD
ENDBRANCH   4  13
BRANCH   8  15
ATOM     15  O   LIG A   1      -9.149   3.614 125.162  0.00  0.00    -0.503 OA
ATOM     16  H   LIG A   1      -9.586   3.961 124.365  0.00  0.00    +0.292 HD
ENDBRANCH   8  15
BRANCH   9  17
ATOM     17  O   LIG A   1     -10.496   1.747 123.852  0.00  0.00    -0.503 OA
ATOM     18  H   LIG A   1     -10.993   1.550 124.670  0.00  0.00    +0.292 HD
ENDBRANCH   9  17
TORSDOF 3
ENDMDL
MODEL 6
REMARK VINA RESULT:      -5.6     10.093     10.912
REMARK  Name = NuBBE_595
REMARK  4 active torsions:
REMARK  status: ('A' for Active; 'I' for Inactive)
REMARK    1  A    between atoms: C_1  and  C_2
REMARK    2  A    between atoms: C_5  and  O_7
REMARK    3  A    between atoms: C_11  and  O_12
REMARK    4  A    between atoms: C_13  and  O_14
REMARK                            x       y       z     vdW  Elec       q    Type
REMARK                         _______ _______ _______ _____ _____    ______ ____
ROOT
ATOM      1  C   LIG A   1      -8.660  -0.893 123.222  0.00  0.00    +0.055 C 
ATOM      2  C   LIG A   1      -8.065  -2.301 123.161  0.00  0.00    +0.206 C 
ATOM      3  O   LIG A   1      -6.652  -2.229 123.402  0.00  0.00    -0.455 OA
ATOM      4  C   LIG A   1      -8.716  -3.334 124.086  0.00  0.00    +0.186 C 
ATOM      5  C   LIG A   1      -8.277  -3.119 125.512  0.00  0.00    +0.002 A 
ATOM      6  C   LIG A   1      -9.034  -3.658 126.573  0.00  0.00    +0.011 A 
ATOM      7  C   LIG A   1      -8.637  -3.481 127.897  0.00  0.00    +0.049 A 
ATOM      8  C   LIG A   1      -7.476  -2.770 128.158  0.00  0.00    +0.159 A 
ATOM      9  C   LIG A   1      -6.696  -2.253 127.118  0.00  0.00    +0.173 A 
ATOM     10  C   LIG A   1      -7.073  -2.434 125.782  0.00  0.00    +0.110 A 
ATOM     11  C   LIG A   1      -6.198  -1.956 124.660  0.00  0.00    +0.344 C 
ATOM     12  O   LIG A   1      -5.118  -1.412 124.812  0.00  0.00    -0.245 OA
ENDROOT
BRANCH   4  13
ATOM     13  O   LIG A   1     -10.137  -3.288 123.963  0.00  0.00    -0.384 OA
ATOM     14  H   LIG A   1     -10.520  -3.582 124.807  0.00  0.00    +0.210 HD
ENDBRANCH   4  13
BRANCH   8  15
ATOM     15  O   LIG A   1      -7.040  -2.558 129.438  0.00  0.00    -0.503 OA
ATOM     16  H   LIG A   1      -6.248  -3.102 129.592  0.00  0.00    +0.292 HD
ENDBRANCH   8  15
BRANCH   9  17
ATOM     17  O   LIG A   1      -5.563  -1.572 127.472  0.00  0.00    -0.503 OA
ATOM     18  H   LIG A   1      -4.973  -1.609 126.694  0.00  0.00    +0.292 HD
ENDBRANCH   9  17
TORSDOF 3
ENDMDL
MODEL 7
REMARK VINA RESULT:      -5.3      9.191     10.802
REMARK  Name = NuBBE_595
REMARK  4 active torsions:
REMARK  status: ('A' for Active; 'I' for Inactive)
REMARK    1  A    between atoms: C_1  and  C_2
REMARK    2  A    between atoms: C_5  and  O_7
REMARK    3  A    between atoms: C_11  and  O_12
REMARK    4  A    between atoms: C_13  and  O_14
REMARK                            x       y       z     vdW  Elec       q    Type
REMARK                         _______ _______ _______ _____ _____    ______ ____
ROOT
ATOM      1  C   LIG A   1      -6.764  -0.239 128.399  0.00  0.00    +0.055 C 
ATOM      2  C   LIG A   1      -6.052  -1.533 128.002  0.00  0.00    +0.206 C 
ATOM      3  O   LIG A   1      -6.874  -2.655 128.359  0.00  0.00    -0.455 OA
ATOM      4  C   LIG A   1      -5.623  -1.627 126.535  0.00  0.00    +0.186 C 
ATOM      5  C   LIG A   1      -6.811  -1.911 125.651  0.00  0.00    +0.002 A 
ATOM      6  C   LIG A   1      -6.746  -1.639 124.269  0.00  0.00    +0.011 A 
ATOM      7  C   LIG A   1      -7.830  -1.906 123.435  0.00  0.00    +0.049 A 
ATOM      8  C   LIG A   1      -8.978  -2.455 123.986  0.00  0.00    +0.159 A 
ATOM      9  C   LIG A   1      -9.052  -2.760 125.350  0.00  0.00    +0.173 A 
ATOM     10  C   LIG A   1      -7.967  -2.510 126.198  0.00  0.00    +0.110 A 
ATOM     11  C   LIG A   1      -8.007  -2.912 127.644  0.00  0.00    +0.344 C 
ATOM     12  O   LIG A   1      -8.942  -3.486 128.173  0.00  0.00    -0.245 OA
ENDROOT
BRANCH   4  13
ATOM     13  O   LIG A   1      -4.947  -0.435 126.135  0.00  0.00    -0.384 OA
ATOM     14  H   LIG A   1      -4.563  -0.028 126.931  0.00  0.00    +0.210 HD
ENDBRANCH   4  13
BRANCH   8  15
ATOM     15  O   LIG A   1     -10.077  -2.733 123.218  0.00  0.00    -0.503 OA
ATOM     16  H   LIG A   1     -10.197  -2.012 122.575  0.00  0.00    +0.292 HD
ENDBRANCH   8  15
BRANCH   9  17
ATOM     17  O   LIG A   1     -10.222  -3.306 125.801  0.00  0.00    -0.503 OA
ATOM     18  H   LIG A   1     -10.067  -3.538 126.737  0.00  0.00    +0.292 HD
ENDBRANCH   9  17
TORSDOF 3
ENDMDL
MODEL 8
REMARK VINA RESULT:      -5.2      6.911      8.547
REMARK  Name = NuBBE_595
REMARK  4 active torsions:
REMARK  status: ('A' for Active; 'I' for Inactive)
REMARK    1  A    between atoms: C_1  and  C_2
REMARK    2  A    between atoms: C_5  and  O_7
REMARK    3  A    between atoms: C_11  and  O_12
REMARK    4  A    between atoms: C_13  and  O_14
REMARK                            x       y       z     vdW  Elec       q    Type
REMARK                         _______ _______ _______ _____ _____    ______ ____
ROOT
ATOM      1  C   LIG A   1      -8.940  -0.499 125.138  0.00  0.00    +0.055 C 
ATOM      2  C   LIG A   1      -9.749   0.785 125.332  0.00  0.00    +0.206 C 
ATOM      3  O   LIG A   1      -9.073   1.632 126.275  0.00  0.00    -0.455 OA
ATOM      4  C   LIG A   1     -10.077   1.559 124.053  0.00  0.00    +0.186 C 
ATOM      5  C   LIG A   1      -8.861   2.301 123.555  0.00  0.00    +0.002 A 
ATOM      6  C   LIG A   1      -8.797   2.733 122.214  0.00  0.00    +0.011 A 
ATOM      7  C   LIG A   1      -7.688   3.431 121.740  0.00  0.00    +0.049 A 
ATOM      8  C   LIG A   1      -6.645   3.701 122.613  0.00  0.00    +0.159 A 
ATOM      9  C   LIG A   1      -6.703   3.305 123.953  0.00  0.00    +0.173 A 
ATOM     10  C   LIG A   1      -7.816   2.617 124.449  0.00  0.00    +0.110 A 
ATOM     11  C   LIG A   1      -7.922   2.264 125.904  0.00  0.00    +0.344 C 
ATOM     12  O   LIG A   1      -7.091   2.556 126.746  0.00  0.00    -0.245 OA
ENDROOT
BRANCH   4  13
ATOM     13  O   LIG A   1     -10.597   0.680 123.057  0.00  0.00    -0.384 OA
ATOM     14  H   LIG A   1     -10.864   1.218 122.291  0.00  0.00    +0.210 HD
ENDBRANCH   4  13
BRANCH   8  15
ATOM     15  O   LIG A   1      -5.527   4.376 122.202  0.00  0.00    -0.503 OA
ATOM     16  H   LIG A   1      -5.056   3.830 121.548  0.00  0.00    +0.292 HD
ENDBRANCH   8  15
BRANCH   9  17
ATOM     17  O   LIG A   1      -5.629   3.624 124.740  0.00  0.00    -0.503 OA
ATOM     18  H   LIG A   1      -5.560   2.908 125.402  0.00  0.00    +0.292 HD
ENDBRANCH   9  17
TORSDOF 3
ENDMDL
MODEL 9
REMARK VINA RESULT:      -5.2      2.579      5.568
REMARK  Name = NuBBE_595
REMARK  4 active torsions:
REMARK  status: ('A' for Active; 'I' for Inactive)
REMARK    1  A    between atoms: C_1  and  C_2
REMARK    2  A    between atoms: C_5  and  O_7
REMARK    3  A    between atoms: C_11  and  O_12
REMARK    4  A    between atoms: C_13  and  O_14
REMARK                            x       y       z     vdW  Elec       q    Type
REMARK                         _______ _______ _______ _____ _____    ______ ____
ROOT
ATOM      1  C   LIG A   1      -7.158   3.523 132.822  0.00  0.00    +0.055 C 
ATOM      2  C   LIG A   1      -7.004   5.043 132.894  0.00  0.00    +0.206 C 
ATOM      3  O   LIG A   1      -6.472   5.525 131.650  0.00  0.00    -0.455 OA
ATOM      4  C   LIG A   1      -8.270   5.818 133.272  0.00  0.00    +0.186 C 
ATOM      5  C   LIG A   1      -9.220   5.885 132.102  0.00  0.00    +0.002 A 
ATOM      6  C   LIG A   1     -10.584   6.172 132.316  0.00  0.00    +0.011 A 
ATOM      7  C   LIG A   1     -11.475   6.250 131.246  0.00  0.00    +0.049 A 
ATOM      8  C   LIG A   1     -10.995   6.047 129.961  0.00  0.00    +0.159 A 
ATOM      9  C   LIG A   1      -9.640   5.790 129.727  0.00  0.00    +0.173 A 
ATOM     10  C   LIG A   1      -8.730   5.722 130.788  0.00  0.00    +0.110 A 
ATOM     11  C   LIG A   1      -7.262   5.531 130.538  0.00  0.00    +0.344 C 
ATOM     12  O   LIG A   1      -6.758   5.445 129.433  0.00  0.00    -0.245 OA
ENDROOT
BRANCH   4  13
ATOM     13  O   LIG A   1      -8.889   5.233 134.417  0.00  0.00    -0.384 OA
ATOM     14  H   LIG A   1      -8.790   4.268 134.350  0.00  0.00    +0.210 HD
ENDBRANCH   4  13
BRANCH   8  15
ATOM     15  O   LIG A   1     -11.824   6.105 128.873  0.00  0.00    -0.503 OA
ATOM     16  H   LIG A   1     -11.762   6.993 128.481  0.00  0.00    +0.292 HD
ENDBRANCH   8  15
BRANCH   9  17
ATOM     17  O   LIG A   1      -9.259   5.611 128.425  0.00  0.00    -0.503 OA
ATOM     18  H   LIG A   1      -8.282   5.622 128.427  0.00  0.00    +0.292 HD
ENDBRANCH   9  17
TORSDOF 3
ENDMDL
