MODEL 1
REMARK VINA RESULT:      -4.3      0.000      0.000
REMARK  Name = NuBBE_1375
REMARK  7 active torsions:
REMARK  status: ('A' for Active; 'I' for Inactive)
REMARK    1  A    between atoms: C_1  and  C_2
REMARK    2  A    between atoms: C_2  and  C_3
REMARK    3  A    between atoms: C_3  and  C_4
REMARK    4  A    between atoms: C_4  and  C_5
REMARK    5  A    between atoms: C_5  and  C_6
REMARK    6  A    between atoms: C_6  and  C_7
REMARK    7  A    between atoms: C_7  and  O_8
REMARK                            x       y       z     vdW  Elec       q    Type
REMARK                         _______ _______ _______ _____ _____    ______ ____
ROOT
ATOM      1  C   LIG A   1      -5.673  -2.635 123.087  0.00  0.00    +0.002 C 
ENDROOT
BRANCH   1   2
ATOM      2  C   LIG A   1      -6.870  -1.841 123.614  0.00  0.00    +0.000 C 
BRANCH   2   3
ATOM      3  C   LIG A   1      -8.125  -1.992 122.748  0.00  0.00    -0.000 C 
BRANCH   3   5
ATOM      4  C   LIG A   1      -9.132  -3.102 124.801  0.00  0.00    +0.004 C 
ATOM      5  C   LIG A   1      -9.092  -3.051 123.280  0.00  0.00    -0.003 C 
ENDBRANCH   3   5
ENDBRANCH   2   3
ENDBRANCH   1   2
BRANCH   1   6
ATOM      6  C   LIG A   1      -5.274  -3.833 123.960  0.00  0.00    +0.028 C 
BRANCH   6   7
ATOM      7  C   LIG A   1      -3.944  -4.461 123.561  0.00  0.00    +0.156 C 
BRANCH   7   8
ATOM      8  O   LIG A   1      -4.180  -5.733 122.972  0.00  0.00    -0.395 OA
ATOM      9  H   LIG A   1      -4.651  -6.270 123.618  0.00  0.00    +0.209 HD
ENDBRANCH   7   8
ENDBRANCH   6   7
ENDBRANCH   1   6
TORSDOF 6
ENDMDL
MODEL 2
REMARK VINA RESULT:      -4.2     14.070     15.213
REMARK  Name = NuBBE_1375
REMARK  7 active torsions:
REMARK  status: ('A' for Active; 'I' for Inactive)
REMARK    1  A    between atoms: C_1  and  C_2
REMARK    2  A    between atoms: C_2  and  C_3
REMARK    3  A    between atoms: C_3  and  C_4
REMARK    4  A    between atoms: C_4  and  C_5
REMARK    5  A    between atoms: C_5  and  C_6
REMARK    6  A    between atoms: C_6  and  C_7
REMARK    7  A    between atoms: C_7  and  O_8
REMARK                            x       y       z     vdW  Elec       q    Type
REMARK                         _______ _______ _______ _____ _____    ______ ____
ROOT
ATOM      1  C   LIG A   1     -12.593   8.533 129.952  0.00  0.00    +0.002 C 
ENDROOT
BRANCH   1   2
ATOM      2  C   LIG A   1     -11.577   7.687 129.181  0.00  0.00    +0.000 C 
BRANCH   2   3
ATOM      3  C   LIG A   1     -10.788   8.489 128.141  0.00  0.00    -0.000 C 
BRANCH   3   5
ATOM      4  C   LIG A   1     -12.181   7.093 126.537  0.00  0.00    +0.004 C 
ATOM      5  C   LIG A   1     -10.917   7.918 126.727  0.00  0.00    -0.003 C 
ENDBRANCH   3   5
ENDBRANCH   2   3
ENDBRANCH   1   2
BRANCH   1   6
ATOM      6  C   LIG A   1     -13.081   9.779 129.200  0.00  0.00    +0.028 C 
BRANCH   6   7
ATOM      7  C   LIG A   1     -13.432  10.945 130.116  0.00  0.00    +0.156 C 
BRANCH   7   8
ATOM      8  O   LIG A   1     -13.402  12.156 129.371  0.00  0.00    -0.395 OA
ATOM      9  H   LIG A   1     -13.795  11.978 128.510  0.00  0.00    +0.209 HD
ENDBRANCH   7   8
ENDBRANCH   6   7
ENDBRANCH   1   6
TORSDOF 6
ENDMDL
MODEL 3
REMARK VINA RESULT:      -4.1     12.322     13.434
REMARK  Name = NuBBE_1375
REMARK  7 active torsions:
REMARK  status: ('A' for Active; 'I' for Inactive)
REMARK    1  A    between atoms: C_1  and  C_2
REMARK    2  A    between atoms: C_2  and  C_3
REMARK    3  A    between atoms: C_3  and  C_4
REMARK    4  A    between atoms: C_4  and  C_5
REMARK    5  A    between atoms: C_5  and  C_6
REMARK    6  A    between atoms: C_6  and  C_7
REMARK    7  A    between atoms: C_7  and  O_8
REMARK                            x       y       z     vdW  Elec       q    Type
REMARK                         _______ _______ _______ _____ _____    ______ ____
ROOT
ATOM      1  C   LIG A   1     -13.416   7.434 127.882  0.00  0.00    +0.002 C 
ENDROOT
BRANCH   1   2
ATOM      2  C   LIG A   1     -13.047   8.797 128.473  0.00  0.00    +0.000 C 
BRANCH   2   3
ATOM      3  C   LIG A   1     -12.692   8.734 129.962  0.00  0.00    -0.000 C 
BRANCH   3   5
ATOM      4  C   LIG A   1     -11.674   6.714 131.121  0.00  0.00    +0.004 C 
ATOM      5  C   LIG A   1     -12.942   7.355 130.576  0.00  0.00    -0.003 C 
ENDBRANCH   3   5
ENDBRANCH   2   3
ENDBRANCH   1   2
BRANCH   1   6
ATOM      6  C   LIG A   1     -12.588   7.032 126.653  0.00  0.00    +0.028 C 
BRANCH   6   7
ATOM      7  C   LIG A   1     -11.121   7.435 126.749  0.00  0.00    +0.156 C 
BRANCH   7   8
ATOM      8  O   LIG A   1     -10.314   6.423 126.159  0.00  0.00    -0.395 OA
ATOM      9  H   LIG A   1     -10.400   5.630 126.700  0.00  0.00    +0.209 HD
ENDBRANCH   7   8
ENDBRANCH   6   7
ENDBRANCH   1   6
TORSDOF 6
ENDMDL
MODEL 4
REMARK VINA RESULT:      -4.0      2.997      4.777
REMARK  Name = NuBBE_1375
REMARK  7 active torsions:
REMARK  status: ('A' for Active; 'I' for Inactive)
REMARK    1  A    between atoms: C_1  and  C_2
REMARK    2  A    between atoms: C_2  and  C_3
REMARK    3  A    between atoms: C_3  and  C_4
REMARK    4  A    between atoms: C_4  and  C_5
REMARK    5  A    between atoms: C_5  and  C_6
REMARK    6  A    between atoms: C_6  and  C_7
REMARK    7  A    between atoms: C_7  and  O_8
REMARK                            x       y       z     vdW  Elec       q    Type
REMARK                         _______ _______ _______ _____ _____    ______ ____
ROOT
ATOM      1  C   LIG A   1      -8.301  -3.139 124.021  0.00  0.00    +0.002 C 
ENDROOT
BRANCH   1   2
ATOM      2  C   LIG A   1      -6.842  -3.510 124.300  0.00  0.00    +0.000 C 
BRANCH   2   3
ATOM      3  C   LIG A   1      -5.842  -2.687 123.482  0.00  0.00    -0.000 C 
BRANCH   3   5
ATOM      4  C   LIG A   1      -4.461  -4.817 123.604  0.00  0.00    +0.004 C 
ATOM      5  C   LIG A   1      -4.442  -3.302 123.460  0.00  0.00    -0.003 C 
ENDBRANCH   3   5
ENDBRANCH   2   3
ENDBRANCH   1   2
BRANCH   1   6
ATOM      6  C   LIG A   1      -8.498  -2.202 122.821  0.00  0.00    +0.028 C 
BRANCH   6   7
ATOM      7  C   LIG A   1      -9.031  -0.827 123.204  0.00  0.00    +0.156 C 
BRANCH   7   8
ATOM      8  O   LIG A   1     -10.260  -0.593 122.527  0.00  0.00    -0.395 OA
ATOM      9  H   LIG A   1     -10.422  -1.346 121.950  0.00  0.00    +0.209 HD
ENDBRANCH   7   8
ENDBRANCH   6   7
ENDBRANCH   1   6
TORSDOF 6
ENDMDL
MODEL 5
REMARK VINA RESULT:      -3.9     13.327     14.079
REMARK  Name = NuBBE_1375
REMARK  7 active torsions:
REMARK  status: ('A' for Active; 'I' for Inactive)
REMARK    1  A    between atoms: C_1  and  C_2
REMARK    2  A    between atoms: C_2  and  C_3
REMARK    3  A    between atoms: C_3  and  C_4
REMARK    4  A    between atoms: C_4  and  C_5
REMARK    5  A    between atoms: C_5  and  C_6
REMARK    6  A    between atoms: C_6  and  C_7
REMARK    7  A    between atoms: C_7  and  O_8
REMARK                            x       y       z     vdW  Elec       q    Type
REMARK                         _______ _______ _______ _____ _____    ______ ____
ROOT
ATOM      1  C   LIG A   1     -12.797   8.244 131.015  0.00  0.00    +0.002 C 
ENDROOT
BRANCH   1   2
ATOM      2  C   LIG A   1     -12.804   8.918 129.641  0.00  0.00    +0.000 C 
BRANCH   2   3
ATOM      3  C   LIG A   1     -12.959   7.927 128.482  0.00  0.00    -0.000 C 
BRANCH   3   5
ATOM      4  C   LIG A   1     -10.495   8.465 128.166  0.00  0.00    +0.004 C 
ATOM      5  C   LIG A   1     -11.771   7.947 127.519  0.00  0.00    -0.003 C 
ENDBRANCH   3   5
ENDBRANCH   2   3
ENDBRANCH   1   2
BRANCH   1   6
ATOM      6  C   LIG A   1     -12.427   6.754 130.988  0.00  0.00    +0.028 C 
BRANCH   6   7
ATOM      7  C   LIG A   1     -10.976   6.482 131.367  0.00  0.00    +0.156 C 
BRANCH   7   8
ATOM      8  O   LIG A   1     -10.925   5.937 132.680  0.00  0.00    -0.395 OA
ATOM      9  H   LIG A   1     -10.037   5.591 132.817  0.00  0.00    +0.209 HD
ENDBRANCH   7   8
ENDBRANCH   6   7
ENDBRANCH   1   6
TORSDOF 6
ENDMDL
MODEL 6
REMARK VINA RESULT:      -3.9     12.841     13.593
REMARK  Name = NuBBE_1375
REMARK  7 active torsions:
REMARK  status: ('A' for Active; 'I' for Inactive)
REMARK    1  A    between atoms: C_1  and  C_2
REMARK    2  A    between atoms: C_2  and  C_3
REMARK    3  A    between atoms: C_3  and  C_4
REMARK    4  A    between atoms: C_4  and  C_5
REMARK    5  A    between atoms: C_5  and  C_6
REMARK    6  A    between atoms: C_6  and  C_7
REMARK    7  A    between atoms: C_7  and  O_8
REMARK                            x       y       z     vdW  Elec       q    Type
REMARK                         _______ _______ _______ _____ _____    ______ ____
ROOT
ATOM      1  C   LIG A   1     -10.004   7.599 129.619  0.00  0.00    +0.002 C 
ENDROOT
BRANCH   1   2
ATOM      2  C   LIG A   1     -10.880   8.241 128.541  0.00  0.00    +0.000 C 
BRANCH   2   3
ATOM      3  C   LIG A   1     -12.186   8.823 129.091  0.00  0.00    -0.000 C 
BRANCH   3   5
ATOM      4  C   LIG A   1     -13.692   6.980 128.198  0.00  0.00    +0.004 C 
ATOM      5  C   LIG A   1     -13.403   8.474 128.231  0.00  0.00    -0.003 C 
ENDBRANCH   3   5
ENDBRANCH   2   3
ENDBRANCH   1   2
BRANCH   1   6
ATOM      6  C   LIG A   1     -10.548   6.274 130.172  0.00  0.00    +0.028 C 
BRANCH   6   7
ATOM      7  C   LIG A   1     -10.890   6.329 131.656  0.00  0.00    +0.156 C 
BRANCH   7   8
ATOM      8  O   LIG A   1     -12.301   6.247 131.818  0.00  0.00    -0.395 OA
ATOM      9  H   LIG A   1     -12.549   5.320 131.733  0.00  0.00    +0.209 HD
ENDBRANCH   7   8
ENDBRANCH   6   7
ENDBRANCH   1   6
TORSDOF 6
ENDMDL
MODEL 7
REMARK VINA RESULT:      -3.8      2.635      4.408
REMARK  Name = NuBBE_1375
REMARK  7 active torsions:
REMARK  status: ('A' for Active; 'I' for Inactive)
REMARK    1  A    between atoms: C_1  and  C_2
REMARK    2  A    between atoms: C_2  and  C_3
REMARK    3  A    between atoms: C_3  and  C_4
REMARK    4  A    between atoms: C_4  and  C_5
REMARK    5  A    between atoms: C_5  and  C_6
REMARK    6  A    between atoms: C_6  and  C_7
REMARK    7  A    between atoms: C_7  and  O_8
REMARK                            x       y       z     vdW  Elec       q    Type
REMARK                         _______ _______ _______ _____ _____    ______ ____
ROOT
ATOM      1  C   LIG A   1      -8.170  -2.456 123.333  0.00  0.00    +0.002 C 
ENDROOT
BRANCH   1   2
ATOM      2  C   LIG A   1      -6.804  -1.769 123.385  0.00  0.00    +0.000 C 
BRANCH   2   3
ATOM      3  C   LIG A   1      -5.682  -2.605 122.760  0.00  0.00    -0.000 C 
BRANCH   3   5
ATOM      4  C   LIG A   1      -4.354  -4.633 123.525  0.00  0.00    +0.004 C 
ATOM      5  C   LIG A   1      -4.718  -3.180 123.799  0.00  0.00    -0.003 C 
ENDBRANCH   3   5
ENDBRANCH   2   3
ENDBRANCH   1   2
BRANCH   1   6
ATOM      6  C   LIG A   1      -8.385  -3.521 124.418  0.00  0.00    +0.028 C 
BRANCH   6   7
ATOM      7  C   LIG A   1      -9.281  -3.054 125.559  0.00  0.00    +0.156 C 
BRANCH   7   8
ATOM      8  O   LIG A   1      -9.693  -1.715 125.318  0.00  0.00    -0.395 OA
ATOM      9  H   LIG A   1      -9.523  -1.521 124.390  0.00  0.00    +0.209 HD
ENDBRANCH   7   8
ENDBRANCH   6   7
ENDBRANCH   1   6
TORSDOF 6
ENDMDL
MODEL 8
REMARK VINA RESULT:      -3.7     12.521     13.512
REMARK  Name = NuBBE_1375
REMARK  7 active torsions:
REMARK  status: ('A' for Active; 'I' for Inactive)
REMARK    1  A    between atoms: C_1  and  C_2
REMARK    2  A    between atoms: C_2  and  C_3
REMARK    3  A    between atoms: C_3  and  C_4
REMARK    4  A    between atoms: C_4  and  C_5
REMARK    5  A    between atoms: C_5  and  C_6
REMARK    6  A    between atoms: C_6  and  C_7
REMARK    7  A    between atoms: C_7  and  O_8
REMARK                            x       y       z     vdW  Elec       q    Type
REMARK                         _______ _______ _______ _____ _____    ______ ____
ROOT
ATOM      1  C   LIG A   1     -12.427   8.412 129.487  0.00  0.00    +0.002 C 
ENDROOT
BRANCH   1   2
ATOM      2  C   LIG A   1     -12.898   7.219 130.323  0.00  0.00    +0.000 C 
BRANCH   2   3
ATOM      3  C   LIG A   1     -11.897   6.809 131.408  0.00  0.00    -0.000 C 
BRANCH   3   5
ATOM      4  C   LIG A   1      -9.410   6.797 130.883  0.00  0.00    +0.004 C 
ATOM      5  C   LIG A   1     -10.714   6.012 130.857  0.00  0.00    -0.003 C 
ENDBRANCH   3   5
ENDBRANCH   2   3
ENDBRANCH   1   2
BRANCH   1   6
ATOM      6  C   LIG A   1     -12.484   8.185 127.970  0.00  0.00    +0.028 C 
BRANCH   6   7
ATOM      7  C   LIG A   1     -11.239   7.508 127.409  0.00  0.00    +0.156 C 
BRANCH   7   8
ATOM      8  O   LIG A   1     -11.602   6.702 126.296  0.00  0.00    -0.395 OA
ATOM      9  H   LIG A   1     -12.350   7.125 125.861  0.00  0.00    +0.209 HD
ENDBRANCH   7   8
ENDBRANCH   6   7
ENDBRANCH   1   6
TORSDOF 6
ENDMDL
MODEL 9
REMARK VINA RESULT:      -3.6     13.306     14.359
REMARK  Name = NuBBE_1375
REMARK  7 active torsions:
REMARK  status: ('A' for Active; 'I' for Inactive)
REMARK    1  A    between atoms: C_1  and  C_2
REMARK    2  A    between atoms: C_2  and  C_3
REMARK    3  A    between atoms: C_3  and  C_4
REMARK    4  A    between atoms: C_4  and  C_5
REMARK    5  A    between atoms: C_5  and  C_6
REMARK    6  A    between atoms: C_6  and  C_7
REMARK    7  A    between atoms: C_7  and  O_8
REMARK                            x       y       z     vdW  Elec       q    Type
REMARK                         _______ _______ _______ _____ _____    ______ ____
ROOT
ATOM      1  C   LIG A   1     -10.597   8.444 128.469  0.00  0.00    +0.002 C 
ENDROOT
BRANCH   1   2
ATOM      2  C   LIG A   1     -10.262   7.069 129.052  0.00  0.00    +0.000 C 
BRANCH   2   3
ATOM      3  C   LIG A   1      -9.353   7.140 130.284  0.00  0.00    -0.000 C 
BRANCH   3   5
ATOM      4  C   LIG A   1     -11.391   6.564 131.689  0.00  0.00    +0.004 C 
ATOM      5  C   LIG A   1      -9.900   6.350 131.474  0.00  0.00    -0.003 C 
ENDBRANCH   3   5
ENDBRANCH   2   3
ENDBRANCH   1   2
BRANCH   1   6
ATOM      6  C   LIG A   1     -12.093   8.675 128.213  0.00  0.00    +0.028 C 
BRANCH   6   7
ATOM      7  C   LIG A   1     -12.825   9.292 129.400  0.00  0.00    +0.156 C 
BRANCH   7   8
ATOM      8  O   LIG A   1     -13.374  10.546 129.016  0.00  0.00    -0.395 OA
ATOM      9  H   LIG A   1     -13.341  11.125 129.785  0.00  0.00    +0.209 HD
ENDBRANCH   7   8
ENDBRANCH   6   7
ENDBRANCH   1   6
TORSDOF 6
ENDMDL
