MODEL 1
REMARK VINA RESULT:      -6.7      0.000      0.000
REMARK  Name = NuBBE_1495
REMARK  4 active torsions:
REMARK  status: ('A' for Active; 'I' for Inactive)
REMARK    1  A    between atoms: C_1  and  C_3
REMARK    2  A    between atoms: C_1  and  C_4
REMARK    3  A    between atoms: C_8  and  C_16
REMARK    4  A    between atoms: C_12  and  C_15
REMARK                            x       y       z     vdW  Elec       q    Type
REMARK                         _______ _______ _______ _____ _____    ______ ____
ROOT
ATOM      1  C   LIG A   1      -7.738  -2.608 126.922  0.00  0.00    +0.018 C 
ATOM      2  C   LIG A   1      -8.540  -2.973 125.638  0.00  0.00    +0.012 C 
ATOM      3  C   LIG A   1      -7.737  -3.565 124.458  0.00  0.00    +0.030 C 
ATOM      4  C   LIG A   1      -6.424  -2.930 124.041  0.00  0.00    -0.076 C 
ATOM      5  C   LIG A   1      -6.271  -1.754 123.393  0.00  0.00    -0.027 C 
ATOM      6  C   LIG A   1      -7.319  -0.757 122.964  0.00  0.00    +0.031 C 
ATOM      7  C   LIG A   1      -7.268   0.553 123.790  0.00  0.00    +0.034 C 
ATOM      8  C   LIG A   1      -7.921   0.347 125.143  0.00  0.00    -0.076 C 
ATOM      9  C   LIG A   1      -7.225  -0.306 126.095  0.00  0.00    -0.027 C 
ATOM     10  C   LIG A   1      -7.792  -1.084 127.248  0.00  0.00    +0.035 C 
ATOM     11  C   LIG A   1      -9.380   0.707 125.208  0.00  0.00    +0.038 C 
ATOM     12  C   LIG A   1      -5.204  -3.766 124.353  0.00  0.00    +0.038 C 
ENDROOT
BRANCH   1  13
ATOM     13  C   LIG A   1      -8.192  -3.450 128.115  0.00  0.00    -0.076 C 
ATOM     14  C   LIG A   1      -9.311  -4.193 128.051  0.00  0.00    +0.007 C 
ATOM     15  C   LIG A   1      -7.360  -3.418 129.370  0.00  0.00    +0.038 C 
ENDBRANCH   1  13
TORSDOF 1
ENDMDL
MODEL 2
REMARK VINA RESULT:      -6.6      0.717      3.290
REMARK  Name = NuBBE_1495
REMARK  4 active torsions:
REMARK  status: ('A' for Active; 'I' for Inactive)
REMARK    1  A    between atoms: C_1  and  C_3
REMARK    2  A    between atoms: C_1  and  C_4
REMARK    3  A    between atoms: C_8  and  C_16
REMARK    4  A    between atoms: C_12  and  C_15
REMARK                            x       y       z     vdW  Elec       q    Type
REMARK                         _______ _______ _______ _____ _____    ______ ____
ROOT
ATOM      1  C   LIG A   1      -8.393  -2.822 126.758  0.00  0.00    +0.018 C 
ATOM      2  C   LIG A   1      -7.221  -1.803 126.876  0.00  0.00    +0.012 C 
ATOM      3  C   LIG A   1      -7.556  -0.320 126.602  0.00  0.00    +0.030 C 
ATOM      4  C   LIG A   1      -8.402   0.055 125.399  0.00  0.00    -0.076 C 
ATOM      5  C   LIG A   1      -8.013   0.033 124.106  0.00  0.00    -0.027 C 
ATOM      6  C   LIG A   1      -6.695  -0.404 123.513  0.00  0.00    +0.031 C 
ATOM      7  C   LIG A   1      -6.810  -1.728 122.718  0.00  0.00    +0.034 C 
ATOM      8  C   LIG A   1      -6.850  -2.909 123.669  0.00  0.00    -0.076 C 
ATOM      9  C   LIG A   1      -8.005  -3.171 124.313  0.00  0.00    -0.027 C 
ATOM     10  C   LIG A   1      -8.159  -3.875 125.632  0.00  0.00    +0.035 C 
ATOM     11  C   LIG A   1      -5.516  -3.539 123.960  0.00  0.00    +0.038 C 
ATOM     12  C   LIG A   1      -9.787   0.553 125.745  0.00  0.00    +0.038 C 
ENDROOT
BRANCH   1  13
ATOM     13  C   LIG A   1      -8.676  -3.497 128.101  0.00  0.00    -0.076 C 
ATOM     14  C   LIG A   1      -9.730  -4.319 128.254  0.00  0.00    +0.007 C 
ATOM     15  C   LIG A   1      -7.750  -3.210 129.253  0.00  0.00    +0.038 C 
ENDBRANCH   1  13
TORSDOF 1
ENDMDL
MODEL 3
REMARK VINA RESULT:      -6.2      1.447      3.558
REMARK  Name = NuBBE_1495
REMARK  4 active torsions:
REMARK  status: ('A' for Active; 'I' for Inactive)
REMARK    1  A    between atoms: C_1  and  C_3
REMARK    2  A    between atoms: C_1  and  C_4
REMARK    3  A    between atoms: C_8  and  C_16
REMARK    4  A    between atoms: C_12  and  C_15
REMARK                            x       y       z     vdW  Elec       q    Type
REMARK                         _______ _______ _______ _____ _____    ______ ____
ROOT
ATOM      1  C   LIG A   1      -7.963  -2.312 128.132  0.00  0.00    +0.018 C 
ATOM      2  C   LIG A   1      -6.777  -1.841 127.237  0.00  0.00    +0.012 C 
ATOM      3  C   LIG A   1      -6.832  -0.388 126.715  0.00  0.00    +0.030 C 
ATOM      4  C   LIG A   1      -8.122   0.160 126.134  0.00  0.00    -0.076 C 
ATOM      5  C   LIG A   1      -8.662  -0.159 124.937  0.00  0.00    -0.027 C 
ATOM      6  C   LIG A   1      -8.180  -1.150 123.905  0.00  0.00    +0.031 C 
ATOM      7  C   LIG A   1      -9.093  -2.396 123.804  0.00  0.00    +0.034 C 
ATOM      8  C   LIG A   1      -8.811  -3.349 124.949  0.00  0.00    -0.076 C 
ATOM      9  C   LIG A   1      -9.314  -3.053 126.164  0.00  0.00    -0.027 C 
ATOM     10  C   LIG A   1      -8.764  -3.488 127.494  0.00  0.00    +0.035 C 
ATOM     11  C   LIG A   1      -7.804  -4.425 124.649  0.00  0.00    +0.038 C 
ATOM     12  C   LIG A   1      -8.796   1.205 126.993  0.00  0.00    +0.038 C 
ENDROOT
BRANCH   1  13
ATOM     13  C   LIG A   1      -7.485  -2.664 129.541  0.00  0.00    -0.076 C 
ATOM     14  C   LIG A   1      -6.835  -3.816 129.784  0.00  0.00    +0.007 C 
ATOM     15  C   LIG A   1      -7.769  -1.692 130.656  0.00  0.00    +0.038 C 
ENDBRANCH   1  13
TORSDOF 1
ENDMDL
MODEL 4
REMARK VINA RESULT:      -6.1      1.407      5.153
REMARK  Name = NuBBE_1495
REMARK  4 active torsions:
REMARK  status: ('A' for Active; 'I' for Inactive)
REMARK    1  A    between atoms: C_1  and  C_3
REMARK    2  A    between atoms: C_1  and  C_4
REMARK    3  A    between atoms: C_8  and  C_16
REMARK    4  A    between atoms: C_12  and  C_15
REMARK                            x       y       z     vdW  Elec       q    Type
REMARK                         _______ _______ _______ _____ _____    ______ ____
ROOT
ATOM      1  C   LIG A   1      -7.748   0.251 124.042  0.00  0.00    +0.018 C 
ATOM      2  C   LIG A   1      -8.973   0.041 124.981  0.00  0.00    +0.012 C 
ATOM      3  C   LIG A   1      -8.678  -0.093 126.491  0.00  0.00    +0.030 C 
ATOM      4  C   LIG A   1      -7.547  -0.987 126.966  0.00  0.00    -0.076 C 
ATOM      5  C   LIG A   1      -7.540  -2.338 126.971  0.00  0.00    -0.027 C 
ATOM      6  C   LIG A   1      -8.593  -3.300 126.478  0.00  0.00    +0.031 C 
ATOM      7  C   LIG A   1      -8.159  -4.052 125.196  0.00  0.00    +0.034 C 
ATOM      8  C   LIG A   1      -8.314  -3.156 123.983  0.00  0.00    -0.076 C 
ATOM      9  C   LIG A   1      -7.381  -2.206 123.768  0.00  0.00    -0.027 C 
ATOM     10  C   LIG A   1      -7.570  -0.915 123.022  0.00  0.00    +0.035 C 
ATOM     11  C   LIG A   1      -9.627  -3.282 123.261  0.00  0.00    +0.038 C 
ATOM     12  C   LIG A   1      -6.362  -0.240 127.534  0.00  0.00    +0.038 C 
ENDROOT
BRANCH   1  13
ATOM     13  C   LIG A   1      -7.822   1.604 123.333  0.00  0.00    -0.076 C 
ATOM     14  C   LIG A   1      -6.710   2.318 123.086  0.00  0.00    +0.007 C 
ATOM     15  C   LIG A   1      -9.176   2.124 122.926  0.00  0.00    +0.038 C 
ENDBRANCH   1  13
TORSDOF 1
ENDMDL
MODEL 5
REMARK VINA RESULT:      -5.9      1.543      4.630
REMARK  Name = NuBBE_1495
REMARK  4 active torsions:
REMARK  status: ('A' for Active; 'I' for Inactive)
REMARK    1  A    between atoms: C_1  and  C_3
REMARK    2  A    between atoms: C_1  and  C_4
REMARK    3  A    between atoms: C_8  and  C_16
REMARK    4  A    between atoms: C_12  and  C_15
REMARK                            x       y       z     vdW  Elec       q    Type
REMARK                         _______ _______ _______ _____ _____    ______ ____
ROOT
ATOM      1  C   LIG A   1      -7.303   0.471 124.829  0.00  0.00    +0.018 C 
ATOM      2  C   LIG A   1      -6.507  -0.716 124.209  0.00  0.00    +0.012 C 
ATOM      3  C   LIG A   1      -7.218  -1.532 123.107  0.00  0.00    +0.030 C 
ATOM      4  C   LIG A   1      -8.661  -1.964 123.296  0.00  0.00    -0.076 C 
ATOM      5  C   LIG A   1      -9.106  -2.932 124.126  0.00  0.00    -0.027 C 
ATOM      6  C   LIG A   1      -8.330  -3.787 125.099  0.00  0.00    +0.031 C 
ATOM      7  C   LIG A   1      -8.629  -3.428 126.576  0.00  0.00    +0.034 C 
ATOM      8  C   LIG A   1      -7.877  -2.174 126.975  0.00  0.00    -0.076 C 
ATOM      9  C   LIG A   1      -8.359  -0.983 126.565  0.00  0.00    -0.027 C 
ATOM     10  C   LIG A   1      -7.573   0.280 126.353  0.00  0.00    +0.035 C 
ATOM     11  C   LIG A   1      -6.534  -2.410 127.609  0.00  0.00    +0.038 C 
ATOM     12  C   LIG A   1      -9.645  -1.250 122.398  0.00  0.00    +0.038 C 
ENDROOT
BRANCH   1  13
ATOM     13  C   LIG A   1      -6.609   1.806 124.550  0.00  0.00    -0.076 C 
ATOM     14  C   LIG A   1      -6.816   2.465 123.396  0.00  0.00    +0.007 C 
ATOM     15  C   LIG A   1      -5.680   2.360 125.597  0.00  0.00    +0.038 C 
ENDBRANCH   1  13
TORSDOF 1
ENDMDL
MODEL 6
REMARK VINA RESULT:      -5.9      3.160      5.448
REMARK  Name = NuBBE_1495
REMARK  4 active torsions:
REMARK  status: ('A' for Active; 'I' for Inactive)
REMARK    1  A    between atoms: C_1  and  C_3
REMARK    2  A    between atoms: C_1  and  C_4
REMARK    3  A    between atoms: C_8  and  C_16
REMARK    4  A    between atoms: C_12  and  C_15
REMARK                            x       y       z     vdW  Elec       q    Type
REMARK                         _______ _______ _______ _____ _____    ______ ____
ROOT
ATOM      1  C   LIG A   1      -6.102  -3.606 131.708  0.00  0.00    +0.018 C 
ATOM      2  C   LIG A   1      -5.569  -4.454 130.515  0.00  0.00    +0.012 C 
ATOM      3  C   LIG A   1      -4.306  -3.930 129.797  0.00  0.00    +0.030 C 
ATOM      4  C   LIG A   1      -4.197  -2.461 129.431  0.00  0.00    -0.076 C 
ATOM      5  C   LIG A   1      -4.868  -1.827 128.446  0.00  0.00    -0.027 C 
ATOM      6  C   LIG A   1      -5.914  -2.369 127.501  0.00  0.00    +0.031 C 
ATOM      7  C   LIG A   1      -7.329  -1.812 127.796  0.00  0.00    +0.034 C 
ATOM      8  C   LIG A   1      -7.937  -2.528 128.987  0.00  0.00    -0.076 C 
ATOM      9  C   LIG A   1      -7.519  -2.181 130.221  0.00  0.00    -0.027 C 
ATOM     10  C   LIG A   1      -7.535  -3.046 131.450  0.00  0.00    +0.035 C 
ATOM     11  C   LIG A   1      -8.794  -3.716 128.648  0.00  0.00    +0.038 C 
ATOM     12  C   LIG A   1      -3.178  -1.694 130.243  0.00  0.00    +0.038 C 
ENDROOT
BRANCH   1  13
ATOM     13  C   LIG A   1      -6.040  -4.394 133.017  0.00  0.00    -0.076 C 
ATOM     14  C   LIG A   1      -6.957  -4.207 133.983  0.00  0.00    +0.007 C 
ATOM     15  C   LIG A   1      -4.917  -5.381 133.203  0.00  0.00    +0.038 C 
ENDBRANCH   1  13
TORSDOF 1
ENDMDL
MODEL 7
REMARK VINA RESULT:      -5.9      2.879      6.266
REMARK  Name = NuBBE_1495
REMARK  4 active torsions:
REMARK  status: ('A' for Active; 'I' for Inactive)
REMARK    1  A    between atoms: C_1  and  C_3
REMARK    2  A    between atoms: C_1  and  C_4
REMARK    3  A    between atoms: C_8  and  C_16
REMARK    4  A    between atoms: C_12  and  C_15
REMARK                            x       y       z     vdW  Elec       q    Type
REMARK                         _______ _______ _______ _____ _____    ______ ____
ROOT
ATOM      1  C   LIG A   1      -7.189  -2.576 128.630  0.00  0.00    +0.018 C 
ATOM      2  C   LIG A   1      -7.043  -3.580 129.812  0.00  0.00    +0.012 C 
ATOM      3  C   LIG A   1      -7.387  -3.052 131.222  0.00  0.00    +0.030 C 
ATOM      4  C   LIG A   1      -6.867  -1.699 131.672  0.00  0.00    -0.076 C 
ATOM      5  C   LIG A   1      -5.592  -1.401 132.006  0.00  0.00    -0.027 C 
ATOM      6  C   LIG A   1      -4.366  -2.281 131.978  0.00  0.00    +0.031 C 
ATOM      7  C   LIG A   1      -3.372  -1.881 130.860  0.00  0.00    +0.034 C 
ATOM      8  C   LIG A   1      -3.856  -2.397 129.518  0.00  0.00    -0.076 C 
ATOM      9  C   LIG A   1      -4.852  -1.731 128.900  0.00  0.00    -0.027 C 
ATOM     10  C   LIG A   1      -5.833  -2.297 127.912  0.00  0.00    +0.035 C 
ATOM     11  C   LIG A   1      -3.313  -3.740 129.117  0.00  0.00    +0.038 C 
ATOM     12  C   LIG A   1      -7.932  -0.635 131.798  0.00  0.00    +0.038 C 
ENDROOT
BRANCH   1  13
ATOM     13  C   LIG A   1      -8.258  -3.039 127.640  0.00  0.00    -0.076 C 
ATOM     14  C   LIG A   1      -8.361  -2.482 126.420  0.00  0.00    +0.007 C 
ATOM     15  C   LIG A   1      -9.203  -4.131 128.068  0.00  0.00    +0.038 C 
ENDBRANCH   1  13
TORSDOF 1
ENDMDL
MODEL 8
REMARK VINA RESULT:      -5.9      1.920      4.515
REMARK  Name = NuBBE_1495
REMARK  4 active torsions:
REMARK  status: ('A' for Active; 'I' for Inactive)
REMARK    1  A    between atoms: C_1  and  C_3
REMARK    2  A    between atoms: C_1  and  C_4
REMARK    3  A    between atoms: C_8  and  C_16
REMARK    4  A    between atoms: C_12  and  C_15
REMARK                            x       y       z     vdW  Elec       q    Type
REMARK                         _______ _______ _______ _____ _____    ______ ____
ROOT
ATOM      1  C   LIG A   1      -8.620   0.246 124.073  0.00  0.00    +0.018 C 
ATOM      2  C   LIG A   1      -7.469  -0.323 123.192  0.00  0.00    +0.012 C 
ATOM      3  C   LIG A   1      -7.588  -1.800 122.756  0.00  0.00    +0.030 C 
ATOM      4  C   LIG A   1      -7.988  -2.858 123.768  0.00  0.00    -0.076 C 
ATOM      5  C   LIG A   1      -7.219  -3.344 124.767  0.00  0.00    -0.027 C 
ATOM      6  C   LIG A   1      -5.819  -2.949 125.174  0.00  0.00    +0.031 C 
ATOM      7  C   LIG A   1      -5.783  -2.195 126.526  0.00  0.00    +0.034 C 
ATOM      8  C   LIG A   1      -6.206  -0.751 126.333  0.00  0.00    -0.076 C 
ATOM      9  C   LIG A   1      -7.520  -0.485 126.196  0.00  0.00    -0.027 C 
ATOM     10  C   LIG A   1      -8.128   0.691 125.485  0.00  0.00    +0.035 C 
ATOM     11  C   LIG A   1      -5.080   0.217 126.095  0.00  0.00    +0.038 C 
ATOM     12  C   LIG A   1      -9.369  -3.432 123.553  0.00  0.00    +0.038 C 
ENDROOT
BRANCH   1  13
ATOM     13  C   LIG A   1      -9.356   1.379 123.357  0.00  0.00    -0.076 C 
ATOM     14  C   LIG A   1     -10.540   1.164 122.755  0.00  0.00    +0.007 C 
ATOM     15  C   LIG A   1      -8.717   2.742 123.332  0.00  0.00    +0.038 C 
ENDBRANCH   1  13
TORSDOF 1
ENDMDL
MODEL 9
REMARK VINA RESULT:      -5.9      1.659      3.951
REMARK  Name = NuBBE_1495
REMARK  4 active torsions:
REMARK  status: ('A' for Active; 'I' for Inactive)
REMARK    1  A    between atoms: C_1  and  C_3
REMARK    2  A    between atoms: C_1  and  C_4
REMARK    3  A    between atoms: C_8  and  C_16
REMARK    4  A    between atoms: C_12  and  C_15
REMARK                            x       y       z     vdW  Elec       q    Type
REMARK                         _______ _______ _______ _____ _____    ______ ____
ROOT
ATOM      1  C   LIG A   1      -8.112  -0.631 126.707  0.00  0.00    +0.018 C 
ATOM      2  C   LIG A   1      -7.116  -0.434 125.526  0.00  0.00    +0.012 C 
ATOM      3  C   LIG A   1      -7.559   0.517 124.392  0.00  0.00    +0.030 C 
ATOM      4  C   LIG A   1      -8.964   0.418 123.826  0.00  0.00    -0.076 C 
ATOM      5  C   LIG A   1      -9.440  -0.559 123.024  0.00  0.00    -0.027 C 
ATOM      6  C   LIG A   1      -8.750  -1.807 122.527  0.00  0.00    +0.031 C 
ATOM      7  C   LIG A   1      -9.314  -3.096 123.172  0.00  0.00    +0.034 C 
ATOM      8  C   LIG A   1      -8.761  -3.268 124.573  0.00  0.00    -0.076 C 
ATOM      9  C   LIG A   1      -9.286  -2.518 125.563  0.00  0.00    -0.027 C 
ATOM     10  C   LIG A   1      -8.602  -2.106 126.836  0.00  0.00    +0.035 C 
ATOM     11  C   LIG A   1      -7.520  -4.112 124.670  0.00  0.00    +0.038 C 
ATOM     12  C   LIG A   1      -9.857   1.586 124.178  0.00  0.00    +0.038 C 
ENDROOT
BRANCH   1  13
ATOM     13  C   LIG A   1      -7.516  -0.125 128.022  0.00  0.00    -0.076 C 
ATOM     14  C   LIG A   1      -7.105  -0.984 128.971  0.00  0.00    +0.007 C 
ATOM     15  C   LIG A   1      -7.411   1.363 128.232  0.00  0.00    +0.038 C 
ENDBRANCH   1  13
TORSDOF 1
ENDMDL
