MODEL 1
REMARK VINA RESULT:      -4.9      0.000      0.000
REMARK  Name = NuBBE_1298
REMARK  4 active torsions:
REMARK  status: ('A' for Active; 'I' for Inactive)
REMARK    1  A    between atoms: O_1  and  C_2
REMARK    2  A    between atoms: C_2  and  C_3
REMARK    3  A    between atoms: N_4  and  C_5
REMARK    4  A    between atoms: C_7  and  O_8
REMARK                            x       y       z     vdW  Elec       q    Type
REMARK                         _______ _______ _______ _____ _____    ______ ____
ROOT
ATOM      1  C   LIG A   1     -12.004   6.932 128.661  0.00  0.00    +0.168 C 
ATOM      2  N   LIG A   1     -11.199   5.825 129.255  0.00  0.00    -0.290 NA
ATOM      3  C   LIG A   1      -9.752   6.055 129.182  0.00  0.00    +0.105 C 
ATOM      4  C   LIG A   1     -11.641   5.788 130.663  0.00  0.00    +0.116 C 
ATOM      5  C   LIG A   1     -12.087   7.209 131.039  0.00  0.00    +0.131 C 
ATOM      6  C   LIG A   1     -12.068   8.005 129.741  0.00  0.00    +0.063 C 
ENDROOT
BRANCH   1   7
ATOM      7  C   LIG A   1     -11.474   7.442 127.328  0.00  0.00    +0.322 C 
ATOM      8  O   LIG A   1     -10.851   8.474 127.132  0.00  0.00    -0.249 OA
BRANCH   7   9
ATOM      9  O   LIG A   1     -11.733   6.601 126.303  0.00  0.00    -0.479 OA
ATOM     10  H   LIG A   1     -11.476   7.108 125.506  0.00  0.00    +0.295 HD
ENDBRANCH   7   9
ENDBRANCH   1   7
BRANCH   5  11
ATOM     11  O   LIG A   1     -13.400   7.212 131.593  0.00  0.00    -0.391 OA
ATOM     12  H   LIG A   1     -13.760   8.112 131.521  0.00  0.00    +0.210 HD
ENDBRANCH   5  11
TORSDOF 3
ENDMDL
MODEL 2
REMARK VINA RESULT:      -4.9      1.685      2.345
REMARK  Name = NuBBE_1298
REMARK  4 active torsions:
REMARK  status: ('A' for Active; 'I' for Inactive)
REMARK    1  A    between atoms: O_1  and  C_2
REMARK    2  A    between atoms: C_2  and  C_3
REMARK    3  A    between atoms: N_4  and  C_5
REMARK    4  A    between atoms: C_7  and  O_8
REMARK                            x       y       z     vdW  Elec       q    Type
REMARK                         _______ _______ _______ _____ _____    ______ ____
ROOT
ATOM      1  C   LIG A   1     -10.849   7.554 129.726  0.00  0.00    +0.168 C 
ATOM      2  N   LIG A   1     -12.316   7.646 129.981  0.00  0.00    -0.290 NA
ATOM      3  C   LIG A   1     -13.117   6.822 129.068  0.00  0.00    +0.105 C 
ATOM      4  C   LIG A   1     -12.461   7.161 131.367  0.00  0.00    +0.116 C 
ATOM      5  C   LIG A   1     -11.312   6.175 131.628  0.00  0.00    +0.131 C 
ATOM      6  C   LIG A   1     -10.402   6.269 130.411  0.00  0.00    +0.063 C 
ENDROOT
BRANCH   1   7
ATOM      7  C   LIG A   1     -10.467   7.623 128.253  0.00  0.00    +0.322 C 
ATOM      8  O   LIG A   1     -10.028   6.713 127.566  0.00  0.00    -0.249 OA
BRANCH   7   9
ATOM      9  O   LIG A   1     -10.688   8.838 127.708  0.00  0.00    -0.479 OA
ATOM     10  H   LIG A   1      -9.949   8.957 127.078  0.00  0.00    +0.295 HD
ENDBRANCH   7   9
ENDBRANCH   1   7
BRANCH   5  11
ATOM     11  O   LIG A   1     -10.588   6.521 132.806  0.00  0.00    -0.391 OA
ATOM     12  H   LIG A   1     -11.187   6.436 133.568  0.00  0.00    +0.210 HD
ENDBRANCH   5  11
TORSDOF 3
ENDMDL
MODEL 3
REMARK VINA RESULT:      -4.9      1.632      3.919
REMARK  Name = NuBBE_1298
REMARK  4 active torsions:
REMARK  status: ('A' for Active; 'I' for Inactive)
REMARK    1  A    between atoms: O_1  and  C_2
REMARK    2  A    between atoms: C_2  and  C_3
REMARK    3  A    between atoms: N_4  and  C_5
REMARK    4  A    between atoms: C_7  and  O_8
REMARK                            x       y       z     vdW  Elec       q    Type
REMARK                         _______ _______ _______ _____ _____    ______ ____
ROOT
ATOM      1  C   LIG A   1     -11.776   6.628 129.527  0.00  0.00    +0.168 C 
ATOM      2  N   LIG A   1     -12.922   7.565 129.338  0.00  0.00    -0.290 NA
ATOM      3  C   LIG A   1     -12.727   8.861 129.998  0.00  0.00    +0.105 C 
ATOM      4  C   LIG A   1     -12.992   7.741 127.875  0.00  0.00    +0.116 C 
ATOM      5  C   LIG A   1     -11.572   7.542 127.322  0.00  0.00    +0.131 C 
ATOM      6  C   LIG A   1     -10.736   7.054 128.497  0.00  0.00    +0.063 C 
ENDROOT
BRANCH   1   7
ATOM      7  C   LIG A   1     -11.237   6.580 130.950  0.00  0.00    +0.322 C 
ATOM      8  O   LIG A   1     -10.137   6.948 131.331  0.00  0.00    -0.249 OA
BRANCH   7   9
ATOM      9  O   LIG A   1     -12.134   6.093 131.835  0.00  0.00    -0.479 OA
ATOM     10  H   LIG A   1     -12.194   6.788 132.522  0.00  0.00    +0.295 HD
ENDBRANCH   7   9
ENDBRANCH   1   7
BRANCH   5  11
ATOM     11  O   LIG A   1     -11.553   6.575 126.275  0.00  0.00    -0.391 OA
ATOM     12  H   LIG A   1     -12.413   6.120 126.264  0.00  0.00    +0.210 HD
ENDBRANCH   5  11
TORSDOF 3
ENDMDL
MODEL 4
REMARK VINA RESULT:      -4.3     10.682     12.119
REMARK  Name = NuBBE_1298
REMARK  4 active torsions:
REMARK  status: ('A' for Active; 'I' for Inactive)
REMARK    1  A    between atoms: O_1  and  C_2
REMARK    2  A    between atoms: C_2  and  C_3
REMARK    3  A    between atoms: N_4  and  C_5
REMARK    4  A    between atoms: C_7  and  O_8
REMARK                            x       y       z     vdW  Elec       q    Type
REMARK                         _______ _______ _______ _____ _____    ______ ____
ROOT
ATOM      1  C   LIG A   1      -7.972  -3.064 123.637  0.00  0.00    +0.168 C 
ATOM      2  N   LIG A   1      -7.770  -1.885 122.747  0.00  0.00    -0.290 NA
ATOM      3  C   LIG A   1      -8.315  -0.640 123.300  0.00  0.00    +0.105 C 
ATOM      4  C   LIG A   1      -6.302  -1.789 122.621  0.00  0.00    +0.116 C 
ATOM      5  C   LIG A   1      -5.695  -2.371 123.906  0.00  0.00    +0.131 C 
ATOM      6  C   LIG A   1      -6.860  -2.978 124.676  0.00  0.00    +0.063 C 
ENDROOT
BRANCH   1   7
ATOM      7  C   LIG A   1      -9.365  -3.156 124.244  0.00  0.00    +0.322 C 
ATOM      8  O   LIG A   1      -9.686  -2.878 125.389  0.00  0.00    -0.249 OA
BRANCH   7   9
ATOM      9  O   LIG A   1     -10.298  -3.569 123.360  0.00  0.00    -0.479 OA
ATOM     10  H   LIG A   1      -9.778  -3.943 122.620  0.00  0.00    +0.295 HD
ENDBRANCH   7   9
ENDBRANCH   1   7
BRANCH   5  11
ATOM     11  O   LIG A   1      -4.727  -3.376 123.614  0.00  0.00    -0.391 OA
ATOM     12  H   LIG A   1      -4.203  -3.538 124.418  0.00  0.00    +0.210 HD
ENDBRANCH   5  11
TORSDOF 3
ENDMDL
MODEL 5
REMARK VINA RESULT:      -4.2      2.195      2.807
REMARK  Name = NuBBE_1298
REMARK  4 active torsions:
REMARK  status: ('A' for Active; 'I' for Inactive)
REMARK    1  A    between atoms: O_1  and  C_2
REMARK    2  A    between atoms: C_2  and  C_3
REMARK    3  A    between atoms: N_4  and  C_5
REMARK    4  A    between atoms: C_7  and  O_8
REMARK                            x       y       z     vdW  Elec       q    Type
REMARK                         _______ _______ _______ _____ _____    ______ ____
ROOT
ATOM      1  C   LIG A   1     -10.424   6.693 130.241  0.00  0.00    +0.168 C 
ATOM      2  N   LIG A   1     -10.694   7.855 129.345  0.00  0.00    -0.290 NA
ATOM      3  C   LIG A   1     -10.672   7.506 127.920  0.00  0.00    +0.105 C 
ATOM      4  C   LIG A   1     -12.046   8.296 129.742  0.00  0.00    +0.116 C 
ATOM      5  C   LIG A   1     -12.791   7.062 130.274  0.00  0.00    +0.131 C 
ATOM      6  C   LIG A   1     -11.752   5.952 130.348  0.00  0.00    +0.063 C 
ENDROOT
BRANCH   1   7
ATOM      7  C   LIG A   1      -9.270   5.810 129.787  0.00  0.00    +0.322 C 
ATOM      8  O   LIG A   1      -8.083   6.100 129.782  0.00  0.00    -0.249 OA
BRANCH   7   9
ATOM      9  O   LIG A   1      -9.671   4.584 129.387  0.00  0.00    -0.479 OA
ATOM     10  H   LIG A   1      -8.837   4.107 129.202  0.00  0.00    +0.295 HD
ENDBRANCH   7   9
ENDBRANCH   1   7
BRANCH   5  11
ATOM     11  O   LIG A   1     -13.339   7.304 131.567  0.00  0.00    -0.391 OA
ATOM     12  H   LIG A   1     -13.211   8.244 131.782  0.00  0.00    +0.210 HD
ENDBRANCH   5  11
TORSDOF 3
ENDMDL
MODEL 6
REMARK VINA RESULT:      -4.1      2.277      2.872
REMARK  Name = NuBBE_1298
REMARK  4 active torsions:
REMARK  status: ('A' for Active; 'I' for Inactive)
REMARK    1  A    between atoms: O_1  and  C_2
REMARK    2  A    between atoms: C_2  and  C_3
REMARK    3  A    between atoms: N_4  and  C_5
REMARK    4  A    between atoms: C_7  and  O_8
REMARK                            x       y       z     vdW  Elec       q    Type
REMARK                         _______ _______ _______ _____ _____    ______ ____
ROOT
ATOM      1  C   LIG A   1     -10.989   6.459 129.414  0.00  0.00    +0.168 C 
ATOM      2  N   LIG A   1     -11.916   6.250 130.564  0.00  0.00    -0.290 NA
ATOM      3  C   LIG A   1     -11.262   6.398 131.870  0.00  0.00    +0.105 C 
ATOM      4  C   LIG A   1     -12.939   7.298 130.384  0.00  0.00    +0.116 C 
ATOM      5  C   LIG A   1     -12.269   8.470 129.651  0.00  0.00    +0.131 C 
ATOM      6  C   LIG A   1     -10.888   7.970 129.250  0.00  0.00    +0.063 C 
ENDROOT
BRANCH   1   7
ATOM      7  C   LIG A   1      -9.639   5.772 129.567  0.00  0.00    +0.322 C 
ATOM      8  O   LIG A   1      -8.562   6.309 129.772  0.00  0.00    -0.249 OA
BRANCH   7   9
ATOM      9  O   LIG A   1      -9.722   4.426 129.484  0.00  0.00    -0.479 OA
ATOM     10  H   LIG A   1     -10.520   4.268 128.941  0.00  0.00    +0.295 HD
ENDBRANCH   7   9
ENDBRANCH   1   7
BRANCH   5  11
ATOM     11  O   LIG A   1     -13.007   8.847 128.492  0.00  0.00    -0.391 OA
ATOM     12  H   LIG A   1     -13.691   9.485 128.760  0.00  0.00    +0.210 HD
ENDBRANCH   5  11
TORSDOF 3
ENDMDL
MODEL 7
REMARK VINA RESULT:      -3.8      2.533      3.020
REMARK  Name = NuBBE_1298
REMARK  4 active torsions:
REMARK  status: ('A' for Active; 'I' for Inactive)
REMARK    1  A    between atoms: O_1  and  C_2
REMARK    2  A    between atoms: C_2  and  C_3
REMARK    3  A    between atoms: N_4  and  C_5
REMARK    4  A    between atoms: C_7  and  O_8
REMARK                            x       y       z     vdW  Elec       q    Type
REMARK                         _______ _______ _______ _____ _____    ______ ____
ROOT
ATOM      1  C   LIG A   1     -10.343   6.098 130.440  0.00  0.00    +0.168 C 
ATOM      2  N   LIG A   1      -9.945   4.661 130.476  0.00  0.00    -0.290 NA
ATOM      3  C   LIG A   1      -8.936   4.312 129.469  0.00  0.00    +0.105 C 
ATOM      4  C   LIG A   1      -9.394   4.485 131.834  0.00  0.00    +0.116 C 
ATOM      5  C   LIG A   1      -8.827   5.842 132.276  0.00  0.00    +0.131 C 
ATOM      6  C   LIG A   1      -9.251   6.836 131.204  0.00  0.00    +0.063 C 
ENDROOT
BRANCH   1   7
ATOM      7  C   LIG A   1     -10.581   6.644 129.038  0.00  0.00    +0.322 C 
ATOM      8  O   LIG A   1     -11.440   6.286 128.248  0.00  0.00    -0.249 OA
BRANCH   7   9
ATOM      9  O   LIG A   1      -9.734   7.645 128.713  0.00  0.00    -0.479 OA
ATOM     10  H   LIG A   1     -10.027   7.929 127.824  0.00  0.00    +0.295 HD
ENDBRANCH   7   9
ENDBRANCH   1   7
BRANCH   5  11
ATOM     11  O   LIG A   1      -9.350   6.237 133.541  0.00  0.00    -0.391 OA
ATOM     12  H   LIG A   1      -8.727   6.864 133.947  0.00  0.00    +0.210 HD
ENDBRANCH   5  11
TORSDOF 3
ENDMDL
MODEL 8
REMARK VINA RESULT:      -3.8      7.893      8.728
REMARK  Name = NuBBE_1298
REMARK  4 active torsions:
REMARK  status: ('A' for Active; 'I' for Inactive)
REMARK    1  A    between atoms: O_1  and  C_2
REMARK    2  A    between atoms: C_2  and  C_3
REMARK    3  A    between atoms: N_4  and  C_5
REMARK    4  A    between atoms: C_7  and  O_8
REMARK                            x       y       z     vdW  Elec       q    Type
REMARK                         _______ _______ _______ _____ _____    ______ ____
ROOT
ATOM      1  C   LIG A   1      -9.204   1.917 123.725  0.00  0.00    +0.168 C 
ATOM      2  N   LIG A   1      -8.159   1.057 124.351  0.00  0.00    -0.290 NA
ATOM      3  C   LIG A   1      -7.963  -0.220 123.653  0.00  0.00    +0.105 C 
ATOM      4  C   LIG A   1      -6.935   1.878 124.267  0.00  0.00    +0.116 C 
ATOM      5  C   LIG A   1      -7.083   2.795 123.043  0.00  0.00    +0.131 C 
ATOM      6  C   LIG A   1      -8.512   2.603 122.554  0.00  0.00    +0.063 C 
ENDROOT
BRANCH   1   7
ATOM      7  C   LIG A   1     -10.471   1.170 123.329  0.00  0.00    +0.322 C 
ATOM      8  O   LIG A   1     -10.628   0.461 122.347  0.00  0.00    -0.249 OA
BRANCH   7   9
ATOM      9  O   LIG A   1     -11.477   1.333 124.216  0.00  0.00    -0.479 OA
ATOM     10  H   LIG A   1     -11.425   0.540 124.786  0.00  0.00    +0.295 HD
ENDBRANCH   7   9
ENDBRANCH   1   7
BRANCH   5  11
ATOM     11  O   LIG A   1      -6.863   4.160 123.388  0.00  0.00    -0.391 OA
ATOM     12  H   LIG A   1      -6.739   4.666 122.567  0.00  0.00    +0.210 HD
ENDBRANCH   5  11
TORSDOF 3
ENDMDL
MODEL 9
REMARK VINA RESULT:      -3.8      3.126      4.562
REMARK  Name = NuBBE_1298
REMARK  4 active torsions:
REMARK  status: ('A' for Active; 'I' for Inactive)
REMARK    1  A    between atoms: O_1  and  C_2
REMARK    2  A    between atoms: C_2  and  C_3
REMARK    3  A    between atoms: N_4  and  C_5
REMARK    4  A    between atoms: C_7  and  O_8
REMARK                            x       y       z     vdW  Elec       q    Type
REMARK                         _______ _______ _______ _____ _____    ______ ____
ROOT
ATOM      1  C   LIG A   1      -9.839   6.292 131.315  0.00  0.00    +0.168 C 
ATOM      2  N   LIG A   1      -9.233   5.679 132.532  0.00  0.00    -0.290 NA
ATOM      3  C   LIG A   1      -9.384   4.220 132.584  0.00  0.00    +0.105 C 
ATOM      4  C   LIG A   1      -7.806   6.042 132.433  0.00  0.00    +0.116 C 
ATOM      5  C   LIG A   1      -7.476   6.192 130.940  0.00  0.00    +0.131 C 
ATOM      6  C   LIG A   1      -8.808   6.094 130.210  0.00  0.00    +0.063 C 
ENDROOT
BRANCH   1   7
ATOM      7  C   LIG A   1     -11.218   5.749 130.963  0.00  0.00    +0.322 C 
ATOM      8  O   LIG A   1     -11.508   5.047 130.007  0.00  0.00    -0.249 OA
BRANCH   7   9
ATOM      9  O   LIG A   1     -12.164   6.098 131.862  0.00  0.00    -0.479 OA
ATOM     10  H   LIG A   1     -13.008   5.859 131.426  0.00  0.00    +0.295 HD
ENDBRANCH   7   9
ENDBRANCH   1   7
BRANCH   5  11
ATOM     11  O   LIG A   1      -6.861   7.448 130.668  0.00  0.00    -0.391 OA
ATOM     12  H   LIG A   1      -5.970   7.443 131.059  0.00  0.00    +0.210 HD
ENDBRANCH   5  11
TORSDOF 3
ENDMDL
