MODEL 1
REMARK VINA RESULT:      -8.0      0.000      0.000
REMARK  Name = NuBBE_1318
REMARK  3 active torsions:
REMARK  status: ('A' for Active; 'I' for Inactive)
REMARK    1  A    between atoms: C_4  and  C_5
REMARK    2  A    between atoms: C_8  and  O_9
REMARK    3  A    between atoms: O_9  and  C_10
REMARK                            x       y       z     vdW  Elec       q    Type
REMARK                         _______ _______ _______ _____ _____    ______ ____
ROOT
ATOM      1  O   LIG A   1      -8.508   2.696 126.998  0.00  0.00    -0.287 OA
ATOM      2  C   LIG A   1      -8.258   2.110 125.954  0.00  0.00    +0.193 A 
ATOM      3  C   LIG A   1      -8.068   2.852 124.698  0.00  0.00    +0.098 A 
ATOM      4  C   LIG A   1      -7.809   2.184 123.564  0.00  0.00    +0.139 A 
ATOM      5  O   LIG A   1      -7.688   0.803 123.495  0.00  0.00    -0.454 OA
ATOM      6  C   LIG A   1      -8.129   0.647 125.884  0.00  0.00    +0.065 A 
ATOM      7  C   LIG A   1      -7.845   0.063 124.643  0.00  0.00    +0.150 A 
ATOM      8  C   LIG A   1      -7.717  -1.338 124.579  0.00  0.00    +0.063 A 
ATOM      9  C   LIG A   1      -7.444  -2.293 123.560  0.00  0.00    +0.053 A 
ATOM     10  C   LIG A   1      -7.463  -3.528 124.168  0.00  0.00    +0.196 A 
ATOM     11  O   LIG A   1      -7.726  -3.403 125.496  0.00  0.00    -0.463 OA
ATOM     12  C   LIG A   1      -7.881  -2.074 125.748  0.00  0.00    +0.138 A 
ATOM     13  C   LIG A   1      -8.165  -1.519 126.994  0.00  0.00    +0.048 A 
ATOM     14  C   LIG A   1      -8.287  -0.127 127.042  0.00  0.00    +0.019 A 
ENDROOT
BRANCH   4  15
ATOM     15  C   LIG A   1      -7.597   2.875 122.271  0.00  0.00    +0.018 A 
ATOM     16  C   LIG A   1      -6.317   3.174 121.782  0.00  0.00    +0.015 A 
ATOM     17  C   LIG A   1      -6.152   3.841 120.561  0.00  0.00    +0.046 A 
ATOM     18  C   LIG A   1      -7.257   4.235 119.806  0.00  0.00    +0.120 A 
ATOM     19  C   LIG A   1      -8.535   3.952 120.283  0.00  0.00    +0.046 A 
ATOM     20  C   LIG A   1      -8.700   3.282 121.503  0.00  0.00    +0.015 A 
BRANCH  18  21
ATOM     21  O   LIG A   1      -6.957   4.883 118.641  0.00  0.00    -0.495 OA
ATOM     22  C   LIG A   1      -5.843   5.767 118.668  0.00  0.00    +0.277 C 
ENDBRANCH  18  21
ENDBRANCH   4  15
TORSDOF 2
ENDMDL
MODEL 2
REMARK VINA RESULT:      -7.8      2.355      4.097
REMARK  Name = NuBBE_1318
REMARK  3 active torsions:
REMARK  status: ('A' for Active; 'I' for Inactive)
REMARK    1  A    between atoms: C_4  and  C_5
REMARK    2  A    between atoms: C_8  and  O_9
REMARK    3  A    between atoms: O_9  and  C_10
REMARK                            x       y       z     vdW  Elec       q    Type
REMARK                         _______ _______ _______ _____ _____    ______ ____
ROOT
ATOM      1  O   LIG A   1      -9.644  -2.869 124.080  0.00  0.00    -0.287 OA
ATOM      2  C   LIG A   1      -8.966  -2.119 124.767  0.00  0.00    +0.193 A 
ATOM      3  C   LIG A   1      -8.413  -0.875 124.209  0.00  0.00    +0.098 A 
ATOM      4  C   LIG A   1      -7.662  -0.077 124.981  0.00  0.00    +0.139 A 
ATOM      5  O   LIG A   1      -7.374  -0.343 126.313  0.00  0.00    -0.454 OA
ATOM      6  C   LIG A   1      -8.665  -2.402 126.179  0.00  0.00    +0.065 A 
ATOM      7  C   LIG A   1      -7.876  -1.486 126.887  0.00  0.00    +0.150 A 
ATOM      8  C   LIG A   1      -7.592  -1.757 128.239  0.00  0.00    +0.063 A 
ATOM      9  C   LIG A   1      -6.861  -1.116 129.278  0.00  0.00    +0.053 A 
ATOM     10  C   LIG A   1      -6.975  -1.920 130.389  0.00  0.00    +0.196 A 
ATOM     11  O   LIG A   1      -7.729  -3.016 130.111  0.00  0.00    -0.463 OA
ATOM     12  C   LIG A   1      -8.105  -2.920 128.806  0.00  0.00    +0.138 A 
ATOM     13  C   LIG A   1      -8.890  -3.847 128.124  0.00  0.00    +0.048 A 
ATOM     14  C   LIG A   1      -9.165  -3.564 126.783  0.00  0.00    +0.019 A 
ENDROOT
BRANCH   4  15
ATOM     15  C   LIG A   1      -7.086   1.193 124.480  0.00  0.00    +0.018 A 
ATOM     16  C   LIG A   1      -7.242   1.613 123.151  0.00  0.00    +0.015 A 
ATOM     17  C   LIG A   1      -6.673   2.814 122.706  0.00  0.00    +0.046 A 
ATOM     18  C   LIG A   1      -5.928   3.615 123.570  0.00  0.00    +0.120 A 
ATOM     19  C   LIG A   1      -5.759   3.208 124.890  0.00  0.00    +0.046 A 
ATOM     20  C   LIG A   1      -6.330   2.009 125.338  0.00  0.00    +0.015 A 
BRANCH  18  21
ATOM     21  O   LIG A   1      -5.424   4.753 123.007  0.00  0.00    -0.495 OA
ATOM     22  C   LIG A   1      -4.826   4.623 121.723  0.00  0.00    +0.277 C 
ENDBRANCH  18  21
ENDBRANCH   4  15
TORSDOF 2
ENDMDL
MODEL 3
REMARK VINA RESULT:      -7.6      9.191     10.474
REMARK  Name = NuBBE_1318
REMARK  3 active torsions:
REMARK  status: ('A' for Active; 'I' for Inactive)
REMARK    1  A    between atoms: C_4  and  C_5
REMARK    2  A    between atoms: C_8  and  O_9
REMARK    3  A    between atoms: O_9  and  C_10
REMARK                            x       y       z     vdW  Elec       q    Type
REMARK                         _______ _______ _______ _____ _____    ______ ____
ROOT
ATOM      1  O   LIG A   1      -9.755   5.124 133.642  0.00  0.00    -0.287 OA
ATOM      2  C   LIG A   1      -9.310   5.674 132.644  0.00  0.00    +0.193 A 
ATOM      3  C   LIG A   1      -7.863   5.698 132.376  0.00  0.00    +0.098 A 
ATOM      4  C   LIG A   1      -7.401   6.320 131.282  0.00  0.00    +0.139 A 
ATOM      5  O   LIG A   1      -8.217   6.947 130.350  0.00  0.00    -0.454 OA
ATOM      6  C   LIG A   1     -10.177   6.336 131.658  0.00  0.00    +0.065 A 
ATOM      7  C   LIG A   1      -9.577   6.943 130.547  0.00  0.00    +0.150 A 
ATOM      8  C   LIG A   1     -10.410   7.573 129.602  0.00  0.00    +0.063 A 
ATOM      9  C   LIG A   1     -10.218   8.279 128.381  0.00  0.00    +0.053 A 
ATOM     10  C   LIG A   1     -11.468   8.648 127.943  0.00  0.00    +0.196 A 
ATOM     11  O   LIG A   1     -12.425   8.217 128.807  0.00  0.00    -0.463 OA
ATOM     12  C   LIG A   1     -11.784   7.564 129.815  0.00  0.00    +0.138 A 
ATOM     13  C   LIG A   1     -12.406   6.968 130.912  0.00  0.00    +0.048 A 
ATOM     14  C   LIG A   1     -11.567   6.346 131.841  0.00  0.00    +0.019 A 
ENDROOT
BRANCH   4  15
ATOM     15  C   LIG A   1      -5.958   6.369 130.952  0.00  0.00    +0.018 A 
ATOM     16  C   LIG A   1      -5.148   5.223 130.960  0.00  0.00    +0.015 A 
ATOM     17  C   LIG A   1      -3.783   5.306 130.656  0.00  0.00    +0.046 A 
ATOM     18  C   LIG A   1      -3.192   6.532 130.349  0.00  0.00    +0.120 A 
ATOM     19  C   LIG A   1      -3.982   7.679 130.344  0.00  0.00    +0.046 A 
ATOM     20  C   LIG A   1      -5.348   7.596 130.645  0.00  0.00    +0.015 A 
BRANCH  18  21
ATOM     21  O   LIG A   1      -1.854   6.474 130.080  0.00  0.00    -0.495 OA
ATOM     22  C   LIG A   1      -0.974   6.487 131.197  0.00  0.00    +0.277 C 
ENDBRANCH  18  21
ENDBRANCH   4  15
TORSDOF 2
ENDMDL
MODEL 4
REMARK VINA RESULT:      -7.4      3.000      8.218
REMARK  Name = NuBBE_1318
REMARK  3 active torsions:
REMARK  status: ('A' for Active; 'I' for Inactive)
REMARK    1  A    between atoms: C_4  and  C_5
REMARK    2  A    between atoms: C_8  and  O_9
REMARK    3  A    between atoms: O_9  and  C_10
REMARK                            x       y       z     vdW  Elec       q    Type
REMARK                         _______ _______ _______ _____ _____    ______ ____
ROOT
ATOM      1  O   LIG A   1      -9.802  -3.174 123.328  0.00  0.00    -0.287 OA
ATOM      2  C   LIG A   1      -9.235  -2.407 124.094  0.00  0.00    +0.193 A 
ATOM      3  C   LIG A   1      -8.577  -2.904 125.312  0.00  0.00    +0.098 A 
ATOM      4  C   LIG A   1      -7.975  -2.040 126.142  0.00  0.00    +0.139 A 
ATOM      5  O   LIG A   1      -7.914  -0.671 125.916  0.00  0.00    -0.454 OA
ATOM      6  C   LIG A   1      -9.170  -0.958 123.850  0.00  0.00    +0.065 A 
ATOM      7  C   LIG A   1      -8.503  -0.157 124.786  0.00  0.00    +0.150 A 
ATOM      8  C   LIG A   1      -8.438   1.230 124.549  0.00  0.00    +0.063 A 
ATOM      9  C   LIG A   1      -7.879   2.355 125.217  0.00  0.00    +0.053 A 
ATOM     10  C   LIG A   1      -8.177   3.455 124.445  0.00  0.00    +0.196 A 
ATOM     11  O   LIG A   1      -8.880   3.088 123.341  0.00  0.00    -0.463 OA
ATOM     12  C   LIG A   1      -9.040   1.738 123.402  0.00  0.00    +0.138 A 
ATOM     13  C   LIG A   1      -9.712   0.963 122.458  0.00  0.00    +0.048 A 
ATOM     14  C   LIG A   1      -9.766  -0.412 122.706  0.00  0.00    +0.019 A 
ENDROOT
BRANCH   4  15
ATOM     15  C   LIG A   1      -7.287  -2.480 127.378  0.00  0.00    +0.018 A 
ATOM     16  C   LIG A   1      -7.968  -3.110 128.430  0.00  0.00    +0.015 A 
ATOM     17  C   LIG A   1      -7.289  -3.502 129.591  0.00  0.00    +0.046 A 
ATOM     18  C   LIG A   1      -5.922  -3.265 129.736  0.00  0.00    +0.120 A 
ATOM     19  C   LIG A   1      -5.235  -2.634 128.702  0.00  0.00    +0.046 A 
ATOM     20  C   LIG A   1      -5.912  -2.244 127.539  0.00  0.00    +0.015 A 
BRANCH  18  21
ATOM     21  O   LIG A   1      -5.386  -3.690 130.918  0.00  0.00    -0.495 OA
ATOM     22  C   LIG A   1      -5.456  -5.084 131.190  0.00  0.00    +0.277 C 
ENDBRANCH  18  21
ENDBRANCH   4  15
TORSDOF 2
ENDMDL
MODEL 5
REMARK VINA RESULT:      -7.4      6.662      9.065
REMARK  Name = NuBBE_1318
REMARK  3 active torsions:
REMARK  status: ('A' for Active; 'I' for Inactive)
REMARK    1  A    between atoms: C_4  and  C_5
REMARK    2  A    between atoms: C_8  and  O_9
REMARK    3  A    between atoms: O_9  and  C_10
REMARK                            x       y       z     vdW  Elec       q    Type
REMARK                         _______ _______ _______ _____ _____    ______ ____
ROOT
ATOM      1  O   LIG A   1      -8.742   4.206 134.585  0.00  0.00    -0.287 OA
ATOM      2  C   LIG A   1      -9.003   4.234 133.390  0.00  0.00    +0.193 A 
ATOM      3  C   LIG A   1      -9.762   5.352 132.809  0.00  0.00    +0.098 A 
ATOM      4  C   LIG A   1     -10.046   5.351 131.499  0.00  0.00    +0.139 A 
ATOM      5  O   LIG A   1      -9.649   4.348 130.625  0.00  0.00    -0.454 OA
ATOM      6  C   LIG A   1      -8.578   3.171 132.467  0.00  0.00    +0.065 A 
ATOM      7  C   LIG A   1      -8.927   3.287 131.116  0.00  0.00    +0.150 A 
ATOM      8  C   LIG A   1      -8.516   2.270 130.232  0.00  0.00    +0.063 A 
ATOM      9  C   LIG A   1      -8.652   2.009 128.840  0.00  0.00    +0.053 A 
ATOM     10  C   LIG A   1      -8.010   0.816 128.602  0.00  0.00    +0.196 A 
ATOM     11  O   LIG A   1      -7.482   0.319 129.751  0.00  0.00    -0.463 OA
ATOM     12  C   LIG A   1      -7.788   1.200 130.743  0.00  0.00    +0.138 A 
ATOM     13  C   LIG A   1      -7.430   1.060 132.082  0.00  0.00    +0.048 A 
ATOM     14  C   LIG A   1      -7.843   2.078 132.947  0.00  0.00    +0.019 A 
ENDROOT
BRANCH   4  15
ATOM     15  C   LIG A   1     -10.798   6.453 130.853  0.00  0.00    +0.018 A 
ATOM     16  C   LIG A   1     -12.065   6.857 131.298  0.00  0.00    +0.015 A 
ATOM     17  C   LIG A   1     -12.755   7.894 130.656  0.00  0.00    +0.046 A 
ATOM     18  C   LIG A   1     -12.204   8.543 129.552  0.00  0.00    +0.120 A 
ATOM     19  C   LIG A   1     -10.949   8.148 129.094  0.00  0.00    +0.046 A 
ATOM     20  C   LIG A   1     -10.257   7.113 129.737  0.00  0.00    +0.015 A 
BRANCH  18  21
ATOM     21  O   LIG A   1     -12.983   9.529 129.016  0.00  0.00    -0.495 OA
ATOM     22  C   LIG A   1     -13.368  10.586 129.886  0.00  0.00    +0.277 C 
ENDBRANCH  18  21
ENDBRANCH   4  15
TORSDOF 2
ENDMDL
MODEL 6
REMARK VINA RESULT:      -7.3      4.627      8.595
REMARK  Name = NuBBE_1318
REMARK  3 active torsions:
REMARK  status: ('A' for Active; 'I' for Inactive)
REMARK    1  A    between atoms: C_4  and  C_5
REMARK    2  A    between atoms: C_8  and  O_9
REMARK    3  A    between atoms: O_9  and  C_10
REMARK                            x       y       z     vdW  Elec       q    Type
REMARK                         _______ _______ _______ _____ _____    ______ ____
ROOT
ATOM      1  O   LIG A   1      -9.949  -4.230 128.078  0.00  0.00    -0.287 OA
ATOM      2  C   LIG A   1      -8.887  -3.698 127.786  0.00  0.00    +0.193 A 
ATOM      3  C   LIG A   1      -7.857  -3.459 128.808  0.00  0.00    +0.098 A 
ATOM      4  C   LIG A   1      -6.707  -2.861 128.464  0.00  0.00    +0.139 A 
ATOM      5  O   LIG A   1      -6.406  -2.457 127.171  0.00  0.00    -0.454 OA
ATOM      6  C   LIG A   1      -8.571  -3.273 126.414  0.00  0.00    +0.065 A 
ATOM      7  C   LIG A   1      -7.330  -2.668 126.176  0.00  0.00    +0.150 A 
ATOM      8  C   LIG A   1      -7.027  -2.266 124.861  0.00  0.00    +0.063 A 
ATOM      9  C   LIG A   1      -5.926  -1.641 124.212  0.00  0.00    +0.053 A 
ATOM     10  C   LIG A   1      -6.271  -1.521 122.885  0.00  0.00    +0.196 A 
ATOM     11  O   LIG A   1      -7.512  -2.031 122.666  0.00  0.00    -0.463 OA
ATOM     12  C   LIG A   1      -7.973  -2.484 123.864  0.00  0.00    +0.138 A 
ATOM     13  C   LIG A   1      -9.215  -3.081 124.075  0.00  0.00    +0.048 A 
ATOM     14  C   LIG A   1      -9.500  -3.477 125.385  0.00  0.00    +0.019 A 
ENDROOT
BRANCH   4  15
ATOM     15  C   LIG A   1      -5.627  -2.602 129.445  0.00  0.00    +0.018 A 
ATOM     16  C   LIG A   1      -4.271  -2.597 129.083  0.00  0.00    +0.015 A 
ATOM     17  C   LIG A   1      -3.274  -2.361 130.039  0.00  0.00    +0.046 A 
ATOM     18  C   LIG A   1      -3.603  -2.138 131.376  0.00  0.00    +0.120 A 
ATOM     19  C   LIG A   1      -4.944  -2.148 131.751  0.00  0.00    +0.046 A 
ATOM     20  C   LIG A   1      -5.943  -2.380 130.795  0.00  0.00    +0.015 A 
BRANCH  18  21
ATOM     21  O   LIG A   1      -2.537  -1.930 132.204  0.00  0.00    -0.495 OA
ATOM     22  C   LIG A   1      -2.690  -0.936 133.210  0.00  0.00    +0.277 C 
ENDBRANCH  18  21
ENDBRANCH   4  15
TORSDOF 2
ENDMDL
MODEL 7
REMARK VINA RESULT:      -7.1      3.947      7.298
REMARK  Name = NuBBE_1318
REMARK  3 active torsions:
REMARK  status: ('A' for Active; 'I' for Inactive)
REMARK    1  A    between atoms: C_4  and  C_5
REMARK    2  A    between atoms: C_8  and  O_9
REMARK    3  A    between atoms: O_9  and  C_10
REMARK                            x       y       z     vdW  Elec       q    Type
REMARK                         _______ _______ _______ _____ _____    ______ ____
ROOT
ATOM      1  O   LIG A   1      -9.242   2.331 125.410  0.00  0.00    -0.287 OA
ATOM      2  C   LIG A   1      -8.154   2.835 125.171  0.00  0.00    +0.193 A 
ATOM      3  C   LIG A   1      -7.213   3.152 126.257  0.00  0.00    +0.098 A 
ATOM      4  C   LIG A   1      -6.032   3.716 125.968  0.00  0.00    +0.139 A 
ATOM      5  O   LIG A   1      -5.616   4.016 124.678  0.00  0.00    -0.454 OA
ATOM      6  C   LIG A   1      -7.716   3.149 123.803  0.00  0.00    +0.065 A 
ATOM      7  C   LIG A   1      -6.453   3.729 123.626  0.00  0.00    +0.150 A 
ATOM      8  C   LIG A   1      -6.034   4.026 122.315  0.00  0.00    +0.063 A 
ATOM      9  C   LIG A   1      -4.874   4.594 121.717  0.00  0.00    +0.053 A 
ATOM     10  C   LIG A   1      -5.102   4.610 120.360  0.00  0.00    +0.196 A 
ATOM     11  O   LIG A   1      -6.324   4.087 120.075  0.00  0.00    -0.463 OA
ATOM     12  C   LIG A   1      -6.892   3.732 121.260  0.00  0.00    +0.138 A 
ATOM     13  C   LIG A   1      -8.152   3.158 121.408  0.00  0.00    +0.048 A 
ATOM     14  C   LIG A   1      -8.554   2.867 122.716  0.00  0.00    +0.019 A 
ENDROOT
BRANCH   4  15
ATOM     15  C   LIG A   1      -5.038   4.049 127.016  0.00  0.00    +0.018 A 
ATOM     16  C   LIG A   1      -5.416   4.451 128.306  0.00  0.00    +0.015 A 
ATOM     17  C   LIG A   1      -4.451   4.771 129.270  0.00  0.00    +0.046 A 
ATOM     18  C   LIG A   1      -3.091   4.711 128.968  0.00  0.00    +0.120 A 
ATOM     19  C   LIG A   1      -2.701   4.322 127.689  0.00  0.00    +0.046 A 
ATOM     20  C   LIG A   1      -3.666   3.997 126.725  0.00  0.00    +0.015 A 
BRANCH  18  21
ATOM     21  O   LIG A   1      -2.258   5.056 129.994  0.00  0.00    -0.495 OA
ATOM     22  C   LIG A   1      -2.597   6.225 130.730  0.00  0.00    +0.277 C 
ENDBRANCH  18  21
ENDBRANCH   4  15
TORSDOF 2
ENDMDL
MODEL 8
REMARK VINA RESULT:      -7.1      6.039      8.496
REMARK  Name = NuBBE_1318
REMARK  3 active torsions:
REMARK  status: ('A' for Active; 'I' for Inactive)
REMARK    1  A    between atoms: C_4  and  C_5
REMARK    2  A    between atoms: C_8  and  O_9
REMARK    3  A    between atoms: O_9  and  C_10
REMARK                            x       y       z     vdW  Elec       q    Type
REMARK                         _______ _______ _______ _____ _____    ______ ____
ROOT
ATOM      1  O   LIG A   1      -9.500   3.096 132.424  0.00  0.00    -0.287 OA
ATOM      2  C   LIG A   1      -9.449   3.710 131.368  0.00  0.00    +0.193 A 
ATOM      3  C   LIG A   1     -10.298   4.889 131.138  0.00  0.00    +0.098 A 
ATOM      4  C   LIG A   1     -10.232   5.536 129.965  0.00  0.00    +0.139 A 
ATOM      5  O   LIG A   1      -9.383   5.170 128.930  0.00  0.00    -0.454 OA
ATOM      6  C   LIG A   1      -8.546   3.320 130.274  0.00  0.00    +0.065 A 
ATOM      7  C   LIG A   1      -8.560   4.082 129.098  0.00  0.00    +0.150 A 
ATOM      8  C   LIG A   1      -7.692   3.710 128.053  0.00  0.00    +0.063 A 
ATOM      9  C   LIG A   1      -7.401   4.192 126.747  0.00  0.00    +0.053 A 
ATOM     10  C   LIG A   1      -6.434   3.360 126.230  0.00  0.00    +0.196 A 
ATOM     11  O   LIG A   1      -6.104   2.395 127.128  0.00  0.00    -0.463 OA
ATOM     12  C   LIG A   1      -6.866   2.605 128.236  0.00  0.00    +0.138 A 
ATOM     13  C   LIG A   1      -6.835   1.830 129.394  0.00  0.00    +0.048 A 
ATOM     14  C   LIG A   1      -7.700   2.213 130.423  0.00  0.00    +0.019 A 
ENDROOT
BRANCH   4  15
ATOM     15  C   LIG A   1     -11.054   6.735 129.677  0.00  0.00    +0.018 A 
ATOM     16  C   LIG A   1     -11.996   7.234 130.589  0.00  0.00    +0.015 A 
ATOM     17  C   LIG A   1     -12.766   8.363 130.281  0.00  0.00    +0.046 A 
ATOM     18  C   LIG A   1     -12.624   9.012 129.055  0.00  0.00    +0.120 A 
ATOM     19  C   LIG A   1     -11.698   8.524 128.137  0.00  0.00    +0.046 A 
ATOM     20  C   LIG A   1     -10.924   7.397 128.446  0.00  0.00    +0.015 A 
BRANCH  18  21
ATOM     21  O   LIG A   1     -13.440  10.093 128.878  0.00  0.00    -0.495 OA
ATOM     22  C   LIG A   1     -13.520  11.019 129.955  0.00  0.00    +0.277 C 
ENDBRANCH  18  21
ENDBRANCH   4  15
TORSDOF 2
ENDMDL
MODEL 9
REMARK VINA RESULT:      -7.0      3.494      5.078
REMARK  Name = NuBBE_1318
REMARK  3 active torsions:
REMARK  status: ('A' for Active; 'I' for Inactive)
REMARK    1  A    between atoms: C_4  and  C_5
REMARK    2  A    between atoms: C_8  and  O_9
REMARK    3  A    between atoms: O_9  and  C_10
REMARK                            x       y       z     vdW  Elec       q    Type
REMARK                         _______ _______ _______ _____ _____    ______ ____
ROOT
ATOM      1  O   LIG A   1      -9.336   2.690 123.498  0.00  0.00    -0.287 OA
ATOM      2  C   LIG A   1      -8.345   2.164 123.984  0.00  0.00    +0.193 A 
ATOM      3  C   LIG A   1      -7.343   2.963 124.706  0.00  0.00    +0.098 A 
ATOM      4  C   LIG A   1      -6.257   2.363 125.217  0.00  0.00    +0.139 A 
ATOM      5  O   LIG A   1      -6.015   0.999 125.122  0.00  0.00    -0.454 OA
ATOM      6  C   LIG A   1      -8.092   0.718 123.884  0.00  0.00    +0.065 A 
ATOM      7  C   LIG A   1      -6.926   0.206 124.467  0.00  0.00    +0.150 A 
ATOM      8  C   LIG A   1      -6.688  -1.179 124.374  0.00  0.00    +0.063 A 
ATOM      9  C   LIG A   1      -5.670  -2.072 124.811  0.00  0.00    +0.053 A 
ATOM     10  C   LIG A   1      -6.041  -3.326 124.384  0.00  0.00    +0.196 A 
ATOM     11  O   LIG A   1      -7.223  -3.273 123.714  0.00  0.00    -0.463 OA
ATOM     12  C   LIG A   1      -7.617  -1.970 123.706  0.00  0.00    +0.138 A 
ATOM     13  C   LIG A   1      -8.783  -1.485 123.116  0.00  0.00    +0.048 A 
ATOM     14  C   LIG A   1      -9.007  -0.109 123.219  0.00  0.00    +0.019 A 
ENDROOT
BRANCH   4  15
ATOM     15  C   LIG A   1      -5.219   3.112 125.963  0.00  0.00    +0.018 A 
ATOM     16  C   LIG A   1      -4.013   2.520 126.366  0.00  0.00    +0.015 A 
ATOM     17  C   LIG A   1      -3.057   3.252 127.082  0.00  0.00    +0.046 A 
ATOM     18  C   LIG A   1      -3.286   4.585 127.423  0.00  0.00    +0.120 A 
ATOM     19  C   LIG A   1      -4.482   5.184 127.037  0.00  0.00    +0.046 A 
ATOM     20  C   LIG A   1      -5.437   4.453 126.317  0.00  0.00    +0.015 A 
BRANCH  18  21
ATOM     21  O   LIG A   1      -2.278   5.180 128.128  0.00  0.00    -0.495 OA
ATOM     22  C   LIG A   1      -2.340   6.595 128.264  0.00  0.00    +0.277 C 
ENDBRANCH  18  21
ENDBRANCH   4  15
TORSDOF 2
ENDMDL
