MODEL 1
REMARK VINA RESULT:      -6.2      0.000      0.000
REMARK  Name = NuBBE_1597
REMARK  5 active torsions:
REMARK  status: ('A' for Active; 'I' for Inactive)
REMARK    1  A    between atoms: C_1  and  C_2
REMARK    2  A    between atoms: C_1  and  C_6
REMARK    3  A    between atoms: C_2  and  C_3
REMARK    4  A    between atoms: C_3  and  C_4
REMARK    5  A    between atoms: C_4  and  C_5
REMARK                            x       y       z     vdW  Elec       q    Type
REMARK                         _______ _______ _______ _____ _____    ______ ____
ROOT
ATOM      1  C   LIG A   1      -8.813   5.919 132.689  0.00  0.00    +0.042 A 
ATOM      2  N   LIG A   1     -10.162   6.039 132.647  0.00  0.00    -0.252 NA
ATOM      3  C   LIG A   1     -10.727   6.624 131.576  0.00  0.00    +0.071 A 
ATOM      4  C   LIG A   1      -9.967   7.114 130.494  0.00  0.00    +0.000 A 
ATOM      5  C   LIG A   1      -8.576   6.976 130.558  0.00  0.00    +0.012 A 
ATOM      6  C   LIG A   1      -7.990   6.372 131.664  0.00  0.00    +0.024 A 
ATOM      7  C   LIG A   1     -10.603   7.716 129.394  0.00  0.00    +0.010 A 
ATOM      8  C   LIG A   1     -11.991   7.836 129.362  0.00  0.00    +0.001 A 
ATOM      9  C   LIG A   1     -12.746   7.354 130.425  0.00  0.00    +0.002 A 
ATOM     10  C   LIG A   1     -12.109   6.757 131.516  0.00  0.00    +0.028 A 
ENDROOT
BRANCH   1  11
ATOM     11  C   LIG A   1      -8.228   5.221 133.891  0.00  0.00    +0.055 C 
BRANCH  11  12
ATOM     12  C   LIG A   1      -8.941   3.895 134.161  0.00  0.00    +0.006 C 
BRANCH  12  13
ATOM     13  C   LIG A   1      -8.494   2.802 133.187  0.00  0.00    +0.000 C 
BRANCH  13  14
ATOM     14  C   LIG A   1      -9.681   2.244 132.398  0.00  0.00    -0.003 C 
ATOM     15  C   LIG A   1      -9.742   2.812 130.989  0.00  0.00    +0.004 C 
ENDBRANCH  13  14
ENDBRANCH  12  13
ENDBRANCH  11  12
ENDBRANCH   1  11
TORSDOF 4
ENDMDL
MODEL 2
REMARK VINA RESULT:      -6.2      1.173      2.399
REMARK  Name = NuBBE_1597
REMARK  5 active torsions:
REMARK  status: ('A' for Active; 'I' for Inactive)
REMARK    1  A    between atoms: C_1  and  C_2
REMARK    2  A    between atoms: C_1  and  C_6
REMARK    3  A    between atoms: C_2  and  C_3
REMARK    4  A    between atoms: C_3  and  C_4
REMARK    5  A    between atoms: C_4  and  C_5
REMARK                            x       y       z     vdW  Elec       q    Type
REMARK                         _______ _______ _______ _____ _____    ______ ____
ROOT
ATOM      1  C   LIG A   1      -9.250   6.534 131.364  0.00  0.00    +0.042 A 
ATOM      2  N   LIG A   1      -9.278   7.161 130.162  0.00  0.00    -0.252 NA
ATOM      3  C   LIG A   1     -10.469   7.498 129.636  0.00  0.00    +0.071 A 
ATOM      4  C   LIG A   1     -11.688   7.226 130.290  0.00  0.00    +0.000 A 
ATOM      5  C   LIG A   1     -11.634   6.581 131.530  0.00  0.00    +0.012 A 
ATOM      6  C   LIG A   1     -10.404   6.232 132.076  0.00  0.00    +0.024 A 
ATOM      7  C   LIG A   1     -12.910   7.600 129.702  0.00  0.00    +0.010 A 
ATOM      8  C   LIG A   1     -12.928   8.243 128.465  0.00  0.00    +0.001 A 
ATOM      9  C   LIG A   1     -11.729   8.513 127.816  0.00  0.00    +0.002 A 
ATOM     10  C   LIG A   1     -10.518   8.140 128.405  0.00  0.00    +0.028 A 
ENDROOT
BRANCH   1  11
ATOM     11  C   LIG A   1      -7.891   6.212 131.931  0.00  0.00    +0.055 C 
BRANCH  11  12
ATOM     12  C   LIG A   1      -7.991   5.797 133.401  0.00  0.00    +0.006 C 
BRANCH  12  13
ATOM     13  C   LIG A   1      -7.676   4.312 133.595  0.00  0.00    +0.000 C 
BRANCH  13  14
ATOM     14  C   LIG A   1      -8.942   3.515 133.916  0.00  0.00    -0.003 C 
ATOM     15  C   LIG A   1      -9.320   2.572 132.786  0.00  0.00    +0.004 C 
ENDBRANCH  13  14
ENDBRANCH  12  13
ENDBRANCH  11  12
ENDBRANCH   1  11
TORSDOF 4
ENDMDL
MODEL 3
REMARK VINA RESULT:      -6.1      2.248      4.109
REMARK  Name = NuBBE_1597
REMARK  5 active torsions:
REMARK  status: ('A' for Active; 'I' for Inactive)
REMARK    1  A    between atoms: C_1  and  C_2
REMARK    2  A    between atoms: C_1  and  C_6
REMARK    3  A    between atoms: C_2  and  C_3
REMARK    4  A    between atoms: C_3  and  C_4
REMARK    5  A    between atoms: C_4  and  C_5
REMARK                            x       y       z     vdW  Elec       q    Type
REMARK                         _______ _______ _______ _____ _____    ______ ____
ROOT
ATOM      1  C   LIG A   1      -8.920   6.584 131.248  0.00  0.00    +0.042 A 
ATOM      2  N   LIG A   1      -9.120   7.270 130.096  0.00  0.00    -0.252 NA
ATOM      3  C   LIG A   1     -10.382   7.520 129.703  0.00  0.00    +0.071 A 
ATOM      4  C   LIG A   1     -11.503   7.098 130.447  0.00  0.00    +0.000 A 
ATOM      5  C   LIG A   1     -11.272   6.395 131.634  0.00  0.00    +0.012 A 
ATOM      6  C   LIG A   1      -9.969   6.135 132.042  0.00  0.00    +0.024 A 
ATOM      7  C   LIG A   1     -12.803   7.386 129.997  0.00  0.00    +0.010 A 
ATOM      8  C   LIG A   1     -12.998   8.091 128.811  0.00  0.00    +0.001 A 
ATOM      9  C   LIG A   1     -11.897   8.510 128.073  0.00  0.00    +0.002 A 
ATOM     10  C   LIG A   1     -10.606   8.222 128.525  0.00  0.00    +0.028 A 
ENDROOT
BRANCH   1  11
ATOM     11  C   LIG A   1      -7.489   6.361 131.668  0.00  0.00    +0.055 C 
BRANCH  11  12
ATOM     12  C   LIG A   1      -6.533   7.239 130.858  0.00  0.00    +0.006 C 
BRANCH  12  13
ATOM     13  C   LIG A   1      -5.071   6.854 131.095  0.00  0.00    +0.000 C 
BRANCH  13  14
ATOM     14  C   LIG A   1      -4.121   7.830 130.396  0.00  0.00    -0.003 C 
ATOM     15  C   LIG A   1      -3.654   7.300 129.050  0.00  0.00    +0.004 C 
ENDBRANCH  13  14
ENDBRANCH  12  13
ENDBRANCH  11  12
ENDBRANCH   1  11
TORSDOF 4
ENDMDL
MODEL 4
REMARK VINA RESULT:      -6.1      9.186     11.610
REMARK  Name = NuBBE_1597
REMARK  5 active torsions:
REMARK  status: ('A' for Active; 'I' for Inactive)
REMARK    1  A    between atoms: C_1  and  C_2
REMARK    2  A    between atoms: C_1  and  C_6
REMARK    3  A    between atoms: C_2  and  C_3
REMARK    4  A    between atoms: C_3  and  C_4
REMARK    5  A    between atoms: C_4  and  C_5
REMARK                            x       y       z     vdW  Elec       q    Type
REMARK                         _______ _______ _______ _____ _____    ______ ____
ROOT
ATOM      1  C   LIG A   1      -7.650  -1.877 124.454  0.00  0.00    +0.042 A 
ATOM      2  N   LIG A   1      -7.201  -1.511 125.680  0.00  0.00    -0.252 NA
ATOM      3  C   LIG A   1      -7.672  -2.158 126.761  0.00  0.00    +0.071 A 
ATOM      4  C   LIG A   1      -8.612  -3.204 126.665  0.00  0.00    +0.000 A 
ATOM      5  C   LIG A   1      -9.059  -3.567 125.389  0.00  0.00    +0.012 A 
ATOM      6  C   LIG A   1      -8.573  -2.899 124.271  0.00  0.00    +0.024 A 
ATOM      7  C   LIG A   1      -9.074  -3.853 127.824  0.00  0.00    +0.010 A 
ATOM      8  C   LIG A   1      -8.607  -3.469 129.079  0.00  0.00    +0.001 A 
ATOM      9  C   LIG A   1      -7.680  -2.438 129.180  0.00  0.00    +0.002 A 
ATOM     10  C   LIG A   1      -7.224  -1.797 128.025  0.00  0.00    +0.028 A 
ENDROOT
BRANCH   1  11
ATOM     11  C   LIG A   1      -7.064  -1.150 123.270  0.00  0.00    +0.055 C 
BRANCH  11  12
ATOM     12  C   LIG A   1      -6.131  -2.061 122.470  0.00  0.00    +0.006 C 
BRANCH  12  13
ATOM     13  C   LIG A   1      -4.945  -2.540 123.311  0.00  0.00    +0.000 C 
BRANCH  13  14
ATOM     14  C   LIG A   1      -5.139  -3.988 123.767  0.00  0.00    -0.003 C 
ATOM     15  C   LIG A   1      -3.891  -4.825 123.538  0.00  0.00    +0.004 C 
ENDBRANCH  13  14
ENDBRANCH  12  13
ENDBRANCH  11  12
ENDBRANCH   1  11
TORSDOF 4
ENDMDL
MODEL 5
REMARK VINA RESULT:      -6.1      9.544     10.840
REMARK  Name = NuBBE_1597
REMARK  5 active torsions:
REMARK  status: ('A' for Active; 'I' for Inactive)
REMARK    1  A    between atoms: C_1  and  C_2
REMARK    2  A    between atoms: C_1  and  C_6
REMARK    3  A    between atoms: C_2  and  C_3
REMARK    4  A    between atoms: C_3  and  C_4
REMARK    5  A    between atoms: C_4  and  C_5
REMARK                            x       y       z     vdW  Elec       q    Type
REMARK                         _______ _______ _______ _____ _____    ______ ____
ROOT
ATOM      1  C   LIG A   1      -8.402   2.583 123.014  0.00  0.00    +0.042 A 
ATOM      2  N   LIG A   1      -8.599   3.037 121.752  0.00  0.00    -0.252 NA
ATOM      3  C   LIG A   1      -7.585   3.653 121.120  0.00  0.00    +0.071 A 
ATOM      4  C   LIG A   1      -6.322   3.839 121.719  0.00  0.00    +0.000 A 
ATOM      5  C   LIG A   1      -6.140   3.359 123.021  0.00  0.00    +0.012 A 
ATOM      6  C   LIG A   1      -7.188   2.723 123.677  0.00  0.00    +0.024 A 
ATOM      7  C   LIG A   1      -5.290   4.486 121.017  0.00  0.00    +0.010 A 
ATOM      8  C   LIG A   1      -5.504   4.950 119.720  0.00  0.00    +0.001 A 
ATOM      9  C   LIG A   1      -6.747   4.769 119.124  0.00  0.00    +0.002 A 
ATOM     10  C   LIG A   1      -7.769   4.125 119.826  0.00  0.00    +0.028 A 
ENDROOT
BRANCH   1  11
ATOM     11  C   LIG A   1      -9.556   1.866 123.668  0.00  0.00    +0.055 C 
BRANCH  11  12
ATOM     12  C   LIG A   1      -9.833   0.527 122.983  0.00  0.00    +0.006 C 
BRANCH  12  13
ATOM     13  C   LIG A   1      -8.968  -0.596 123.560  0.00  0.00    +0.000 C 
BRANCH  13  14
ATOM     14  C   LIG A   1      -9.089  -1.873 122.725  0.00  0.00    -0.003 C 
ATOM     15  C   LIG A   1      -9.301  -3.101 123.595  0.00  0.00    +0.004 C 
ENDBRANCH  13  14
ENDBRANCH  12  13
ENDBRANCH  11  12
ENDBRANCH   1  11
TORSDOF 4
ENDMDL
MODEL 6
REMARK VINA RESULT:      -5.7      9.692     10.782
REMARK  Name = NuBBE_1597
REMARK  5 active torsions:
REMARK  status: ('A' for Active; 'I' for Inactive)
REMARK    1  A    between atoms: C_1  and  C_2
REMARK    2  A    between atoms: C_1  and  C_6
REMARK    3  A    between atoms: C_2  and  C_3
REMARK    4  A    between atoms: C_3  and  C_4
REMARK    5  A    between atoms: C_4  and  C_5
REMARK                            x       y       z     vdW  Elec       q    Type
REMARK                         _______ _______ _______ _____ _____    ______ ____
ROOT
ATOM      1  C   LIG A   1      -7.305  -2.754 127.905  0.00  0.00    +0.042 A 
ATOM      2  N   LIG A   1      -6.707  -2.327 126.766  0.00  0.00    -0.252 NA
ATOM      3  C   LIG A   1      -7.357  -2.478 125.598  0.00  0.00    +0.071 A 
ATOM      4  C   LIG A   1      -8.638  -3.060 125.516  0.00  0.00    +0.000 A 
ATOM      5  C   LIG A   1      -9.237  -3.491 126.705  0.00  0.00    +0.012 A 
ATOM      6  C   LIG A   1      -8.567  -3.336 127.913  0.00  0.00    +0.024 A 
ATOM      7  C   LIG A   1      -9.280  -3.195 124.272  0.00  0.00    +0.010 A 
ATOM      8  C   LIG A   1      -8.656  -2.753 123.107  0.00  0.00    +0.001 A 
ATOM      9  C   LIG A   1      -7.393  -2.177 123.181  0.00  0.00    +0.002 A 
ATOM     10  C   LIG A   1      -6.760  -2.046 124.420  0.00  0.00    +0.028 A 
ENDROOT
BRANCH   1  11
ATOM     11  C   LIG A   1      -6.555  -2.528 129.193  0.00  0.00    +0.055 C 
BRANCH  11  12
ATOM     12  C   LIG A   1      -6.586  -3.777 130.077  0.00  0.00    +0.006 C 
BRANCH  12  13
ATOM     13  C   LIG A   1      -5.180  -4.314 130.351  0.00  0.00    +0.000 C 
BRANCH  13  14
ATOM     14  C   LIG A   1      -4.112  -3.277 129.997  0.00  0.00    -0.003 C 
ATOM     15  C   LIG A   1      -3.070  -3.839 129.044  0.00  0.00    +0.004 C 
ENDBRANCH  13  14
ENDBRANCH  12  13
ENDBRANCH  11  12
ENDBRANCH   1  11
TORSDOF 4
ENDMDL
MODEL 7
REMARK VINA RESULT:      -5.6      9.472     11.309
REMARK  Name = NuBBE_1597
REMARK  5 active torsions:
REMARK  status: ('A' for Active; 'I' for Inactive)
REMARK    1  A    between atoms: C_1  and  C_2
REMARK    2  A    between atoms: C_1  and  C_6
REMARK    3  A    between atoms: C_2  and  C_3
REMARK    4  A    between atoms: C_3  and  C_4
REMARK    5  A    between atoms: C_4  and  C_5
REMARK                            x       y       z     vdW  Elec       q    Type
REMARK                         _______ _______ _______ _____ _____    ______ ____
ROOT
ATOM      1  C   LIG A   1      -7.659  -2.385 127.710  0.00  0.00    +0.042 A 
ATOM      2  N   LIG A   1      -6.305  -2.317 127.725  0.00  0.00    -0.252 NA
ATOM      3  C   LIG A   1      -5.643  -2.833 128.776  0.00  0.00    +0.071 A 
ATOM      4  C   LIG A   1      -6.305  -3.444 129.860  0.00  0.00    +0.000 A 
ATOM      5  C   LIG A   1      -7.702  -3.506 129.821  0.00  0.00    +0.012 A 
ATOM      6  C   LIG A   1      -8.389  -2.973 128.736  0.00  0.00    +0.024 A 
ATOM      7  C   LIG A   1      -5.570  -3.972 130.936  0.00  0.00    +0.010 A 
ATOM      8  C   LIG A   1      -4.178  -3.897 130.942  0.00  0.00    +0.001 A 
ATOM      9  C   LIG A   1      -3.520  -3.295 129.876  0.00  0.00    +0.002 A 
ATOM     10  C   LIG A   1      -4.255  -2.772 128.809  0.00  0.00    +0.028 A 
ENDROOT
BRANCH   1  11
ATOM     11  C   LIG A   1      -8.355  -1.829 126.493  0.00  0.00    +0.055 C 
BRANCH  11  12
ATOM     12  C   LIG A   1      -9.328  -2.849 125.899  0.00  0.00    +0.006 C 
BRANCH  12  13
ATOM     13  C   LIG A   1      -8.712  -3.599 124.716  0.00  0.00    +0.000 C 
BRANCH  13  14
ATOM     14  C   LIG A   1      -9.348  -3.163 123.394  0.00  0.00    -0.003 C 
ATOM     15  C   LIG A   1      -8.567  -2.039 122.733  0.00  0.00    +0.004 C 
ENDBRANCH  13  14
ENDBRANCH  12  13
ENDBRANCH  11  12
ENDBRANCH   1  11
TORSDOF 4
ENDMDL
MODEL 8
REMARK VINA RESULT:      -5.6      8.839     10.012
REMARK  Name = NuBBE_1597
REMARK  5 active torsions:
REMARK  status: ('A' for Active; 'I' for Inactive)
REMARK    1  A    between atoms: C_1  and  C_2
REMARK    2  A    between atoms: C_1  and  C_6
REMARK    3  A    between atoms: C_2  and  C_3
REMARK    4  A    between atoms: C_3  and  C_4
REMARK    5  A    between atoms: C_4  and  C_5
REMARK                            x       y       z     vdW  Elec       q    Type
REMARK                         _______ _______ _______ _____ _____    ______ ____
ROOT
ATOM      1  C   LIG A   1      -8.073   2.947 123.526  0.00  0.00    +0.042 A 
ATOM      2  N   LIG A   1      -8.858   3.199 122.450  0.00  0.00    -0.252 NA
ATOM      3  C   LIG A   1      -8.278   3.605 121.306  0.00  0.00    +0.071 A 
ATOM      4  C   LIG A   1      -6.884   3.774 121.185  0.00  0.00    +0.000 A 
ATOM      5  C   LIG A   1      -6.093   3.506 122.308  0.00  0.00    +0.012 A 
ATOM      6  C   LIG A   1      -6.691   3.087 123.491  0.00  0.00    +0.024 A 
ATOM      7  C   LIG A   1      -6.323   4.198 119.968  0.00  0.00    +0.010 A 
ATOM      8  C   LIG A   1      -7.139   4.455 118.868  0.00  0.00    +0.001 A 
ATOM      9  C   LIG A   1      -8.515   4.289 118.981  0.00  0.00    +0.002 A 
ATOM     10  C   LIG A   1      -9.067   3.868 120.193  0.00  0.00    +0.028 A 
ENDROOT
BRANCH   1  11
ATOM     11  C   LIG A   1      -8.764   2.457 124.773  0.00  0.00    +0.055 C 
BRANCH  11  12
ATOM     12  C   LIG A   1      -9.613   1.218 124.483  0.00  0.00    +0.006 C 
BRANCH  12  13
ATOM     13  C   LIG A   1      -9.382   0.116 125.521  0.00  0.00    +0.000 C 
BRANCH  13  14
ATOM     14  C   LIG A   1      -7.942   0.137 126.038  0.00  0.00    -0.003 C 
ATOM     15  C   LIG A   1      -7.828  -0.478 127.423  0.00  0.00    +0.004 C 
ENDBRANCH  13  14
ENDBRANCH  12  13
ENDBRANCH  11  12
ENDBRANCH   1  11
TORSDOF 4
ENDMDL
MODEL 9
REMARK VINA RESULT:      -5.5      1.458      2.493
REMARK  Name = NuBBE_1597
REMARK  5 active torsions:
REMARK  status: ('A' for Active; 'I' for Inactive)
REMARK    1  A    between atoms: C_1  and  C_2
REMARK    2  A    between atoms: C_1  and  C_6
REMARK    3  A    between atoms: C_2  and  C_3
REMARK    4  A    between atoms: C_3  and  C_4
REMARK    5  A    between atoms: C_4  and  C_5
REMARK                            x       y       z     vdW  Elec       q    Type
REMARK                         _______ _______ _______ _____ _____    ______ ____
ROOT
ATOM      1  C   LIG A   1      -9.861   5.919 132.017  0.00  0.00    +0.042 A 
ATOM      2  N   LIG A   1     -11.131   6.131 131.592  0.00  0.00    -0.252 NA
ATOM      3  C   LIG A   1     -11.329   6.897 130.504  0.00  0.00    +0.071 A 
ATOM      4  C   LIG A   1     -10.265   7.483 129.788  0.00  0.00    +0.000 A 
ATOM      5  C   LIG A   1      -8.963   7.247 130.244  0.00  0.00    +0.012 A 
ATOM      6  C   LIG A   1      -8.756   6.456 131.368  0.00  0.00    +0.024 A 
ATOM      7  C   LIG A   1     -10.521   8.274 128.655  0.00  0.00    +0.010 A 
ATOM      8  C   LIG A   1     -11.830   8.487 128.226  0.00  0.00    +0.001 A 
ATOM      9  C   LIG A   1     -12.883   7.912 128.928  0.00  0.00    +0.002 A 
ATOM     10  C   LIG A   1     -12.623   7.127 130.054  0.00  0.00    +0.028 A 
ENDROOT
BRANCH   1  11
ATOM     11  C   LIG A   1      -9.686   5.022 133.217  0.00  0.00    +0.055 C 
BRANCH  11  12
ATOM     12  C   LIG A   1      -8.298   4.380 133.228  0.00  0.00    +0.006 C 
BRANCH  12  13
ATOM     13  C   LIG A   1      -7.727   4.288 134.645  0.00  0.00    +0.000 C 
BRANCH  13  14
ATOM     14  C   LIG A   1      -7.091   5.612 135.074  0.00  0.00    -0.003 C 
ATOM     15  C   LIG A   1      -7.671   6.121 136.383  0.00  0.00    +0.004 C 
ENDBRANCH  13  14
ENDBRANCH  12  13
ENDBRANCH  11  12
ENDBRANCH   1  11
TORSDOF 4
ENDMDL
