MODEL 1
REMARK VINA RESULT:      -7.8      0.000      0.000
REMARK  Name = NuBBE_2299
REMARK  5 active torsions:
REMARK  status: ('A' for Active; 'I' for Inactive)
REMARK    1  A    between atoms: C_1  and  C_2
REMARK    2  A    between atoms: C_4  and  C_19
REMARK    3  A    between atoms: C_5  and  O_6
REMARK    4  A    between atoms: C_8  and  C_10
REMARK    5  A    between atoms: C_19  and  C_20
REMARK                            x       y       z     vdW  Elec       q    Type
REMARK                         _______ _______ _______ _____ _____    ______ ____
ROOT
ATOM      1  C   LIG A   1      -6.335   2.632 125.546  0.00  0.00    +0.011 C 
ATOM      2  C   LIG A   1      -6.759   1.515 124.603  0.00  0.00    +0.031 C 
ATOM      3  C   LIG A   1      -7.122   0.117 125.159  0.00  0.00    +0.041 C 
ATOM      4  C   LIG A   1      -7.828  -0.436 123.894  0.00  0.00    +0.235 C 
ATOM      5  O   LIG A   1      -8.666   0.607 123.449  0.00  0.00    -0.334 OA
ATOM      6  C   LIG A   1      -8.029   1.866 123.793  0.00  0.00    +0.156 C 
ATOM      7  C   LIG A   1      -5.897  -0.772 125.472  0.00  0.00    +0.014 C 
ATOM      8  C   LIG A   1      -6.271  -2.256 125.654  0.00  0.00    +0.008 C 
ATOM      9  C   LIG A   1      -7.194  -2.831 124.575  0.00  0.00    +0.080 C 
ATOM     10  C   LIG A   1      -8.307  -1.870 124.191  0.00  0.00    +0.192 C 
ATOM     11  O   LIG A   1      -9.475  -2.248 124.036  0.00  0.00    -0.292 OA
ENDROOT
BRANCH   6  12
ATOM     12  C   LIG A   1      -7.768   2.681 122.540  0.00  0.00    -0.015 A 
ATOM     13  C   LIG A   1      -6.461   3.097 122.229  0.00  0.00    +0.055 A 
ATOM     14  C   LIG A   1      -6.267   3.845 121.082  0.00  0.00    +0.167 A 
ATOM     15  O   LIG A   1      -5.073   4.320 120.634  0.00  0.00    -0.453 OA
ATOM     16  C   LIG A   1      -5.489   5.014 119.438  0.00  0.00    +0.466 C 
ATOM     17  O   LIG A   1      -6.906   4.930 119.185  0.00  0.00    -0.453 OA
ATOM     18  C   LIG A   1      -7.307   4.190 120.252  0.00  0.00    +0.166 A 
ATOM     19  C   LIG A   1      -8.597   3.801 120.513  0.00  0.00    +0.050 A 
ATOM     20  C   LIG A   1      -8.819   3.037 121.660  0.00  0.00    +0.010 A 
ENDBRANCH   6  12
BRANCH   4  21
ATOM     21  O   LIG A   1      -6.905  -0.653 122.817  0.00  0.00    -0.358 OA
ATOM     22  H   LIG A   1      -6.852   0.223 122.390  0.00  0.00    +0.213 HD
ENDBRANCH   4  21
BRANCH   3  23
ATOM     23  C   LIG A   1      -8.137   0.153 126.360  0.00  0.00    +0.039 C 
BRANCH  23  24
ATOM     24  C   LIG A   1      -7.548   0.124 127.746  0.00  0.00    -0.034 C 
ATOM     25  C   LIG A   1      -7.830   1.031 128.691  0.00  0.00    +0.004 C 
ENDBRANCH  23  24
ENDBRANCH   3  23
TORSDOF 4
ENDMDL
MODEL 2
REMARK VINA RESULT:      -7.5      4.054      6.486
REMARK  Name = NuBBE_2299
REMARK  5 active torsions:
REMARK  status: ('A' for Active; 'I' for Inactive)
REMARK    1  A    between atoms: C_1  and  C_2
REMARK    2  A    between atoms: C_4  and  C_19
REMARK    3  A    between atoms: C_5  and  O_6
REMARK    4  A    between atoms: C_8  and  C_10
REMARK    5  A    between atoms: C_19  and  C_20
REMARK                            x       y       z     vdW  Elec       q    Type
REMARK                         _______ _______ _______ _____ _____    ______ ____
ROOT
ATOM      1  C   LIG A   1      -5.134  -0.049 126.122  0.00  0.00    +0.011 C 
ATOM      2  C   LIG A   1      -6.592  -0.447 125.952  0.00  0.00    +0.031 C 
ATOM      3  C   LIG A   1      -7.004  -1.466 124.863  0.00  0.00    +0.041 C 
ATOM      4  C   LIG A   1      -8.426  -1.781 125.394  0.00  0.00    +0.235 C 
ATOM      5  O   LIG A   1      -8.274  -1.955 126.785  0.00  0.00    -0.334 OA
ATOM      6  C   LIG A   1      -7.188  -1.096 127.224  0.00  0.00    +0.156 C 
ATOM      7  C   LIG A   1      -7.127  -0.858 123.448  0.00  0.00    +0.014 C 
ATOM      8  C   LIG A   1      -7.890  -1.774 122.471  0.00  0.00    +0.008 C 
ATOM      9  C   LIG A   1      -9.201  -2.353 123.012  0.00  0.00    +0.080 C 
ATOM     10  C   LIG A   1      -9.080  -2.813 124.456  0.00  0.00    +0.192 C 
ATOM     11  O   LIG A   1      -9.562  -3.885 124.845  0.00  0.00    -0.292 OA
ENDROOT
BRANCH   6  12
ATOM     12  C   LIG A   1      -7.690  -0.103 128.257  0.00  0.00    -0.015 A 
ATOM     13  C   LIG A   1      -8.098   1.183 127.861  0.00  0.00    +0.055 A 
ATOM     14  C   LIG A   1      -8.541   2.059 128.834  0.00  0.00    +0.167 A 
ATOM     15  O   LIG A   1      -8.975   3.331 128.622  0.00  0.00    -0.453 OA
ATOM     16  C   LIG A   1      -9.283   3.741 129.972  0.00  0.00    +0.466 C 
ATOM     17  O   LIG A   1      -9.045   2.714 130.955  0.00  0.00    -0.453 OA
ATOM     18  C   LIG A   1      -8.586   1.710 130.163  0.00  0.00    +0.166 A 
ATOM     19  C   LIG A   1      -8.204   0.465 130.595  0.00  0.00    +0.050 A 
ATOM     20  C   LIG A   1      -7.762  -0.443 129.631  0.00  0.00    +0.010 A 
ENDBRANCH   6  12
BRANCH   4  21
ATOM     21  O   LIG A   1      -9.310  -0.660 125.257  0.00  0.00    -0.358 OA
ATOM     22  H   LIG A   1      -8.967  -0.203 124.465  0.00  0.00    +0.213 HD
ENDBRANCH   4  21
BRANCH   3  23
ATOM     23  C   LIG A   1      -6.137  -2.778 124.859  0.00  0.00    +0.039 C 
BRANCH  23  24
ATOM     24  C   LIG A   1      -5.054  -2.872 123.815  0.00  0.00    -0.034 C 
ATOM     25  C   LIG A   1      -4.374  -3.996 123.551  0.00  0.00    +0.004 C 
ENDBRANCH  23  24
ENDBRANCH   3  23
TORSDOF 4
ENDMDL
MODEL 3
REMARK VINA RESULT:      -7.3      2.211      3.700
REMARK  Name = NuBBE_2299
REMARK  5 active torsions:
REMARK  status: ('A' for Active; 'I' for Inactive)
REMARK    1  A    between atoms: C_1  and  C_2
REMARK    2  A    between atoms: C_4  and  C_19
REMARK    3  A    between atoms: C_5  and  O_6
REMARK    4  A    between atoms: C_8  and  C_10
REMARK    5  A    between atoms: C_19  and  C_20
REMARK                            x       y       z     vdW  Elec       q    Type
REMARK                         _______ _______ _______ _____ _____    ______ ____
ROOT
ATOM      1  C   LIG A   1      -7.150   0.053 124.058  0.00  0.00    +0.011 C 
ATOM      2  C   LIG A   1      -7.421   1.451 124.593  0.00  0.00    +0.031 C 
ATOM      3  C   LIG A   1      -7.279   1.752 126.104  0.00  0.00    +0.041 C 
ATOM      4  C   LIG A   1      -7.262   3.300 126.011  0.00  0.00    +0.235 C 
ATOM      5  O   LIG A   1      -6.393   3.600 124.942  0.00  0.00    -0.334 OA
ATOM      6  C   LIG A   1      -6.489   2.520 123.975  0.00  0.00    +0.156 C 
ATOM      7  C   LIG A   1      -8.499   1.320 126.948  0.00  0.00    +0.014 C 
ATOM      8  C   LIG A   1      -8.506   1.957 128.352  0.00  0.00    +0.008 C 
ATOM      9  C   LIG A   1      -8.235   3.464 128.383  0.00  0.00    +0.080 C 
ATOM     10  C   LIG A   1      -7.121   3.873 127.434  0.00  0.00    +0.192 C 
ATOM     11  O   LIG A   1      -6.241   4.678 127.764  0.00  0.00    -0.292 OA
ENDROOT
BRANCH   6  12
ATOM     12  C   LIG A   1      -6.955   3.057 122.634  0.00  0.00    -0.015 A 
ATOM     13  C   LIG A   1      -6.028   3.622 121.740  0.00  0.00    +0.055 A 
ATOM     14  C   LIG A   1      -6.493   4.107 120.532  0.00  0.00    +0.167 A 
ATOM     15  O   LIG A   1      -5.734   4.676 119.557  0.00  0.00    -0.453 OA
ATOM     16  C   LIG A   1      -6.745   4.987 118.573  0.00  0.00    +0.466 C 
ATOM     17  O   LIG A   1      -8.073   4.590 118.966  0.00  0.00    -0.453 OA
ATOM     18  C   LIG A   1      -7.823   4.056 120.190  0.00  0.00    +0.166 A 
ATOM     19  C   LIG A   1      -8.763   3.509 121.028  0.00  0.00    +0.050 A 
ATOM     20  C   LIG A   1      -8.317   3.003 122.250  0.00  0.00    +0.010 A 
ENDBRANCH   6  12
BRANCH   4  21
ATOM     21  O   LIG A   1      -8.535   3.826 125.609  0.00  0.00    -0.358 OA
ATOM     22  H   LIG A   1      -9.032   3.871 126.448  0.00  0.00    +0.213 HD
ENDBRANCH   4  21
BRANCH   3  23
ATOM     23  C   LIG A   1      -5.929   1.244 126.730  0.00  0.00    +0.039 C 
BRANCH  23  24
ATOM     24  C   LIG A   1      -5.982  -0.052 127.496  0.00  0.00    -0.034 C 
ATOM     25  C   LIG A   1      -5.487  -1.208 127.032  0.00  0.00    +0.004 C 
ENDBRANCH  23  24
ENDBRANCH   3  23
TORSDOF 4
ENDMDL
MODEL 4
REMARK VINA RESULT:      -7.2      3.660      4.950
REMARK  Name = NuBBE_2299
REMARK  5 active torsions:
REMARK  status: ('A' for Active; 'I' for Inactive)
REMARK    1  A    between atoms: C_1  and  C_2
REMARK    2  A    between atoms: C_4  and  C_19
REMARK    3  A    between atoms: C_5  and  O_6
REMARK    4  A    between atoms: C_8  and  C_10
REMARK    5  A    between atoms: C_19  and  C_20
REMARK                            x       y       z     vdW  Elec       q    Type
REMARK                         _______ _______ _______ _____ _____    ______ ____
ROOT
ATOM      1  C   LIG A   1      -5.814  -1.541 127.743  0.00  0.00    +0.011 C 
ATOM      2  C   LIG A   1      -6.312  -0.841 126.488  0.00  0.00    +0.031 C 
ATOM      3  C   LIG A   1      -7.420  -1.485 125.620  0.00  0.00    +0.041 C 
ATOM      4  C   LIG A   1      -7.791  -0.231 124.786  0.00  0.00    +0.235 C 
ATOM      5  O   LIG A   1      -7.869   0.825 125.716  0.00  0.00    -0.334 OA
ATOM      6  C   LIG A   1      -6.919   0.551 126.780  0.00  0.00    +0.156 C 
ATOM      7  C   LIG A   1      -6.908  -2.584 124.662  0.00  0.00    +0.014 C 
ATOM      8  C   LIG A   1      -7.928  -2.936 123.562  0.00  0.00    +0.008 C 
ATOM      9  C   LIG A   1      -8.554  -1.735 122.847  0.00  0.00    +0.080 C 
ATOM     10  C   LIG A   1      -8.917  -0.613 123.807  0.00  0.00    +0.192 C 
ATOM     11  O   LIG A   1      -9.991  -0.003 123.726  0.00  0.00    -0.292 OA
ENDROOT
BRANCH   6  12
ATOM     12  C   LIG A   1      -5.899   1.672 126.872  0.00  0.00    -0.015 A 
ATOM     13  C   LIG A   1      -6.228   2.873 127.524  0.00  0.00    +0.055 A 
ATOM     14  C   LIG A   1      -5.273   3.872 127.580  0.00  0.00    +0.167 A 
ATOM     15  O   LIG A   1      -5.425   5.087 128.175  0.00  0.00    -0.453 OA
ATOM     16  C   LIG A   1      -4.138   5.684 127.904  0.00  0.00    +0.466 C 
ATOM     17  O   LIG A   1      -3.244   4.821 127.174  0.00  0.00    -0.453 OA
ATOM     18  C   LIG A   1      -4.029   3.723 127.015  0.00  0.00    +0.166 A 
ATOM     19  C   LIG A   1      -3.662   2.567 126.373  0.00  0.00    +0.050 A 
ATOM     20  C   LIG A   1      -4.604   1.539 126.312  0.00  0.00    +0.010 A 
ENDBRANCH   6  12
BRANCH   4  21
ATOM     21  O   LIG A   1      -6.738   0.145 123.888  0.00  0.00    -0.358 OA
ATOM     22  H   LIG A   1      -6.766  -0.554 123.207  0.00  0.00    +0.213 HD
ENDBRANCH   4  21
BRANCH   3  23
ATOM     23  C   LIG A   1      -8.673  -1.966 126.441  0.00  0.00    +0.039 C 
BRANCH  23  24
ATOM     24  C   LIG A   1      -8.715  -3.423 126.820  0.00  0.00    -0.034 C 
ATOM     25  C   LIG A   1      -8.818  -3.858 128.084  0.00  0.00    +0.004 C 
ENDBRANCH  23  24
ENDBRANCH   3  23
TORSDOF 4
ENDMDL
MODEL 5
REMARK VINA RESULT:      -7.1      7.755      9.827
REMARK  Name = NuBBE_2299
REMARK  5 active torsions:
REMARK  status: ('A' for Active; 'I' for Inactive)
REMARK    1  A    between atoms: C_1  and  C_2
REMARK    2  A    between atoms: C_4  and  C_19
REMARK    3  A    between atoms: C_5  and  O_6
REMARK    4  A    between atoms: C_8  and  C_10
REMARK    5  A    between atoms: C_19  and  C_20
REMARK                            x       y       z     vdW  Elec       q    Type
REMARK                         _______ _______ _______ _____ _____    ______ ____
ROOT
ATOM      1  C   LIG A   1     -11.086   3.472 130.389  0.00  0.00    +0.011 C 
ATOM      2  C   LIG A   1     -10.187   4.539 130.996  0.00  0.00    +0.031 C 
ATOM      3  C   LIG A   1      -8.950   4.136 131.834  0.00  0.00    +0.041 C 
ATOM      4  C   LIG A   1      -8.237   5.513 131.832  0.00  0.00    +0.235 C 
ATOM      5  O   LIG A   1      -8.318   5.973 130.502  0.00  0.00    -0.334 OA
ATOM      6  C   LIG A   1      -9.552   5.462 129.931  0.00  0.00    +0.156 C 
ATOM      7  C   LIG A   1      -9.279   3.751 133.294  0.00  0.00    +0.014 C 
ATOM      8  C   LIG A   1      -8.031   3.726 134.198  0.00  0.00    +0.008 C 
ATOM      9  C   LIG A   1      -7.113   4.946 134.072  0.00  0.00    +0.080 C 
ATOM     10  C   LIG A   1      -6.924   5.383 132.629  0.00  0.00    +0.192 C 
ATOM     11  O   LIG A   1      -5.816   5.701 132.180  0.00  0.00    -0.292 OA
ENDROOT
BRANCH   6  12
ATOM     12  C   LIG A   1     -10.439   6.611 129.488  0.00  0.00    -0.015 A 
ATOM     13  C   LIG A   1     -11.296   7.237 130.411  0.00  0.00    +0.055 A 
ATOM     14  C   LIG A   1     -12.093   8.275 129.966  0.00  0.00    +0.167 A 
ATOM     15  O   LIG A   1     -12.970   8.988 130.725  0.00  0.00    -0.453 OA
ATOM     16  C   LIG A   1     -13.504   9.898 129.739  0.00  0.00    +0.466 C 
ATOM     17  O   LIG A   1     -12.934   9.727 128.426  0.00  0.00    -0.453 OA
ATOM     18  C   LIG A   1     -12.073   8.701 128.659  0.00  0.00    +0.166 A 
ATOM     19  C   LIG A   1     -11.249   8.125 127.725  0.00  0.00    +0.050 A 
ATOM     20  C   LIG A   1     -10.426   7.081 128.151  0.00  0.00    +0.010 A 
ENDBRANCH   6  12
BRANCH   4  21
ATOM     21  O   LIG A   1      -8.952   6.488 132.604  0.00  0.00    -0.358 OA
ATOM     22  H   LIG A   1      -8.583   7.335 132.288  0.00  0.00    +0.213 HD
ENDBRANCH   4  21
BRANCH   3  23
ATOM     23  C   LIG A   1      -8.033   3.063 131.142  0.00  0.00    +0.039 C 
BRANCH  23  24
ATOM     24  C   LIG A   1      -8.343   1.618 131.433  0.00  0.00    -0.034 C 
ATOM     25  C   LIG A   1      -8.285   0.646 130.512  0.00  0.00    +0.004 C 
ENDBRANCH  23  24
ENDBRANCH   3  23
TORSDOF 4
ENDMDL
MODEL 6
REMARK VINA RESULT:      -7.1      7.452      8.771
REMARK  Name = NuBBE_2299
REMARK  5 active torsions:
REMARK  status: ('A' for Active; 'I' for Inactive)
REMARK    1  A    between atoms: C_1  and  C_2
REMARK    2  A    between atoms: C_4  and  C_19
REMARK    3  A    between atoms: C_5  and  O_6
REMARK    4  A    between atoms: C_8  and  C_10
REMARK    5  A    between atoms: C_19  and  C_20
REMARK                            x       y       z     vdW  Elec       q    Type
REMARK                         _______ _______ _______ _____ _____    ______ ____
ROOT
ATOM      1  C   LIG A   1      -7.237   5.827 132.525  0.00  0.00    +0.011 C 
ATOM      2  C   LIG A   1      -7.989   4.745 131.764  0.00  0.00    +0.031 C 
ATOM      3  C   LIG A   1      -7.695   3.250 132.033  0.00  0.00    +0.041 C 
ATOM      4  C   LIG A   1      -8.952   2.659 131.343  0.00  0.00    +0.235 C 
ATOM      5  O   LIG A   1     -10.027   3.462 131.777  0.00  0.00    -0.334 OA
ATOM      6  C   LIG A   1      -9.518   4.805 131.994  0.00  0.00    +0.156 C 
ATOM      7  C   LIG A   1      -6.437   2.718 131.311  0.00  0.00    +0.014 C 
ATOM      8  C   LIG A   1      -6.376   1.178 131.279  0.00  0.00    +0.008 C 
ATOM      9  C   LIG A   1      -7.674   0.484 130.853  0.00  0.00    +0.080 C 
ATOM     10  C   LIG A   1      -8.905   1.125 131.474  0.00  0.00    +0.192 C 
ATOM     11  O   LIG A   1      -9.826   0.449 131.949  0.00  0.00    -0.292 OA
ENDROOT
BRANCH   6  12
ATOM     12  C   LIG A   1     -10.247   5.792 131.100  0.00  0.00    -0.015 A 
ATOM     13  C   LIG A   1      -9.737   6.103 129.827  0.00  0.00    +0.055 A 
ATOM     14  C   LIG A   1     -10.427   7.012 129.048  0.00  0.00    +0.167 A 
ATOM     15  O   LIG A   1     -10.076   7.417 127.797  0.00  0.00    -0.453 OA
ATOM     16  C   LIG A   1     -11.136   8.354 127.508  0.00  0.00    +0.466 C 
ATOM     17  O   LIG A   1     -12.100   8.481 128.572  0.00  0.00    -0.453 OA
ATOM     18  C   LIG A   1     -11.582   7.617 129.484  0.00  0.00    +0.166 A 
ATOM     19  C   LIG A   1     -12.120   7.340 130.715  0.00  0.00    +0.050 A 
ATOM     20  C   LIG A   1     -11.448   6.417 131.518  0.00  0.00    +0.010 A 
ENDBRANCH   6  12
BRANCH   4  21
ATOM     21  O   LIG A   1      -8.912   2.832 129.920  0.00  0.00    -0.358 OA
ATOM     22  H   LIG A   1      -7.980   3.066 129.750  0.00  0.00    +0.213 HD
ENDBRANCH   4  21
BRANCH   3  23
ATOM     23  C   LIG A   1      -7.697   2.865 133.558  0.00  0.00    +0.039 C 
BRANCH  23  24
ATOM     24  C   LIG A   1      -6.359   2.827 134.249  0.00  0.00    -0.034 C 
ATOM     25  C   LIG A   1      -6.015   3.654 135.247  0.00  0.00    +0.004 C 
ENDBRANCH  23  24
ENDBRANCH   3  23
TORSDOF 4
ENDMDL
MODEL 7
REMARK VINA RESULT:      -7.0      3.576      6.089
REMARK  Name = NuBBE_2299
REMARK  5 active torsions:
REMARK  status: ('A' for Active; 'I' for Inactive)
REMARK    1  A    between atoms: C_1  and  C_2
REMARK    2  A    between atoms: C_4  and  C_19
REMARK    3  A    between atoms: C_5  and  O_6
REMARK    4  A    between atoms: C_8  and  C_10
REMARK    5  A    between atoms: C_19  and  C_20
REMARK                            x       y       z     vdW  Elec       q    Type
REMARK                         _______ _______ _______ _____ _____    ______ ____
ROOT
ATOM      1  C   LIG A   1      -8.666  -4.091 127.997  0.00  0.00    +0.011 C 
ATOM      2  C   LIG A   1      -8.133  -2.666 128.028  0.00  0.00    +0.031 C 
ATOM      3  C   LIG A   1      -7.243  -2.189 129.201  0.00  0.00    +0.041 C 
ATOM      4  C   LIG A   1      -6.692  -0.900 128.538  0.00  0.00    +0.235 C 
ATOM      5  O   LIG A   1      -6.336  -1.278 127.227  0.00  0.00    -0.334 OA
ATOM      6  C   LIG A   1      -7.241  -2.334 126.809  0.00  0.00    +0.156 C 
ATOM      7  C   LIG A   1      -8.033  -1.795 130.469  0.00  0.00    +0.014 C 
ATOM      8  C   LIG A   1      -7.188  -0.980 131.467  0.00  0.00    +0.008 C 
ATOM      9  C   LIG A   1      -6.390   0.174 130.852  0.00  0.00    +0.080 C 
ATOM     10  C   LIG A   1      -5.740  -0.208 129.532  0.00  0.00    +0.192 C 
ATOM     11  O   LIG A   1      -4.575   0.108 129.259  0.00  0.00    -0.292 OA
ENDROOT
BRANCH   6  12
ATOM     12  C   LIG A   1      -8.007  -1.908 125.570  0.00  0.00    -0.015 A 
ATOM     13  C   LIG A   1      -8.349  -0.557 125.382  0.00  0.00    +0.055 A 
ATOM     14  C   LIG A   1      -9.053  -0.210 124.244  0.00  0.00    +0.167 A 
ATOM     15  O   LIG A   1      -9.455   1.045 123.907  0.00  0.00    -0.453 OA
ATOM     16  C   LIG A   1     -10.136   0.787 122.660  0.00  0.00    +0.466 C 
ATOM     17  O   LIG A   1     -10.116  -0.600 122.269  0.00  0.00    -0.453 OA
ATOM     18  C   LIG A   1      -9.428  -1.143 123.307  0.00  0.00    +0.166 A 
ATOM     19  C   LIG A   1      -9.112  -2.472 123.445  0.00  0.00    +0.050 A 
ATOM     20  C   LIG A   1      -8.392  -2.846 124.581  0.00  0.00    +0.010 A 
ENDBRANCH   6  12
BRANCH   4  21
ATOM     21  O   LIG A   1      -7.713   0.094 128.370  0.00  0.00    -0.358 OA
ATOM     22  H   LIG A   1      -8.160   0.102 129.238  0.00  0.00    +0.213 HD
ENDBRANCH   4  21
BRANCH   3  23
ATOM     23  C   LIG A   1      -6.054  -3.163 129.535  0.00  0.00    +0.039 C 
BRANCH  23  24
ATOM     24  C   LIG A   1      -6.323  -4.234 130.559  0.00  0.00    -0.034 C 
ATOM     25  C   LIG A   1      -5.522  -4.479 131.605  0.00  0.00    +0.004 C 
ENDBRANCH  23  24
ENDBRANCH   3  23
TORSDOF 4
ENDMDL
MODEL 8
REMARK VINA RESULT:      -6.9      3.830      7.956
REMARK  Name = NuBBE_2299
REMARK  5 active torsions:
REMARK  status: ('A' for Active; 'I' for Inactive)
REMARK    1  A    between atoms: C_1  and  C_2
REMARK    2  A    between atoms: C_4  and  C_19
REMARK    3  A    between atoms: C_5  and  O_6
REMARK    4  A    between atoms: C_8  and  C_10
REMARK    5  A    between atoms: C_19  and  C_20
REMARK                            x       y       z     vdW  Elec       q    Type
REMARK                         _______ _______ _______ _____ _____    ______ ____
ROOT
ATOM      1  C   LIG A   1      -7.674   0.544 127.619  0.00  0.00    +0.011 C 
ATOM      2  C   LIG A   1      -7.403  -0.724 126.823  0.00  0.00    +0.031 C 
ATOM      3  C   LIG A   1      -7.479  -0.709 125.278  0.00  0.00    +0.041 C 
ATOM      4  C   LIG A   1      -6.752  -2.054 125.017  0.00  0.00    +0.235 C 
ATOM      5  O   LIG A   1      -5.628  -2.040 125.868  0.00  0.00    -0.334 OA
ATOM      6  C   LIG A   1      -5.981  -1.285 127.057  0.00  0.00    +0.156 C 
ATOM      7  C   LIG A   1      -8.917  -0.806 124.719  0.00  0.00    +0.014 C 
ATOM      8  C   LIG A   1      -8.949  -1.169 123.221  0.00  0.00    +0.008 C 
ATOM      9  C   LIG A   1      -8.047  -2.339 122.816  0.00  0.00    +0.080 C 
ATOM     10  C   LIG A   1      -6.688  -2.286 123.495  0.00  0.00    +0.192 C 
ATOM     11  O   LIG A   1      -5.638  -2.514 122.880  0.00  0.00    -0.292 OA
ENDROOT
BRANCH   6  12
ATOM     12  C   LIG A   1      -5.847  -2.158 128.291  0.00  0.00    -0.015 A 
ATOM     13  C   LIG A   1      -4.615  -2.245 128.964  0.00  0.00    +0.055 A 
ATOM     14  C   LIG A   1      -4.533  -3.057 130.080  0.00  0.00    +0.167 A 
ATOM     15  O   LIG A   1      -3.424  -3.249 130.845  0.00  0.00    -0.453 OA
ATOM     16  C   LIG A   1      -3.930  -4.181 131.826  0.00  0.00    +0.466 C 
ATOM     17  O   LIG A   1      -5.320  -4.515 131.641  0.00  0.00    -0.453 OA
ATOM     18  C   LIG A   1      -5.611  -3.777 130.538  0.00  0.00    +0.166 A 
ATOM     19  C   LIG A   1      -6.833  -3.718 129.918  0.00  0.00    +0.050 A 
ATOM     20  C   LIG A   1      -6.946  -2.897 128.795  0.00  0.00    +0.010 A 
ENDBRANCH   6  12
BRANCH   4  21
ATOM     21  O   LIG A   1      -7.531  -3.177 125.452  0.00  0.00    -0.358 OA
ATOM     22  H   LIG A   1      -6.880  -3.727 125.929  0.00  0.00    +0.213 HD
ENDBRANCH   4  21
BRANCH   3  23
ATOM     23  C   LIG A   1      -6.675   0.467 124.612  0.00  0.00    +0.039 C 
BRANCH  23  24
ATOM     24  C   LIG A   1      -7.460   1.695 124.231  0.00  0.00    -0.034 C 
ATOM     25  C   LIG A   1      -7.317   2.334 123.062  0.00  0.00    +0.004 C 
ENDBRANCH  23  24
ENDBRANCH   3  23
TORSDOF 4
ENDMDL
MODEL 9
REMARK VINA RESULT:      -6.8      4.267      8.882
REMARK  Name = NuBBE_2299
REMARK  5 active torsions:
REMARK  status: ('A' for Active; 'I' for Inactive)
REMARK    1  A    between atoms: C_1  and  C_2
REMARK    2  A    between atoms: C_4  and  C_19
REMARK    3  A    between atoms: C_5  and  O_6
REMARK    4  A    between atoms: C_8  and  C_10
REMARK    5  A    between atoms: C_19  and  C_20
REMARK                            x       y       z     vdW  Elec       q    Type
REMARK                         _______ _______ _______ _____ _____    ______ ____
ROOT
ATOM      1  C   LIG A   1      -4.625  -2.620 128.034  0.00  0.00    +0.011 C 
ATOM      2  C   LIG A   1      -5.927  -1.850 127.878  0.00  0.00    +0.031 C 
ATOM      3  C   LIG A   1      -6.466  -1.499 126.470  0.00  0.00    +0.041 C 
ATOM      4  C   LIG A   1      -7.912  -1.121 126.884  0.00  0.00    +0.235 C 
ATOM      5  O   LIG A   1      -8.317  -2.129 127.783  0.00  0.00    -0.334 OA
ATOM      6  C   LIG A   1      -7.138  -2.588 128.496  0.00  0.00    +0.156 C 
ATOM      7  C   LIG A   1      -5.794  -0.262 125.831  0.00  0.00    +0.014 C 
ATOM      8  C   LIG A   1      -6.586   0.289 124.629  0.00  0.00    +0.008 C 
ATOM      9  C   LIG A   1      -8.091   0.453 124.861  0.00  0.00    +0.080 C 
ATOM     10  C   LIG A   1      -8.692  -0.720 125.618  0.00  0.00    +0.192 C 
ATOM     11  O   LIG A   1      -9.771  -1.230 125.287  0.00  0.00    -0.292 OA
ENDROOT
BRANCH   6  12
ATOM     12  C   LIG A   1      -7.310  -2.368 129.988  0.00  0.00    -0.015 A 
ATOM     13  C   LIG A   1      -6.882  -3.350 130.900  0.00  0.00    +0.055 A 
ATOM     14  C   LIG A   1      -7.064  -3.114 132.250  0.00  0.00    +0.167 A 
ATOM     15  O   LIG A   1      -6.704  -3.952 133.260  0.00  0.00    -0.453 OA
ATOM     16  C   LIG A   1      -7.145  -3.197 134.409  0.00  0.00    +0.466 C 
ATOM     17  O   LIG A   1      -7.740  -1.928 134.072  0.00  0.00    -0.453 OA
ATOM     18  C   LIG A   1      -7.650  -1.962 132.717  0.00  0.00    +0.166 A 
ATOM     19  C   LIG A   1      -8.077  -0.974 131.865  0.00  0.00    +0.050 A 
ATOM     20  C   LIG A   1      -7.896  -1.183 130.496  0.00  0.00    +0.010 A 
ENDBRANCH   6  12
BRANCH   4  21
ATOM     21  O   LIG A   1      -7.950   0.092 127.648  0.00  0.00    -0.358 OA
ATOM     22  H   LIG A   1      -8.876   0.387 127.550  0.00  0.00    +0.213 HD
ENDBRANCH   4  21
BRANCH   3  23
ATOM     23  C   LIG A   1      -6.499  -2.719 125.479  0.00  0.00    +0.039 C 
BRANCH  23  24
ATOM     24  C   LIG A   1      -5.374  -2.814 124.482  0.00  0.00    -0.034 C 
ATOM     25  C   LIG A   1      -4.968  -3.966 123.928  0.00  0.00    +0.004 C 
ENDBRANCH  23  24
ENDBRANCH   3  23
TORSDOF 4
ENDMDL
