MODEL 1
REMARK VINA RESULT:      -7.2      0.000      0.000
REMARK  Name = NuBBE_287
REMARK  6 active torsions:
REMARK  status: ('A' for Active; 'I' for Inactive)
REMARK    1  A    between atoms: O_1  and  C_2
REMARK    2  A    between atoms: C_4  and  C_16
REMARK    3  A    between atoms: C_10  and  O_11
REMARK    4  A    between atoms: C_13  and  O_15
REMARK    5  A    between atoms: C_18  and  O_19
REMARK    6  A    between atoms: C_20  and  O_23
REMARK                            x       y       z     vdW  Elec       q    Type
REMARK                         _______ _______ _______ _____ _____    ______ ____
ROOT
ATOM      1  C   LIG A   1      -9.614   5.665 132.330  0.00  0.00    +0.164 C 
ATOM      2  C   LIG A   1     -10.655   5.290 131.256  0.00  0.00    +0.232 C 
ATOM      3  O   LIG A   1     -10.091   4.456 130.234  0.00  0.00    -0.481 OA
ATOM      4  C   LIG A   1      -9.331   3.408 130.675  0.00  0.00    +0.132 A 
ATOM      5  C   LIG A   1      -8.817   3.304 131.975  0.00  0.00    +0.038 A 
ATOM      6  C   LIG A   1      -9.096   4.383 132.979  0.00  0.00    +0.078 C 
ATOM      7  C   LIG A   1      -8.066   2.164 132.298  0.00  0.00    +0.127 A 
ATOM      8  C   LIG A   1      -7.794   1.181 131.347  0.00  0.00    +0.091 A 
ATOM      9  C   LIG A   1      -8.287   1.326 130.059  0.00  0.00    +0.124 A 
ATOM     10  C   LIG A   1      -9.054   2.431 129.717  0.00  0.00    +0.091 A 
ENDROOT
BRANCH   2  11
ATOM     11  C   LIG A   1     -11.225   6.525 130.570  0.00  0.00    -0.001 A 
ATOM     12  C   LIG A   1     -10.558   7.119 129.482  0.00  0.00    +0.056 A 
ATOM     13  C   LIG A   1     -11.093   8.253 128.879  0.00  0.00    +0.159 A 
ATOM     14  C   LIG A   1     -12.277   8.807 129.349  0.00  0.00    +0.158 A 
ATOM     15  C   LIG A   1     -12.951   8.241 130.420  0.00  0.00    +0.049 A 
ATOM     16  C   LIG A   1     -12.427   7.098 131.030  0.00  0.00    +0.011 A 
BRANCH  13  17
ATOM     17  O   LIG A   1     -10.485   8.857 127.813  0.00  0.00    -0.503 OA
ATOM     18  H   LIG A   1     -10.008   8.174 127.312  0.00  0.00    +0.292 HD
ENDBRANCH  13  17
BRANCH  14  19
ATOM     19  O   LIG A   1     -12.793   9.923 128.753  0.00  0.00    -0.503 OA
ATOM     20  H   LIG A   1     -13.719   9.958 129.065  0.00  0.00    +0.292 HD
ENDBRANCH  14  19
ENDBRANCH   2  11
BRANCH   1  21
ATOM     21  O   LIG A   1     -10.124   6.504 133.372  0.00  0.00    -0.388 OA
ATOM     22  H   LIG A   1     -10.314   7.385 133.008  0.00  0.00    +0.210 HD
ENDBRANCH   1  21
BRANCH   7  23
ATOM     23  O   LIG A   1      -7.550   1.938 133.544  0.00  0.00    -0.506 OA
ATOM     24  H   LIG A   1      -7.802   1.055 133.857  0.00  0.00    +0.292 HD
ENDBRANCH   7  23
BRANCH   9  25
ATOM     25  O   LIG A   1      -8.042   0.395 129.094  0.00  0.00    -0.506 OA
ATOM     26  H   LIG A   1      -8.551   0.630 128.300  0.00  0.00    +0.292 HD
ENDBRANCH   9  25
TORSDOF 6
ENDMDL
MODEL 2
REMARK VINA RESULT:      -7.2      7.984      9.505
REMARK  Name = NuBBE_287
REMARK  6 active torsions:
REMARK  status: ('A' for Active; 'I' for Inactive)
REMARK    1  A    between atoms: O_1  and  C_2
REMARK    2  A    between atoms: C_4  and  C_16
REMARK    3  A    between atoms: C_10  and  O_11
REMARK    4  A    between atoms: C_13  and  O_15
REMARK    5  A    between atoms: C_18  and  O_19
REMARK    6  A    between atoms: C_20  and  O_23
REMARK                            x       y       z     vdW  Elec       q    Type
REMARK                         _______ _______ _______ _____ _____    ______ ____
ROOT
ATOM      1  C   LIG A   1      -8.124   2.211 124.143  0.00  0.00    +0.164 C 
ATOM      2  C   LIG A   1      -7.378   1.864 122.839  0.00  0.00    +0.232 C 
ATOM      3  O   LIG A   1      -6.524   0.723 123.000  0.00  0.00    -0.481 OA
ATOM      4  C   LIG A   1      -7.082  -0.352 123.636  0.00  0.00    +0.132 A 
ATOM      5  C   LIG A   1      -8.257  -0.290 124.398  0.00  0.00    +0.038 A 
ATOM      6  C   LIG A   1      -8.982   1.014 124.551  0.00  0.00    +0.078 C 
ATOM      7  C   LIG A   1      -8.727  -1.475 124.982  0.00  0.00    +0.127 A 
ATOM      8  C   LIG A   1      -8.029  -2.675 124.852  0.00  0.00    +0.091 A 
ATOM      9  C   LIG A   1      -6.851  -2.701 124.119  0.00  0.00    +0.124 A 
ATOM     10  C   LIG A   1      -6.374  -1.549 123.510  0.00  0.00    +0.091 A 
ENDROOT
BRANCH   2  11
ATOM     11  C   LIG A   1      -6.507   3.019 122.365  0.00  0.00    -0.001 A 
ATOM     12  C   LIG A   1      -6.518   3.428 121.018  0.00  0.00    +0.056 A 
ATOM     13  C   LIG A   1      -5.705   4.480 120.607  0.00  0.00    +0.159 A 
ATOM     14  C   LIG A   1      -4.874   5.123 121.517  0.00  0.00    +0.158 A 
ATOM     15  C   LIG A   1      -4.844   4.737 122.848  0.00  0.00    +0.049 A 
ATOM     16  C   LIG A   1      -5.662   3.687 123.274  0.00  0.00    +0.011 A 
BRANCH  13  17
ATOM     17  O   LIG A   1      -5.692   4.918 119.312  0.00  0.00    -0.503 OA
ATOM     18  H   LIG A   1      -5.993   4.188 118.745  0.00  0.00    +0.292 HD
ENDBRANCH  13  17
BRANCH  14  19
ATOM     19  O   LIG A   1      -4.077   6.152 121.104  0.00  0.00    -0.503 OA
ATOM     20  H   LIG A   1      -3.963   5.999 120.144  0.00  0.00    +0.292 HD
ENDBRANCH  14  19
ENDBRANCH   2  11
BRANCH   1  21
ATOM     21  O   LIG A   1      -8.987   3.349 124.039  0.00  0.00    -0.388 OA
ATOM     22  H   LIG A   1      -8.588   4.096 124.515  0.00  0.00    +0.210 HD
ENDBRANCH   1  21
BRANCH   7  23
ATOM     23  O   LIG A   1      -9.882  -1.540 125.712  0.00  0.00    -0.506 OA
ATOM     24  H   LIG A   1      -9.681  -1.738 126.640  0.00  0.00    +0.292 HD
ENDBRANCH   7  23
BRANCH   9  25
ATOM     25  O   LIG A   1      -6.130  -3.848 123.969  0.00  0.00    -0.506 OA
ATOM     26  H   LIG A   1      -5.349  -3.801 124.544  0.00  0.00    +0.292 HD
ENDBRANCH   9  25
TORSDOF 6
ENDMDL
MODEL 3
REMARK VINA RESULT:      -7.0      1.597      3.280
REMARK  Name = NuBBE_287
REMARK  6 active torsions:
REMARK  status: ('A' for Active; 'I' for Inactive)
REMARK    1  A    between atoms: O_1  and  C_2
REMARK    2  A    between atoms: C_4  and  C_16
REMARK    3  A    between atoms: C_10  and  O_11
REMARK    4  A    between atoms: C_13  and  O_15
REMARK    5  A    between atoms: C_18  and  O_19
REMARK    6  A    between atoms: C_20  and  O_23
REMARK                            x       y       z     vdW  Elec       q    Type
REMARK                         _______ _______ _______ _____ _____    ______ ____
ROOT
ATOM      1  C   LIG A   1     -10.320   4.357 131.048  0.00  0.00    +0.164 C 
ATOM      2  C   LIG A   1      -9.661   5.746 130.935  0.00  0.00    +0.232 C 
ATOM      3  O   LIG A   1      -9.279   6.261 132.218  0.00  0.00    -0.481 OA
ATOM      4  C   LIG A   1      -8.619   5.387 133.037  0.00  0.00    +0.132 A 
ATOM      5  C   LIG A   1      -8.595   3.998 132.846  0.00  0.00    +0.038 A 
ATOM      6  C   LIG A   1      -9.322   3.390 131.683  0.00  0.00    +0.078 C 
ATOM      7  C   LIG A   1      -7.863   3.220 133.755  0.00  0.00    +0.127 A 
ATOM      8  C   LIG A   1      -7.213   3.796 134.845  0.00  0.00    +0.091 A 
ATOM      9  C   LIG A   1      -7.280   5.170 135.029  0.00  0.00    +0.124 A 
ATOM     10  C   LIG A   1      -7.977   5.968 134.132  0.00  0.00    +0.091 A 
ENDROOT
BRANCH   2  11
ATOM     11  C   LIG A   1     -10.599   6.764 130.300  0.00  0.00    -0.001 A 
ATOM     12  C   LIG A   1     -10.295   7.348 129.055  0.00  0.00    +0.056 A 
ATOM     13  C   LIG A   1     -11.162   8.283 128.499  0.00  0.00    +0.159 A 
ATOM     14  C   LIG A   1     -12.322   8.651 129.170  0.00  0.00    +0.158 A 
ATOM     15  C   LIG A   1     -12.641   8.092 130.397  0.00  0.00    +0.049 A 
ATOM     16  C   LIG A   1     -11.782   7.146 130.962  0.00  0.00    +0.011 A 
BRANCH  13  17
ATOM     17  O   LIG A   1     -10.913   8.867 127.288  0.00  0.00    -0.503 OA
ATOM     18  H   LIG A   1     -11.536   9.605 127.177  0.00  0.00    +0.292 HD
ENDBRANCH  13  17
BRANCH  14  19
ATOM     19  O   LIG A   1     -13.166   9.573 128.619  0.00  0.00    -0.503 OA
ATOM     20  H   LIG A   1     -13.357   9.222 127.726  0.00  0.00    +0.292 HD
ENDBRANCH  14  19
ENDBRANCH   2  11
BRANCH   1  21
ATOM     21  O   LIG A   1     -10.728   3.799 129.795  0.00  0.00    -0.388 OA
ATOM     22  H   LIG A   1     -11.138   4.495 129.254  0.00  0.00    +0.210 HD
ENDBRANCH   1  21
BRANCH   7  23
ATOM     23  O   LIG A   1      -7.738   1.863 133.643  0.00  0.00    -0.506 OA
ATOM     24  H   LIG A   1      -7.355   1.630 132.783  0.00  0.00    +0.292 HD
ENDBRANCH   7  23
BRANCH   9  25
ATOM     25  O   LIG A   1      -6.666   5.778 136.083  0.00  0.00    -0.506 OA
ATOM     26  H   LIG A   1      -7.121   5.516 136.900  0.00  0.00    +0.292 HD
ENDBRANCH   9  25
TORSDOF 6
ENDMDL
MODEL 4
REMARK VINA RESULT:      -6.9      7.183      9.938
REMARK  Name = NuBBE_287
REMARK  6 active torsions:
REMARK  status: ('A' for Active; 'I' for Inactive)
REMARK    1  A    between atoms: O_1  and  C_2
REMARK    2  A    between atoms: C_4  and  C_16
REMARK    3  A    between atoms: C_10  and  O_11
REMARK    4  A    between atoms: C_13  and  O_15
REMARK    5  A    between atoms: C_18  and  O_19
REMARK    6  A    between atoms: C_20  and  O_23
REMARK                            x       y       z     vdW  Elec       q    Type
REMARK                         _______ _______ _______ _____ _____    ______ ____
ROOT
ATOM      1  C   LIG A   1      -5.878  -1.574 127.586  0.00  0.00    +0.164 C 
ATOM      2  C   LIG A   1      -6.793  -2.673 128.162  0.00  0.00    +0.232 C 
ATOM      3  O   LIG A   1      -8.047  -2.741 127.468  0.00  0.00    -0.481 OA
ATOM      4  C   LIG A   1      -7.972  -2.727 126.103  0.00  0.00    +0.132 A 
ATOM      5  C   LIG A   1      -6.836  -2.328 125.384  0.00  0.00    +0.038 A 
ATOM      6  C   LIG A   1      -5.604  -1.885 126.115  0.00  0.00    +0.078 C 
ATOM      7  C   LIG A   1      -6.891  -2.378 123.983  0.00  0.00    +0.127 A 
ATOM      8  C   LIG A   1      -8.052  -2.768 123.316  0.00  0.00    +0.091 A 
ATOM      9  C   LIG A   1      -9.172  -3.126 124.052  0.00  0.00    +0.124 A 
ATOM     10  C   LIG A   1      -9.139  -3.110 125.439  0.00  0.00    +0.091 A 
ENDROOT
BRANCH   2  11
ATOM     11  C   LIG A   1      -7.103  -2.432 129.634  0.00  0.00    -0.001 A 
ATOM     12  C   LIG A   1      -7.788  -1.274 130.048  0.00  0.00    +0.056 A 
ATOM     13  C   LIG A   1      -8.050  -1.071 131.399  0.00  0.00    +0.159 A 
ATOM     14  C   LIG A   1      -7.630  -2.001 132.344  0.00  0.00    +0.158 A 
ATOM     15  C   LIG A   1      -6.953  -3.148 131.960  0.00  0.00    +0.049 A 
ATOM     16  C   LIG A   1      -6.691  -3.366 130.605  0.00  0.00    +0.011 A 
BRANCH  13  17
ATOM     17  O   LIG A   1      -8.722   0.032 131.846  0.00  0.00    -0.503 OA
ATOM     18  H   LIG A   1      -9.331  -0.251 132.549  0.00  0.00    +0.292 HD
ENDBRANCH  13  17
BRANCH  14  19
ATOM     19  O   LIG A   1      -7.889  -1.792 133.668  0.00  0.00    -0.503 OA
ATOM     20  H   LIG A   1      -7.483  -0.923 133.860  0.00  0.00    +0.292 HD
ENDBRANCH  14  19
ENDBRANCH   2  11
BRANCH   1  21
ATOM     21  O   LIG A   1      -4.615  -1.458 128.248  0.00  0.00    -0.388 OA
ATOM     22  H   LIG A   1      -4.678  -1.862 129.130  0.00  0.00    +0.210 HD
ENDBRANCH   1  21
BRANCH   7  23
ATOM     23  O   LIG A   1      -5.832  -2.051 123.182  0.00  0.00    -0.506 OA
ATOM     24  H   LIG A   1      -5.701  -2.732 122.504  0.00  0.00    +0.292 HD
ENDBRANCH   7  23
BRANCH   9  25
ATOM     25  O   LIG A   1     -10.331  -3.509 123.445  0.00  0.00    -0.506 OA
ATOM     26  H   LIG A   1     -10.192  -4.375 123.027  0.00  0.00    +0.292 HD
ENDBRANCH   9  25
TORSDOF 6
ENDMDL
MODEL 5
REMARK VINA RESULT:      -6.9      7.129      8.872
REMARK  Name = NuBBE_287
REMARK  6 active torsions:
REMARK  status: ('A' for Active; 'I' for Inactive)
REMARK    1  A    between atoms: O_1  and  C_2
REMARK    2  A    between atoms: C_4  and  C_16
REMARK    3  A    between atoms: C_10  and  O_11
REMARK    4  A    between atoms: C_13  and  O_15
REMARK    5  A    between atoms: C_18  and  O_19
REMARK    6  A    between atoms: C_20  and  O_23
REMARK                            x       y       z     vdW  Elec       q    Type
REMARK                         _______ _______ _______ _____ _____    ______ ____
ROOT
ATOM      1  C   LIG A   1      -8.101   3.194 123.891  0.00  0.00    +0.164 C 
ATOM      2  C   LIG A   1      -6.729   2.751 123.346  0.00  0.00    +0.232 C 
ATOM      3  O   LIG A   1      -5.693   2.899 124.327  0.00  0.00    -0.481 OA
ATOM      4  C   LIG A   1      -5.985   2.425 125.577  0.00  0.00    +0.132 A 
ATOM      5  C   LIG A   1      -7.282   2.131 126.020  0.00  0.00    +0.038 A 
ATOM      6  C   LIG A   1      -8.451   2.330 125.102  0.00  0.00    +0.078 C 
ATOM      7  C   LIG A   1      -7.437   1.635 127.324  0.00  0.00    +0.127 A 
ATOM      8  C   LIG A   1      -6.344   1.478 128.175  0.00  0.00    +0.091 A 
ATOM      9  C   LIG A   1      -5.075   1.808 127.720  0.00  0.00    +0.124 A 
ATOM     10  C   LIG A   1      -4.889   2.278 126.428  0.00  0.00    +0.091 A 
ENDROOT
BRANCH   2  11
ATOM     11  C   LIG A   1      -6.318   3.565 122.127  0.00  0.00    -0.001 A 
ATOM     12  C   LIG A   1      -5.258   4.489 122.199  0.00  0.00    +0.056 A 
ATOM     13  C   LIG A   1      -4.908   5.229 121.075  0.00  0.00    +0.159 A 
ATOM     14  C   LIG A   1      -5.605   5.069 119.882  0.00  0.00    +0.158 A 
ATOM     15  C   LIG A   1      -6.653   4.168 119.788  0.00  0.00    +0.049 A 
ATOM     16  C   LIG A   1      -7.009   3.413 120.909  0.00  0.00    +0.011 A 
BRANCH  13  17
ATOM     17  O   LIG A   1      -3.878   6.129 121.095  0.00  0.00    -0.503 OA
ATOM     18  H   LIG A   1      -4.043   6.790 120.402  0.00  0.00    +0.292 HD
ENDBRANCH  13  17
BRANCH  14  19
ATOM     19  O   LIG A   1      -5.256   5.803 118.785  0.00  0.00    -0.503 OA
ATOM     20  H   LIG A   1      -5.030   5.134 118.108  0.00  0.00    +0.292 HD
ENDBRANCH  14  19
ENDBRANCH   2  11
BRANCH   1  21
ATOM     21  O   LIG A   1      -9.172   3.073 122.948  0.00  0.00    -0.388 OA
ATOM     22  H   LIG A   1      -8.921   2.433 122.261  0.00  0.00    +0.210 HD
ENDBRANCH   1  21
BRANCH   7  23
ATOM     23  O   LIG A   1      -8.649   1.278 127.847  0.00  0.00    -0.506 OA
ATOM     24  H   LIG A   1      -8.905   1.894 128.551  0.00  0.00    +0.292 HD
ENDBRANCH   7  23
BRANCH   9  25
ATOM     25  O   LIG A   1      -3.977   1.678 128.518  0.00  0.00    -0.506 OA
ATOM     26  H   LIG A   1      -3.419   0.965 128.164  0.00  0.00    +0.292 HD
ENDBRANCH   9  25
TORSDOF 6
ENDMDL
MODEL 6
REMARK VINA RESULT:      -6.8      3.234      6.362
REMARK  Name = NuBBE_287
REMARK  6 active torsions:
REMARK  status: ('A' for Active; 'I' for Inactive)
REMARK    1  A    between atoms: O_1  and  C_2
REMARK    2  A    between atoms: C_4  and  C_16
REMARK    3  A    between atoms: C_10  and  O_11
REMARK    4  A    between atoms: C_13  and  O_15
REMARK    5  A    between atoms: C_18  and  O_19
REMARK    6  A    between atoms: C_20  and  O_23
REMARK                            x       y       z     vdW  Elec       q    Type
REMARK                         _______ _______ _______ _____ _____    ______ ____
ROOT
ATOM      1  C   LIG A   1      -9.388   5.994 132.188  0.00  0.00    +0.164 C 
ATOM      2  C   LIG A   1      -8.531   6.715 131.129  0.00  0.00    +0.232 C 
ATOM      3  O   LIG A   1      -9.071   6.558 129.809  0.00  0.00    -0.481 OA
ATOM      4  C   LIG A   1     -10.417   6.769 129.688  0.00  0.00    +0.132 A 
ATOM      5  C   LIG A   1     -11.307   6.794 130.770  0.00  0.00    +0.038 A 
ATOM      6  C   LIG A   1     -10.797   6.584 132.165  0.00  0.00    +0.078 C 
ATOM      7  C   LIG A   1     -12.663   7.039 130.503  0.00  0.00    +0.127 A 
ATOM      8  C   LIG A   1     -13.127   7.208 129.199  0.00  0.00    +0.091 A 
ATOM      9  C   LIG A   1     -12.228   7.146 128.144  0.00  0.00    +0.124 A 
ATOM     10  C   LIG A   1     -10.877   6.929 128.380  0.00  0.00    +0.091 A 
ENDROOT
BRANCH   2  11
ATOM     11  C   LIG A   1      -7.105   6.183 131.102  0.00  0.00    -0.001 A 
ATOM     12  C   LIG A   1      -6.005   7.063 131.116  0.00  0.00    +0.056 A 
ATOM     13  C   LIG A   1      -4.712   6.553 131.080  0.00  0.00    +0.159 A 
ATOM     14  C   LIG A   1      -4.498   5.181 131.020  0.00  0.00    +0.158 A 
ATOM     15  C   LIG A   1      -5.564   4.296 131.003  0.00  0.00    +0.049 A 
ATOM     16  C   LIG A   1      -6.868   4.795 131.046  0.00  0.00    +0.011 A 
BRANCH  13  17
ATOM     17  O   LIG A   1      -3.614   7.369 131.104  0.00  0.00    -0.503 OA
ATOM     18  H   LIG A   1      -3.203   7.345 130.224  0.00  0.00    +0.292 HD
ENDBRANCH  13  17
BRANCH  14  19
ATOM     19  O   LIG A   1      -3.224   4.690 130.982  0.00  0.00    -0.503 OA
ATOM     20  H   LIG A   1      -3.011   4.495 131.916  0.00  0.00    +0.292 HD
ENDBRANCH  14  19
ENDBRANCH   2  11
BRANCH   1  21
ATOM     21  O   LIG A   1      -8.889   6.113 133.525  0.00  0.00    -0.388 OA
ATOM     22  H   LIG A   1      -9.270   6.907 133.938  0.00  0.00    +0.210 HD
ENDBRANCH   1  21
BRANCH   7  23
ATOM     23  O   LIG A   1     -13.613   7.124 131.483  0.00  0.00    -0.506 OA
ATOM     24  H   LIG A   1     -13.837   6.240 131.812  0.00  0.00    +0.292 HD
ENDBRANCH   7  23
BRANCH   9  25
ATOM     25  O   LIG A   1     -12.634   7.299 126.852  0.00  0.00    -0.506 OA
ATOM     26  H   LIG A   1     -11.903   7.683 126.340  0.00  0.00    +0.292 HD
ENDBRANCH   9  25
TORSDOF 6
ENDMDL
MODEL 7
REMARK VINA RESULT:      -6.8      6.887     10.468
REMARK  Name = NuBBE_287
REMARK  6 active torsions:
REMARK  status: ('A' for Active; 'I' for Inactive)
REMARK    1  A    between atoms: O_1  and  C_2
REMARK    2  A    between atoms: C_4  and  C_16
REMARK    3  A    between atoms: C_10  and  O_11
REMARK    4  A    between atoms: C_13  and  O_15
REMARK    5  A    between atoms: C_18  and  O_19
REMARK    6  A    between atoms: C_20  and  O_23
REMARK                            x       y       z     vdW  Elec       q    Type
REMARK                         _______ _______ _______ _____ _____    ______ ____
ROOT
ATOM      1  C   LIG A   1      -8.003  -2.559 125.487  0.00  0.00    +0.164 C 
ATOM      2  C   LIG A   1      -8.195  -1.855 126.845  0.00  0.00    +0.232 C 
ATOM      3  O   LIG A   1      -7.926  -0.449 126.761  0.00  0.00    -0.481 OA
ATOM      4  C   LIG A   1      -8.495   0.202 125.701  0.00  0.00    +0.132 A 
ATOM      5  C   LIG A   1      -9.012  -0.443 124.569  0.00  0.00    +0.038 A 
ATOM      6  C   LIG A   1      -8.964  -1.939 124.473  0.00  0.00    +0.078 C 
ATOM      7  C   LIG A   1      -9.584   0.348 123.562  0.00  0.00    +0.127 A 
ATOM      8  C   LIG A   1      -9.600   1.740 123.653  0.00  0.00    +0.091 A 
ATOM      9  C   LIG A   1      -9.050   2.354 124.770  0.00  0.00    +0.124 A 
ATOM     10  C   LIG A   1      -8.500   1.596 125.793  0.00  0.00    +0.091 A 
ENDROOT
BRANCH   2  11
ATOM     11  C   LIG A   1      -7.273  -2.430 127.912  0.00  0.00    -0.001 A 
ATOM     12  C   LIG A   1      -5.891  -2.162 127.892  0.00  0.00    +0.056 A 
ATOM     13  C   LIG A   1      -5.066  -2.707 128.871  0.00  0.00    +0.159 A 
ATOM     14  C   LIG A   1      -5.598  -3.522 129.864  0.00  0.00    +0.158 A 
ATOM     15  C   LIG A   1      -6.955  -3.802 129.902  0.00  0.00    +0.049 A 
ATOM     16  C   LIG A   1      -7.794  -3.254 128.929  0.00  0.00    +0.011 A 
BRANCH  13  17
ATOM     17  O   LIG A   1      -3.721  -2.464 128.899  0.00  0.00    -0.503 OA
ATOM     18  H   LIG A   1      -3.363  -2.659 128.016  0.00  0.00    +0.292 HD
ENDBRANCH  13  17
BRANCH  14  19
ATOM     19  O   LIG A   1      -4.780  -4.056 130.819  0.00  0.00    -0.503 OA
ATOM     20  H   LIG A   1      -4.920  -5.021 130.745  0.00  0.00    +0.292 HD
ENDBRANCH  14  19
ENDBRANCH   2  11
BRANCH   1  21
ATOM     21  O   LIG A   1      -8.253  -3.968 125.517  0.00  0.00    -0.388 OA
ATOM     22  H   LIG A   1      -8.004  -4.355 124.660  0.00  0.00    +0.210 HD
ENDBRANCH   1  21
BRANCH   7  23
ATOM     23  O   LIG A   1     -10.153  -0.175 122.434  0.00  0.00    -0.506 OA
ATOM     24  H   LIG A   1      -9.505  -0.206 121.714  0.00  0.00    +0.292 HD
ENDBRANCH   7  23
BRANCH   9  25
ATOM     25  O   LIG A   1      -9.037   3.711 124.902  0.00  0.00    -0.506 OA
ATOM     26  H   LIG A   1      -9.850   3.986 125.357  0.00  0.00    +0.292 HD
ENDBRANCH   9  25
TORSDOF 6
ENDMDL
MODEL 8
REMARK VINA RESULT:      -6.7      7.319     10.385
REMARK  Name = NuBBE_287
REMARK  6 active torsions:
REMARK  status: ('A' for Active; 'I' for Inactive)
REMARK    1  A    between atoms: O_1  and  C_2
REMARK    2  A    between atoms: C_4  and  C_16
REMARK    3  A    between atoms: C_10  and  O_11
REMARK    4  A    between atoms: C_13  and  O_15
REMARK    5  A    between atoms: C_18  and  O_19
REMARK    6  A    between atoms: C_20  and  O_23
REMARK                            x       y       z     vdW  Elec       q    Type
REMARK                         _______ _______ _______ _____ _____    ______ ____
ROOT
ATOM      1  C   LIG A   1      -7.931   2.245 123.748  0.00  0.00    +0.164 C 
ATOM      2  C   LIG A   1      -6.860   3.241 124.235  0.00  0.00    +0.232 C 
ATOM      3  O   LIG A   1      -5.902   3.539 123.209  0.00  0.00    -0.481 OA
ATOM      4  C   LIG A   1      -6.422   3.825 121.977  0.00  0.00    +0.132 A 
ATOM      5  C   LIG A   1      -7.737   3.528 121.591  0.00  0.00    +0.038 A 
ATOM      6  C   LIG A   1      -8.667   2.859 122.559  0.00  0.00    +0.078 C 
ATOM      7  C   LIG A   1      -8.144   3.893 120.299  0.00  0.00    +0.127 A 
ATOM      8  C   LIG A   1      -7.260   4.492 119.402  0.00  0.00    +0.091 A 
ATOM      9  C   LIG A   1      -5.955   4.744 119.800  0.00  0.00    +0.124 A 
ATOM     10  C   LIG A   1      -5.531   4.417 121.080  0.00  0.00    +0.091 A 
ENDROOT
BRANCH   2  11
ATOM     11  C   LIG A   1      -6.089   2.697 125.431  0.00  0.00    -0.001 A 
ATOM     12  C   LIG A   1      -5.914   1.312 125.608  0.00  0.00    +0.056 A 
ATOM     13  C   LIG A   1      -5.215   0.839 126.714  0.00  0.00    +0.159 A 
ATOM     14  C   LIG A   1      -4.696   1.726 127.650  0.00  0.00    +0.158 A 
ATOM     15  C   LIG A   1      -4.857   3.094 127.497  0.00  0.00    +0.049 A 
ATOM     16  C   LIG A   1      -5.551   3.581 126.387  0.00  0.00    +0.011 A 
BRANCH  13  17
ATOM     17  O   LIG A   1      -5.011  -0.498 126.921  0.00  0.00    -0.503 OA
ATOM     18  H   LIG A   1      -5.696  -0.985 126.433  0.00  0.00    +0.292 HD
ENDBRANCH  13  17
BRANCH  14  19
ATOM     19  O   LIG A   1      -4.014   1.252 128.734  0.00  0.00    -0.503 OA
ATOM     20  H   LIG A   1      -3.115   1.070 128.394  0.00  0.00    +0.292 HD
ENDBRANCH  14  19
ENDBRANCH   2  11
BRANCH   1  21
ATOM     21  O   LIG A   1      -8.909   1.907 124.737  0.00  0.00    -0.388 OA
ATOM     22  H   LIG A   1      -8.520   1.278 125.369  0.00  0.00    +0.210 HD
ENDBRANCH   1  21
BRANCH   7  23
ATOM     23  O   LIG A   1      -9.412   3.689 119.831  0.00  0.00    -0.506 OA
ATOM     24  H   LIG A   1      -9.690   2.776 120.001  0.00  0.00    +0.292 HD
ENDBRANCH   7  23
BRANCH   9  25
ATOM     25  O   LIG A   1      -5.053   5.323 118.956  0.00  0.00    -0.506 OA
ATOM     26  H   LIG A   1      -4.973   4.770 118.161  0.00  0.00    +0.292 HD
ENDBRANCH   9  25
TORSDOF 6
ENDMDL
MODEL 9
REMARK VINA RESULT:      -6.7      9.469     11.090
REMARK  Name = NuBBE_287
REMARK  6 active torsions:
REMARK  status: ('A' for Active; 'I' for Inactive)
REMARK    1  A    between atoms: O_1  and  C_2
REMARK    2  A    between atoms: C_4  and  C_16
REMARK    3  A    between atoms: C_10  and  O_11
REMARK    4  A    between atoms: C_13  and  O_15
REMARK    5  A    between atoms: C_18  and  O_19
REMARK    6  A    between atoms: C_20  and  O_23
REMARK                            x       y       z     vdW  Elec       q    Type
REMARK                         _______ _______ _______ _____ _____    ______ ____
ROOT
ATOM      1  C   LIG A   1      -8.039  -3.490 127.736  0.00  0.00    +0.164 C 
ATOM      2  C   LIG A   1      -6.878  -2.476 127.772  0.00  0.00    +0.232 C 
ATOM      3  O   LIG A   1      -6.109  -2.503 126.562  0.00  0.00    -0.481 OA
ATOM      4  C   LIG A   1      -6.829  -2.497 125.399  0.00  0.00    +0.132 A 
ATOM      5  C   LIG A   1      -8.197  -2.793 125.322  0.00  0.00    +0.038 A 
ATOM      6  C   LIG A   1      -8.959  -3.141 126.567  0.00  0.00    +0.078 C 
ATOM      7  C   LIG A   1      -8.815  -2.733 124.065  0.00  0.00    +0.127 A 
ATOM      8  C   LIG A   1      -8.089  -2.432 122.913  0.00  0.00    +0.091 A 
ATOM      9  C   LIG A   1      -6.730  -2.175 123.014  0.00  0.00    +0.124 A 
ATOM     10  C   LIG A   1      -6.096  -2.204 124.248  0.00  0.00    +0.091 A 
ENDROOT
BRANCH   2  11
ATOM     11  C   LIG A   1      -5.922  -2.757 128.924  0.00  0.00    -0.001 A 
ATOM     12  C   LIG A   1      -4.586  -2.317 128.877  0.00  0.00    +0.056 A 
ATOM     13  C   LIG A   1      -3.728  -2.594 129.936  0.00  0.00    +0.159 A 
ATOM     14  C   LIG A   1      -4.181  -3.313 131.037  0.00  0.00    +0.158 A 
ATOM     15  C   LIG A   1      -5.491  -3.759 131.104  0.00  0.00    +0.049 A 
ATOM     16  C   LIG A   1      -6.364  -3.480 130.050  0.00  0.00    +0.011 A 
BRANCH  13  17
ATOM     17  O   LIG A   1      -2.426  -2.176 129.940  0.00  0.00    -0.503 OA
ATOM     18  H   LIG A   1      -1.946  -2.685 129.265  0.00  0.00    +0.292 HD
ENDBRANCH  13  17
BRANCH  14  19
ATOM     19  O   LIG A   1      -3.331  -3.585 132.071  0.00  0.00    -0.503 OA
ATOM     20  H   LIG A   1      -2.505  -3.117 131.834  0.00  0.00    +0.292 HD
ENDBRANCH  14  19
ENDBRANCH   2  11
BRANCH   1  21
ATOM     21  O   LIG A   1      -8.837  -3.509 128.925  0.00  0.00    -0.388 OA
ATOM     22  H   LIG A   1      -8.287  -3.795 129.673  0.00  0.00    +0.210 HD
ENDBRANCH   1  21
BRANCH   7  23
ATOM     23  O   LIG A   1     -10.150  -2.963 123.877  0.00  0.00    -0.506 OA
ATOM     24  H   LIG A   1     -10.283  -3.796 123.398  0.00  0.00    +0.292 HD
ENDBRANCH   7  23
BRANCH   9  25
ATOM     25  O   LIG A   1      -5.977  -1.883 121.916  0.00  0.00    -0.506 OA
ATOM     26  H   LIG A   1      -6.536  -1.420 121.270  0.00  0.00    +0.292 HD
ENDBRANCH   9  25
TORSDOF 6
ENDMDL
