MODEL 1
REMARK VINA RESULT:      -7.3      0.000      0.000
REMARK  Name = NuBBE_2235
REMARK  7 active torsions:
REMARK  status: ('A' for Active; 'I' for Inactive)
REMARK    1  A    between atoms: C_1  and  C_2
REMARK    2  A    between atoms: C_8  and  O_9
REMARK    3  A    between atoms: C_10  and  O_12
REMARK    4  A    between atoms: O_12  and  C_13
REMARK    5  A    between atoms: C_13  and  C_14
REMARK    6  A    between atoms: C_23  and  C_24
REMARK    7  A    between atoms: C_23  and  C_25
REMARK                            x       y       z     vdW  Elec       q    Type
REMARK                         _______ _______ _______ _____ _____    ______ ____
ROOT
ATOM      1  C   LIG A   1      -8.269   0.125 126.679  0.00  0.00    +0.014 C 
ATOM      2  C   LIG A   1      -7.380  -1.088 126.272  0.00  0.00    +0.004 C 
ATOM      3  C   LIG A   1      -8.448  -2.082 125.645  0.00  0.00    +0.003 C 
ATOM      4  C   LIG A   1      -9.212  -2.851 126.744  0.00  0.00    +0.005 C 
ATOM      5  C   LIG A   1      -8.323  -3.563 127.746  0.00  0.00    +0.010 C 
ATOM      6  C   LIG A   1      -7.381  -2.616 128.496  0.00  0.00    +0.008 C 
ATOM      7  C   LIG A   1      -8.114  -1.836 129.628  0.00  0.00    +0.040 C 
ATOM      8  C   LIG A   1      -6.539  -1.715 127.503  0.00  0.00    +0.114 C 
ATOM      9  C   LIG A   1      -5.592  -0.730 128.324  0.00  0.00    +0.209 C 
ATOM     10  C   LIG A   1      -4.930  -1.445 129.542  0.00  0.00    +0.055 C 
ATOM     11  C   LIG A   1      -5.828  -2.442 130.294  0.00  0.00    +0.019 C 
ATOM     12  C   LIG A   1      -6.400  -3.479 129.342  0.00  0.00    +0.018 C 
ATOM     13  C   LIG A   1      -7.112  -1.819 130.763  0.00  0.00    -0.073 C 
ATOM     14  C   LIG A   1      -7.385  -1.498 132.033  0.00  0.00    +0.008 C 
ATOM     15  C   LIG A   1      -8.092  -2.908 124.356  0.00  0.00    -0.032 C 
ATOM     16  C   LIG A   1      -7.473  -4.284 124.640  0.00  0.00    +0.011 C 
ATOM     17  C   LIG A   1      -9.402  -3.165 123.557  0.00  0.00    +0.011 C 
ATOM     18  C   LIG A   1      -7.176  -2.105 123.410  0.00  0.00    +0.007 C 
ATOM     19  C   LIG A   1      -5.963  -1.537 124.108  0.00  0.00    +0.001 C 
ATOM     20  C   LIG A   1      -6.392  -0.547 125.182  0.00  0.00    +0.010 C 
ENDROOT
BRANCH   8  21
ATOM     21  O   LIG A   1      -5.630  -2.670 126.879  0.00  0.00    -0.384 OA
ATOM     22  H   LIG A   1      -5.126  -3.125 127.575  0.00  0.00    +0.210 HD
ENDBRANCH   8  21
BRANCH   9  23
ATOM     23  O   LIG A   1      -6.239   0.478 128.795  0.00  0.00    -0.459 OA
BRANCH  23  24
ATOM     24  C   LIG A   1      -5.485   1.613 128.863  0.00  0.00    +0.304 C 
ATOM     25  C   LIG A   1      -4.901   1.969 127.528  0.00  0.00    +0.136 C 
ATOM     26  O   LIG A   1      -5.186   2.208 129.904  0.00  0.00    -0.251 OA
ENDBRANCH  23  24
ENDBRANCH   9  23
TORSDOF 3
ENDMDL
MODEL 2
REMARK VINA RESULT:      -7.2      1.784      2.200
REMARK  Name = NuBBE_2235
REMARK  7 active torsions:
REMARK  status: ('A' for Active; 'I' for Inactive)
REMARK    1  A    between atoms: C_1  and  C_2
REMARK    2  A    between atoms: C_8  and  O_9
REMARK    3  A    between atoms: C_10  and  O_12
REMARK    4  A    between atoms: O_12  and  C_13
REMARK    5  A    between atoms: C_13  and  C_14
REMARK    6  A    between atoms: C_23  and  C_24
REMARK    7  A    between atoms: C_23  and  C_25
REMARK                            x       y       z     vdW  Elec       q    Type
REMARK                         _______ _______ _______ _____ _____    ______ ____
ROOT
ATOM      1  C   LIG A   1      -9.212   0.658 125.633  0.00  0.00    +0.014 C 
ATOM      2  C   LIG A   1      -7.998  -0.245 125.261  0.00  0.00    +0.004 C 
ATOM      3  C   LIG A   1      -8.679  -1.674 125.131  0.00  0.00    +0.003 C 
ATOM      4  C   LIG A   1      -8.896  -2.320 126.515  0.00  0.00    +0.005 C 
ATOM      5  C   LIG A   1      -7.652  -2.384 127.381  0.00  0.00    +0.010 C 
ATOM      6  C   LIG A   1      -7.047  -1.006 127.669  0.00  0.00    +0.008 C 
ATOM      7  C   LIG A   1      -7.834  -0.241 128.773  0.00  0.00    +0.040 C 
ATOM      8  C   LIG A   1      -6.794  -0.185 126.340  0.00  0.00    +0.114 C 
ATOM      9  C   LIG A   1      -6.188   1.249 126.686  0.00  0.00    +0.209 C 
ATOM     10  C   LIG A   1      -5.115   1.166 127.814  0.00  0.00    +0.055 C 
ATOM     11  C   LIG A   1      -5.419   0.172 128.949  0.00  0.00    +0.019 C 
ATOM     12  C   LIG A   1      -5.686  -1.217 128.393  0.00  0.00    +0.018 C 
ATOM     13  C   LIG A   1      -6.751   0.427 129.594  0.00  0.00    -0.073 C 
ATOM     14  C   LIG A   1      -6.921   0.974 130.803  0.00  0.00    +0.008 C 
ATOM     15  C   LIG A   1      -8.241  -2.651 123.981  0.00  0.00    -0.032 C 
ATOM     16  C   LIG A   1      -7.097  -3.602 124.364  0.00  0.00    +0.011 C 
ATOM     17  C   LIG A   1      -9.456  -3.546 123.604  0.00  0.00    +0.011 C 
ATOM     18  C   LIG A   1      -7.875  -1.880 122.697  0.00  0.00    +0.007 C 
ATOM     19  C   LIG A   1      -6.884  -0.766 122.942  0.00  0.00    +0.001 C 
ATOM     20  C   LIG A   1      -7.488   0.275 123.874  0.00  0.00    +0.010 C 
ENDROOT
BRANCH   8  21
ATOM     21  O   LIG A   1      -5.697  -0.908 125.707  0.00  0.00    -0.384 OA
ATOM     22  H   LIG A   1      -6.067  -1.584 125.114  0.00  0.00    +0.210 HD
ENDBRANCH   8  21
BRANCH   9  23
ATOM     23  O   LIG A   1      -7.171   2.246 127.058  0.00  0.00    -0.459 OA
BRANCH  23  24
ATOM     24  C   LIG A   1      -6.971   3.523 126.621  0.00  0.00    +0.304 C 
ATOM     25  C   LIG A   1      -6.400   3.549 125.234  0.00  0.00    +0.136 C 
ATOM     26  O   LIG A   1      -7.099   4.540 127.311  0.00  0.00    -0.251 OA
ENDBRANCH  23  24
ENDBRANCH   9  23
TORSDOF 3
ENDMDL
MODEL 3
REMARK VINA RESULT:      -7.1      2.755      6.028
REMARK  Name = NuBBE_2235
REMARK  7 active torsions:
REMARK  status: ('A' for Active; 'I' for Inactive)
REMARK    1  A    between atoms: C_1  and  C_2
REMARK    2  A    between atoms: C_8  and  O_9
REMARK    3  A    between atoms: C_10  and  O_12
REMARK    4  A    between atoms: O_12  and  C_13
REMARK    5  A    between atoms: C_13  and  C_14
REMARK    6  A    between atoms: C_23  and  C_24
REMARK    7  A    between atoms: C_23  and  C_25
REMARK                            x       y       z     vdW  Elec       q    Type
REMARK                         _______ _______ _______ _____ _____    ______ ____
ROOT
ATOM      1  C   LIG A   1      -6.435  -0.708 127.320  0.00  0.00    +0.014 C 
ATOM      2  C   LIG A   1      -6.516   0.473 126.307  0.00  0.00    +0.004 C 
ATOM      3  C   LIG A   1      -7.468   1.493 127.066  0.00  0.00    +0.003 C 
ATOM      4  C   LIG A   1      -8.951   1.096 126.914  0.00  0.00    +0.005 C 
ATOM      5  C   LIG A   1      -9.402   0.890 125.480  0.00  0.00    +0.010 C 
ATOM      6  C   LIG A   1      -8.615  -0.203 124.751  0.00  0.00    +0.008 C 
ATOM      7  C   LIG A   1      -9.086  -1.631 125.155  0.00  0.00    +0.040 C 
ATOM      8  C   LIG A   1      -7.053   0.035 124.845  0.00  0.00    +0.114 C 
ATOM      9  C   LIG A   1      -6.272  -1.136 124.096  0.00  0.00    +0.209 C 
ATOM     10  C   LIG A   1      -6.962  -1.524 122.752  0.00  0.00    +0.055 C 
ATOM     11  C   LIG A   1      -8.500  -1.523 122.771  0.00  0.00    +0.019 C 
ATOM     12  C   LIG A   1      -9.034  -0.185 123.253  0.00  0.00    +0.018 C 
ATOM     13  C   LIG A   1      -9.062  -2.402 123.852  0.00  0.00    -0.073 C 
ATOM     14  C   LIG A   1      -9.637  -3.593 123.645  0.00  0.00    +0.008 C 
ATOM     15  C   LIG A   1      -7.165   3.034 127.020  0.00  0.00    -0.032 C 
ATOM     16  C   LIG A   1      -7.849   3.777 125.863  0.00  0.00    +0.011 C 
ATOM     17  C   LIG A   1      -7.688   3.680 128.335  0.00  0.00    +0.011 C 
ATOM     18  C   LIG A   1      -5.647   3.308 126.995  0.00  0.00    +0.007 C 
ATOM     19  C   LIG A   1      -4.926   2.526 125.922  0.00  0.00    +0.001 C 
ATOM     20  C   LIG A   1      -5.057   1.033 126.186  0.00  0.00    +0.010 C 
ENDROOT
BRANCH   8  21
ATOM     21  O   LIG A   1      -6.846   1.212 124.009  0.00  0.00    -0.384 OA
ATOM     22  H   LIG A   1      -7.652   1.755 124.026  0.00  0.00    +0.210 HD
ENDBRANCH   8  21
BRANCH   9  23
ATOM     23  O   LIG A   1      -6.087  -2.339 124.883  0.00  0.00    -0.459 OA
BRANCH  23  24
ATOM     24  C   LIG A   1      -5.613  -3.446 124.243  0.00  0.00    +0.304 C 
ATOM     25  C   LIG A   1      -4.315  -3.165 123.542  0.00  0.00    +0.136 C 
ATOM     26  O   LIG A   1      -6.222  -4.513 124.117  0.00  0.00    -0.251 OA
ENDBRANCH  23  24
ENDBRANCH   9  23
TORSDOF 3
ENDMDL
MODEL 4
REMARK VINA RESULT:      -7.1      2.213      5.781
REMARK  Name = NuBBE_2235
REMARK  7 active torsions:
REMARK  status: ('A' for Active; 'I' for Inactive)
REMARK    1  A    between atoms: C_1  and  C_2
REMARK    2  A    between atoms: C_8  and  O_9
REMARK    3  A    between atoms: C_10  and  O_12
REMARK    4  A    between atoms: O_12  and  C_13
REMARK    5  A    between atoms: C_13  and  C_14
REMARK    6  A    between atoms: C_23  and  C_24
REMARK    7  A    between atoms: C_23  and  C_25
REMARK                            x       y       z     vdW  Elec       q    Type
REMARK                         _______ _______ _______ _____ _____    ______ ____
ROOT
ATOM      1  C   LIG A   1      -9.012   0.939 126.966  0.00  0.00    +0.014 C 
ATOM      2  C   LIG A   1      -7.579   1.158 126.397  0.00  0.00    +0.004 C 
ATOM      3  C   LIG A   1      -7.748   2.519 125.597  0.00  0.00    +0.003 C 
ATOM      4  C   LIG A   1      -8.395   2.282 124.216  0.00  0.00    +0.005 C 
ATOM      5  C   LIG A   1      -7.702   1.232 123.369  0.00  0.00    +0.010 C 
ATOM      6  C   LIG A   1      -7.657  -0.147 124.036  0.00  0.00    +0.008 C 
ATOM      7  C   LIG A   1      -9.019  -0.893 123.931  0.00  0.00    +0.040 C 
ATOM      8  C   LIG A   1      -7.046  -0.075 125.495  0.00  0.00    +0.114 C 
ATOM      9  C   LIG A   1      -7.040  -1.524 126.160  0.00  0.00    +0.209 C 
ATOM     10  C   LIG A   1      -6.606  -2.625 125.145  0.00  0.00    +0.055 C 
ATOM     11  C   LIG A   1      -7.130  -2.447 123.709  0.00  0.00    +0.019 C 
ATOM     12  C   LIG A   1      -6.762  -1.077 123.166  0.00  0.00    +0.018 C 
ATOM     13  C   LIG A   1      -8.626  -2.328 123.653  0.00  0.00    -0.073 C 
ATOM     14  C   LIG A   1      -9.452  -3.289 123.222  0.00  0.00    +0.008 C 
ATOM     15  C   LIG A   1      -6.611   3.603 125.641  0.00  0.00    -0.032 C 
ATOM     16  C   LIG A   1      -5.564   3.466 124.525  0.00  0.00    +0.011 C 
ATOM     17  C   LIG A   1      -7.260   5.007 125.473  0.00  0.00    +0.011 C 
ATOM     18  C   LIG A   1      -5.911   3.628 127.016  0.00  0.00    +0.007 C 
ATOM     19  C   LIG A   1      -5.450   2.262 127.465  0.00  0.00    +0.001 C 
ATOM     20  C   LIG A   1      -6.647   1.338 127.644  0.00  0.00    +0.010 C 
ENDROOT
BRANCH   8  21
ATOM     21  O   LIG A   1      -5.640   0.228 125.252  0.00  0.00    -0.384 OA
ATOM     22  H   LIG A   1      -5.408   1.043 125.727  0.00  0.00    +0.210 HD
ENDBRANCH   8  21
BRANCH   9  23
ATOM     23  O   LIG A   1      -8.299  -1.919 126.759  0.00  0.00    -0.459 OA
BRANCH  23  24
ATOM     24  C   LIG A   1      -8.262  -2.867 127.739  0.00  0.00    +0.304 C 
ATOM     25  C   LIG A   1      -7.270  -2.516 128.809  0.00  0.00    +0.136 C 
ATOM     26  O   LIG A   1      -8.852  -3.952 127.704  0.00  0.00    -0.251 OA
ENDBRANCH  23  24
ENDBRANCH   9  23
TORSDOF 3
ENDMDL
MODEL 5
REMARK VINA RESULT:      -6.9      1.626      5.712
REMARK  Name = NuBBE_2235
REMARK  7 active torsions:
REMARK  status: ('A' for Active; 'I' for Inactive)
REMARK    1  A    between atoms: C_1  and  C_2
REMARK    2  A    between atoms: C_8  and  O_9
REMARK    3  A    between atoms: C_10  and  O_12
REMARK    4  A    between atoms: O_12  and  C_13
REMARK    5  A    between atoms: C_13  and  C_14
REMARK    6  A    between atoms: C_23  and  C_24
REMARK    7  A    between atoms: C_23  and  C_25
REMARK                            x       y       z     vdW  Elec       q    Type
REMARK                         _______ _______ _______ _____ _____    ______ ____
ROOT
ATOM      1  C   LIG A   1      -8.605  -3.242 128.694  0.00  0.00    +0.014 C 
ATOM      2  C   LIG A   1      -7.229  -2.785 129.264  0.00  0.00    +0.004 C 
ATOM      3  C   LIG A   1      -7.647  -2.131 130.649  0.00  0.00    +0.003 C 
ATOM      4  C   LIG A   1      -8.183  -0.697 130.453  0.00  0.00    +0.005 C 
ATOM      5  C   LIG A   1      -7.258   0.218 129.672  0.00  0.00    +0.010 C 
ATOM      6  C   LIG A   1      -6.952  -0.295 128.262  0.00  0.00    +0.008 C 
ATOM      7  C   LIG A   1      -8.126  -0.029 127.274  0.00  0.00    +0.040 C 
ATOM      8  C   LIG A   1      -6.421  -1.786 128.280  0.00  0.00    +0.114 C 
ATOM      9  C   LIG A   1      -6.139  -2.288 126.793  0.00  0.00    +0.209 C 
ATOM     10  C   LIG A   1      -5.451  -1.185 125.932  0.00  0.00    +0.055 C 
ATOM     11  C   LIG A   1      -5.949   0.251 126.171  0.00  0.00    +0.019 C 
ATOM     12  C   LIG A   1      -5.855   0.618 127.642  0.00  0.00    +0.018 C 
ATOM     13  C   LIG A   1      -7.435   0.381 125.991  0.00  0.00    -0.073 C 
ATOM     14  C   LIG A   1      -8.029   0.963 124.942  0.00  0.00    +0.008 C 
ATOM     15  C   LIG A   1      -6.761  -2.360 131.926  0.00  0.00    -0.032 C 
ATOM     16  C   LIG A   1      -5.671  -1.299 132.137  0.00  0.00    +0.011 C 
ATOM     17  C   LIG A   1      -7.680  -2.309 133.180  0.00  0.00    +0.011 C 
ATOM     18  C   LIG A   1      -6.131  -3.768 131.927  0.00  0.00    +0.007 C 
ATOM     19  C   LIG A   1      -5.413  -4.092 130.638  0.00  0.00    +0.001 C 
ATOM     20  C   LIG A   1      -6.399  -4.097 129.478  0.00  0.00    +0.010 C 
ENDROOT
BRANCH   8  21
ATOM     21  O   LIG A   1      -5.101  -1.661 128.887  0.00  0.00    -0.384 OA
ATOM     22  H   LIG A   1      -4.542  -1.110 128.313  0.00  0.00    +0.210 HD
ENDBRANCH   8  21
BRANCH   9  23
ATOM     23  O   LIG A   1      -7.309  -2.764 126.084  0.00  0.00    -0.459 OA
BRANCH  23  24
ATOM     24  C   LIG A   1      -7.153  -3.118 124.776  0.00  0.00    +0.304 C 
ATOM     25  C   LIG A   1      -8.312  -2.660 123.938  0.00  0.00    +0.136 C 
ATOM     26  O   LIG A   1      -6.257  -3.846 124.336  0.00  0.00    -0.251 OA
ENDBRANCH  23  24
ENDBRANCH   9  23
TORSDOF 3
ENDMDL
MODEL 6
REMARK VINA RESULT:      -6.8      5.105      8.886
REMARK  Name = NuBBE_2235
REMARK  7 active torsions:
REMARK  status: ('A' for Active; 'I' for Inactive)
REMARK    1  A    between atoms: C_1  and  C_2
REMARK    2  A    between atoms: C_8  and  O_9
REMARK    3  A    between atoms: C_10  and  O_12
REMARK    4  A    between atoms: O_12  and  C_13
REMARK    5  A    between atoms: C_13  and  C_14
REMARK    6  A    between atoms: C_23  and  C_24
REMARK    7  A    between atoms: C_23  and  C_25
REMARK                            x       y       z     vdW  Elec       q    Type
REMARK                         _______ _______ _______ _____ _____    ______ ____
ROOT
ATOM      1  C   LIG A   1      -4.205   3.106 130.510  0.00  0.00    +0.014 C 
ATOM      2  C   LIG A   1      -4.424   4.632 130.292  0.00  0.00    +0.004 C 
ATOM      3  C   LIG A   1      -3.316   5.262 131.239  0.00  0.00    +0.003 C 
ATOM      4  C   LIG A   1      -3.779   5.279 132.711  0.00  0.00    +0.005 C 
ATOM      5  C   LIG A   1      -5.129   5.933 132.938  0.00  0.00    +0.010 C 
ATOM      6  C   LIG A   1      -6.265   5.255 132.164  0.00  0.00    +0.008 C 
ATOM      7  C   LIG A   1      -6.735   3.939 132.849  0.00  0.00    +0.040 C 
ATOM      8  C   LIG A   1      -5.930   5.123 130.623  0.00  0.00    +0.114 C 
ATOM      9  C   LIG A   1      -7.125   4.392 129.862  0.00  0.00    +0.209 C 
ATOM     10  C   LIG A   1      -8.517   4.891 130.357  0.00  0.00    +0.055 C 
ATOM     11  C   LIG A   1      -8.627   5.161 131.868  0.00  0.00    +0.019 C 
ATOM     12  C   LIG A   1      -7.545   6.125 132.324  0.00  0.00    +0.018 C 
ATOM     13  C   LIG A   1      -8.240   3.967 132.694  0.00  0.00    -0.073 C 
ATOM     14  C   LIG A   1      -9.103   3.184 133.354  0.00  0.00    +0.008 C 
ATOM     15  C   LIG A   1      -2.499   6.518 130.766  0.00  0.00    -0.032 C 
ATOM     16  C   LIG A   1      -3.125   7.864 131.163  0.00  0.00    +0.011 C 
ATOM     17  C   LIG A   1      -1.092   6.470 131.427  0.00  0.00    +0.011 C 
ATOM     18  C   LIG A   1      -2.248   6.485 129.244  0.00  0.00    +0.007 C 
ATOM     19  C   LIG A   1      -3.509   6.258 128.445  0.00  0.00    +0.001 C 
ATOM     20  C   LIG A   1      -4.104   4.898 128.781  0.00  0.00    +0.010 C 
ENDROOT
BRANCH   8  21
ATOM     21  O   LIG A   1      -5.979   6.502 130.153  0.00  0.00    -0.384 OA
ATOM     22  H   LIG A   1      -5.607   6.542 129.255  0.00  0.00    +0.210 HD
ENDBRANCH   8  21
BRANCH   9  23
ATOM     23  O   LIG A   1      -7.098   2.945 129.943  0.00  0.00    -0.459 OA
BRANCH  23  24
ATOM     24  C   LIG A   1      -8.153   2.264 129.412  0.00  0.00    +0.304 C 
ATOM     25  C   LIG A   1      -8.557   1.107 130.280  0.00  0.00    +0.136 C 
ATOM     26  O   LIG A   1      -8.641   2.462 128.294  0.00  0.00    -0.251 OA
ENDBRANCH  23  24
ENDBRANCH   9  23
TORSDOF 3
ENDMDL
MODEL 7
REMARK VINA RESULT:      -6.8      2.555      5.695
REMARK  Name = NuBBE_2235
REMARK  7 active torsions:
REMARK  status: ('A' for Active; 'I' for Inactive)
REMARK    1  A    between atoms: C_1  and  C_2
REMARK    2  A    between atoms: C_8  and  O_9
REMARK    3  A    between atoms: C_10  and  O_12
REMARK    4  A    between atoms: O_12  and  C_13
REMARK    5  A    between atoms: C_13  and  C_14
REMARK    6  A    between atoms: C_23  and  C_24
REMARK    7  A    between atoms: C_23  and  C_25
REMARK                            x       y       z     vdW  Elec       q    Type
REMARK                         _______ _______ _______ _____ _____    ______ ____
ROOT
ATOM      1  C   LIG A   1      -5.412   1.409 126.391  0.00  0.00    +0.014 C 
ATOM      2  C   LIG A   1      -6.692   0.726 126.960  0.00  0.00    +0.004 C 
ATOM      3  C   LIG A   1      -6.114  -0.066 128.209  0.00  0.00    +0.003 C 
ATOM      4  C   LIG A   1      -5.449  -1.389 127.776  0.00  0.00    +0.005 C 
ATOM      5  C   LIG A   1      -6.327  -2.283 126.920  0.00  0.00    +0.010 C 
ATOM      6  C   LIG A   1      -6.780  -1.614 125.618  0.00  0.00    +0.008 C 
ATOM      7  C   LIG A   1      -5.655  -1.606 124.541  0.00  0.00    +0.040 C 
ATOM      8  C   LIG A   1      -7.458  -0.208 125.884  0.00  0.00    +0.114 C 
ATOM      9  C   LIG A   1      -7.892   0.463 124.505  0.00  0.00    +0.209 C 
ATOM     10  C   LIG A   1      -8.521  -0.578 123.528  0.00  0.00    +0.055 C 
ATOM     11  C   LIG A   1      -7.863  -1.969 123.526  0.00  0.00    +0.019 C 
ATOM     12  C   LIG A   1      -7.818  -2.547 124.930  0.00  0.00    +0.018 C 
ATOM     13  C   LIG A   1      -6.387  -1.906 123.251  0.00  0.00    -0.073 C 
ATOM     14  C   LIG A   1      -5.810  -2.264 122.097  0.00  0.00    +0.008 C 
ATOM     15  C   LIG A   1      -6.929  -0.118 129.552  0.00  0.00    -0.032 C 
ATOM     16  C   LIG A   1      -7.887  -1.313 129.662  0.00  0.00    +0.011 C 
ATOM     17  C   LIG A   1      -5.925  -0.243 130.734  0.00  0.00    +0.011 C 
ATOM     18  C   LIG A   1      -7.699   1.196 129.794  0.00  0.00    +0.007 C 
ATOM     19  C   LIG A   1      -8.533   1.616 128.606  0.00  0.00    +0.001 C 
ATOM     20  C   LIG A   1      -7.635   1.894 127.408  0.00  0.00    +0.010 C 
ENDROOT
BRANCH   8  21
ATOM     21  O   LIG A   1      -8.714  -0.564 126.535  0.00  0.00    -0.384 OA
ATOM     22  H   LIG A   1      -8.627  -1.450 126.925  0.00  0.00    +0.210 HD
ENDBRANCH   8  21
BRANCH   9  23
ATOM     23  O   LIG A   1      -6.828   1.161 123.812  0.00  0.00    -0.459 OA
BRANCH  23  24
ATOM     24  C   LIG A   1      -7.141   2.340 123.201  0.00  0.00    +0.304 C 
ATOM     25  C   LIG A   1      -8.225   3.073 123.936  0.00  0.00    +0.136 C 
ATOM     26  O   LIG A   1      -6.706   2.713 122.106  0.00  0.00    -0.251 OA
ENDBRANCH  23  24
ENDBRANCH   9  23
TORSDOF 3
ENDMDL
MODEL 8
REMARK VINA RESULT:      -6.7      5.629      8.221
REMARK  Name = NuBBE_2235
REMARK  7 active torsions:
REMARK  status: ('A' for Active; 'I' for Inactive)
REMARK    1  A    between atoms: C_1  and  C_2
REMARK    2  A    between atoms: C_8  and  O_9
REMARK    3  A    between atoms: C_10  and  O_12
REMARK    4  A    between atoms: O_12  and  C_13
REMARK    5  A    between atoms: C_13  and  C_14
REMARK    6  A    between atoms: C_23  and  C_24
REMARK    7  A    between atoms: C_23  and  C_25
REMARK                            x       y       z     vdW  Elec       q    Type
REMARK                         _______ _______ _______ _____ _____    ______ ____
ROOT
ATOM      1  C   LIG A   1      -4.351   3.957 132.162  0.00  0.00    +0.014 C 
ATOM      2  C   LIG A   1      -5.585   4.502 131.383  0.00  0.00    +0.004 C 
ATOM      3  C   LIG A   1      -6.644   3.335 131.587  0.00  0.00    +0.003 C 
ATOM      4  C   LIG A   1      -6.387   2.167 130.612  0.00  0.00    +0.005 C 
ATOM      5  C   LIG A   1      -6.296   2.575 129.154  0.00  0.00    +0.010 C 
ATOM      6  C   LIG A   1      -5.177   3.584 128.878  0.00  0.00    +0.008 C 
ATOM      7  C   LIG A   1      -3.777   2.906 128.825  0.00  0.00    +0.040 C 
ATOM      8  C   LIG A   1      -5.273   4.843 129.833  0.00  0.00    +0.114 C 
ATOM      9  C   LIG A   1      -4.078   5.855 129.530  0.00  0.00    +0.209 C 
ATOM     10  C   LIG A   1      -3.823   6.006 127.999  0.00  0.00    +0.055 C 
ATOM     11  C   LIG A   1      -3.957   4.715 127.172  0.00  0.00    +0.019 C 
ATOM     12  C   LIG A   1      -5.310   4.064 127.404  0.00  0.00    +0.018 C 
ATOM     13  C   LIG A   1      -3.076   3.611 127.683  0.00  0.00    -0.073 C 
ATOM     14  C   LIG A   1      -1.953   3.194 127.087  0.00  0.00    +0.008 C 
ATOM     15  C   LIG A   1      -8.153   3.681 131.856  0.00  0.00    -0.032 C 
ATOM     16  C   LIG A   1      -9.012   3.785 130.587  0.00  0.00    +0.011 C 
ATOM     17  C   LIG A   1      -8.773   2.548 132.722  0.00  0.00    +0.011 C 
ATOM     18  C   LIG A   1      -8.293   4.970 132.692  0.00  0.00    +0.007 C 
ATOM     19  C   LIG A   1      -7.509   6.129 132.122  0.00  0.00    +0.001 C 
ATOM     20  C   LIG A   1      -6.021   5.807 132.132  0.00  0.00    +0.010 C 
ENDROOT
BRANCH   8  21
ATOM     21  O   LIG A   1      -6.469   5.529 129.359  0.00  0.00    -0.384 OA
ATOM     22  H   LIG A   1      -6.757   6.165 130.037  0.00  0.00    +0.210 HD
ENDBRANCH   8  21
BRANCH   9  23
ATOM     23  O   LIG A   1      -2.825   5.520 130.175  0.00  0.00    -0.459 OA
BRANCH  23  24
ATOM     24  C   LIG A   1      -2.194   6.505 130.878  0.00  0.00    +0.304 C 
ATOM     25  C   LIG A   1      -3.119   7.648 131.179  0.00  0.00    +0.136 C 
ATOM     26  O   LIG A   1      -0.983   6.542 131.123  0.00  0.00    -0.251 OA
ENDBRANCH  23  24
ENDBRANCH   9  23
TORSDOF 3
ENDMDL
MODEL 9
REMARK VINA RESULT:      -6.7      4.869      7.146
REMARK  Name = NuBBE_2235
REMARK  7 active torsions:
REMARK  status: ('A' for Active; 'I' for Inactive)
REMARK    1  A    between atoms: C_1  and  C_2
REMARK    2  A    between atoms: C_8  and  O_9
REMARK    3  A    between atoms: C_10  and  O_12
REMARK    4  A    between atoms: O_12  and  C_13
REMARK    5  A    between atoms: C_13  and  C_14
REMARK    6  A    between atoms: C_23  and  C_24
REMARK    7  A    between atoms: C_23  and  C_25
REMARK                            x       y       z     vdW  Elec       q    Type
REMARK                         _______ _______ _______ _____ _____    ______ ____
ROOT
ATOM      1  C   LIG A   1     -10.050   2.247 131.747  0.00  0.00    +0.014 C 
ATOM      2  C   LIG A   1      -8.690   2.339 130.992  0.00  0.00    +0.004 C 
ATOM      3  C   LIG A   1      -8.097   0.881 131.203  0.00  0.00    +0.003 C 
ATOM      4  C   LIG A   1      -7.455   0.733 132.599  0.00  0.00    +0.005 C 
ATOM      5  C   LIG A   1      -6.426   1.796 132.933  0.00  0.00    +0.010 C 
ATOM      6  C   LIG A   1      -6.995   3.218 132.899  0.00  0.00    +0.008 C 
ATOM      7  C   LIG A   1      -7.821   3.549 134.177  0.00  0.00    +0.040 C 
ATOM      8  C   LIG A   1      -7.731   3.525 131.532  0.00  0.00    +0.114 C 
ATOM      9  C   LIG A   1      -8.327   5.003 131.548  0.00  0.00    +0.209 C 
ATOM     10  C   LIG A   1      -7.335   6.020 132.190  0.00  0.00    +0.055 C 
ATOM     11  C   LIG A   1      -6.547   5.502 133.405  0.00  0.00    +0.019 C 
ATOM     12  C   LIG A   1      -5.813   4.216 133.065  0.00  0.00    +0.018 C 
ATOM     13  C   LIG A   1      -7.443   4.981 134.491  0.00  0.00    -0.073 C 
ATOM     14  C   LIG A   1      -7.691   5.612 135.645  0.00  0.00    +0.008 C 
ATOM     15  C   LIG A   1      -7.347   0.159 130.026  0.00  0.00    -0.032 C 
ATOM     16  C   LIG A   1      -5.832   0.408 129.998  0.00  0.00    +0.011 C 
ATOM     17  C   LIG A   1      -7.543  -1.376 130.183  0.00  0.00    +0.011 C 
ATOM     18  C   LIG A   1      -7.964   0.522 128.660  0.00  0.00    +0.007 C 
ATOM     19  C   LIG A   1      -8.102   2.013 128.455  0.00  0.00    +0.001 C 
ATOM     20  C   LIG A   1      -9.052   2.598 129.490  0.00  0.00    +0.010 C 
ENDROOT
BRANCH   8  21
ATOM     21  O   LIG A   1      -6.636   3.577 130.570  0.00  0.00    -0.384 OA
ATOM     22  H   LIG A   1      -6.776   4.332 129.974  0.00  0.00    +0.210 HD
ENDBRANCH   8  21
BRANCH   9  23
ATOM     23  O   LIG A   1      -9.610   5.130 132.211  0.00  0.00    -0.459 OA
BRANCH  23  24
ATOM     24  C   LIG A   1     -10.526   5.975 131.657  0.00  0.00    +0.304 C 
ATOM     25  C   LIG A   1     -10.462   5.953 130.158  0.00  0.00    +0.136 C 
ATOM     26  O   LIG A   1     -11.229   6.774 132.285  0.00  0.00    -0.251 OA
ENDBRANCH  23  24
ENDBRANCH   9  23
TORSDOF 3
ENDMDL
