MODEL 1
REMARK VINA RESULT:      -7.2      0.000      0.000
REMARK  Name = NuBBE_2524
REMARK  11 active torsions:
REMARK  status: ('A' for Active; 'I' for Inactive)
REMARK    1  A    between atoms: C_1  and  O_2
REMARK    2  A    between atoms: O_2  and  C_3
REMARK    3  A    between atoms: C_4  and  O_5
REMARK    4  A    between atoms: O_5  and  C_6
REMARK    5  A    between atoms: C_7  and  O_8
REMARK    6  A    between atoms: O_8  and  C_9
REMARK    7  A    between atoms: C_10  and  O_11
REMARK    8  A    between atoms: C_16  and  C_17
REMARK    9  A    between atoms: C_20  and  O_21
REMARK   10  A    between atoms: O_21  and  C_22
REMARK   11  A    between atoms: C_23  and  O_24
REMARK                            x       y       z     vdW  Elec       q    Type
REMARK                         _______ _______ _______ _____ _____    ______ ____
ROOT
ATOM      1  C   UNL A   1      -6.451  -1.348 125.764  0.00  0.00    +0.209 A 
ATOM      2  C   UNL A   1      -7.263  -1.177 124.586  0.00  0.00    +0.211 A 
ATOM      3  C   UNL A   1      -8.560  -1.706 124.564  0.00  0.00    +0.208 A 
ATOM      4  C   UNL A   1      -9.004  -2.433 125.688  0.00  0.00    +0.177 A 
ATOM      5  C   UNL A   1      -8.200  -2.665 126.806  0.00  0.00    +0.113 A 
ATOM      6  C   UNL A   1      -8.651  -3.567 127.886  0.00  0.00    +0.197 A 
ATOM      7  O   UNL A   1      -9.731  -4.140 127.924  0.00  0.00    -0.287 OA
ATOM      8  C   UNL A   1      -7.712  -3.801 128.979  0.00  0.00    +0.098 A 
ATOM      9  C   UNL A   1      -6.519  -3.191 128.979  0.00  0.00    +0.140 A 
ATOM     10  O   UNL A   1      -6.086  -2.356 127.950  0.00  0.00    -0.451 OA
ATOM     11  C   UNL A   1      -6.918  -2.112 126.866  0.00  0.00    +0.188 A 
ENDROOT
BRANCH   9  12
ATOM     12  C   UNL A   1      -5.571  -3.437 130.101  0.00  0.00    +0.021 A 
ATOM     13  C   UNL A   1      -5.730  -4.523 130.976  0.00  0.00    +0.015 A 
ATOM     14  C   UNL A   1      -4.871  -4.710 132.078  0.00  0.00    +0.050 A 
ATOM     15  C   UNL A   1      -3.841  -3.800 132.332  0.00  0.00    +0.161 A 
ATOM     16  C   UNL A   1      -3.665  -2.742 131.449  0.00  0.00    +0.159 A 
ATOM     17  C   UNL A   1      -4.496  -2.563 130.345  0.00  0.00    +0.060 A 
BRANCH  15  18
ATOM     18  O   UNL A   1      -2.967  -3.826 133.385  0.00  0.00    -0.491 OA
ATOM     19  C   UNL A   1      -2.588  -5.103 133.881  0.00  0.00    +0.277 C 
ENDBRANCH  15  18
BRANCH  16  20
ATOM     20  O   UNL A   1      -2.673  -1.824 131.662  0.00  0.00    -0.503 OA
ATOM     21  H   UNL A   1      -3.112  -0.953 131.592  0.00  0.00    +0.292 HD
ENDBRANCH  16  20
ENDBRANCH   9  12
BRANCH   1  23
ATOM     22  C   UNL A   1      -4.986   0.498 126.205  0.00  0.00    +0.277 C 
ATOM     23  O   UNL A   1      -5.183  -0.809 125.674  0.00  0.00    -0.488 OA
ENDBRANCH   1  23
BRANCH   2  24
ATOM     24  O   UNL A   1      -6.624  -0.723 123.458  0.00  0.00    -0.488 OA
ATOM     25  C   UNL A   1      -6.266  -1.696 122.483  0.00  0.00    +0.277 C 
ENDBRANCH   2  24
BRANCH   3  26
ATOM     26  O   UNL A   1      -9.528  -1.744 123.601  0.00  0.00    -0.488 OA
ATOM     27  C   UNL A   1      -9.831  -0.677 122.734  0.00  0.00    +0.277 C 
ENDBRANCH   3  26
BRANCH   4  28
ATOM     28  O   UNL A   1     -10.270  -2.968 125.618  0.00  0.00    -0.503 OA
ATOM     29  H   UNL A   1     -10.244  -3.632 124.904  0.00  0.00    +0.292 HD
ENDBRANCH   4  28
TORSDOF 7
ENDMDL
MODEL 2
REMARK VINA RESULT:      -7.0      8.147     10.393
REMARK  Name = NuBBE_2524
REMARK  11 active torsions:
REMARK  status: ('A' for Active; 'I' for Inactive)
REMARK    1  A    between atoms: C_1  and  O_2
REMARK    2  A    between atoms: O_2  and  C_3
REMARK    3  A    between atoms: C_4  and  O_5
REMARK    4  A    between atoms: O_5  and  C_6
REMARK    5  A    between atoms: C_7  and  O_8
REMARK    6  A    between atoms: O_8  and  C_9
REMARK    7  A    between atoms: C_10  and  O_11
REMARK    8  A    between atoms: C_16  and  C_17
REMARK    9  A    between atoms: C_20  and  O_21
REMARK   10  A    between atoms: O_21  and  C_22
REMARK   11  A    between atoms: C_23  and  O_24
REMARK                            x       y       z     vdW  Elec       q    Type
REMARK                         _______ _______ _______ _____ _____    ______ ____
ROOT
ATOM      1  C   UNL A   1      -8.572   2.274 129.002  0.00  0.00    +0.209 A 
ATOM      2  C   UNL A   1      -7.778   1.109 129.296  0.00  0.00    +0.211 A 
ATOM      3  C   UNL A   1      -7.606   0.714 130.629  0.00  0.00    +0.208 A 
ATOM      4  C   UNL A   1      -8.183   1.510 131.640  0.00  0.00    +0.177 A 
ATOM      5  C   UNL A   1      -8.896   2.680 131.370  0.00  0.00    +0.113 A 
ATOM      6  C   UNL A   1      -9.342   3.562 132.468  0.00  0.00    +0.197 A 
ATOM      7  O   UNL A   1      -9.173   3.350 133.660  0.00  0.00    -0.287 OA
ATOM      8  C   UNL A   1     -10.018   4.798 132.081  0.00  0.00    +0.098 A 
ATOM      9  C   UNL A   1     -10.227   5.069 130.786  0.00  0.00    +0.140 A 
ATOM     10  O   UNL A   1      -9.789   4.245 129.750  0.00  0.00    -0.451 OA
ATOM     11  C   UNL A   1      -9.115   3.069 130.046  0.00  0.00    +0.188 A 
ENDROOT
BRANCH   9  12
ATOM     12  C   UNL A   1     -10.920   6.332 130.405  0.00  0.00    +0.021 A 
ATOM     13  C   UNL A   1     -12.046   6.794 131.104  0.00  0.00    +0.015 A 
ATOM     14  C   UNL A   1     -12.741   7.951 130.695  0.00  0.00    +0.050 A 
ATOM     15  C   UNL A   1     -12.325   8.660 129.565  0.00  0.00    +0.161 A 
ATOM     16  C   UNL A   1     -11.193   8.220 128.890  0.00  0.00    +0.159 A 
ATOM     17  C   UNL A   1     -10.489   7.090 129.302  0.00  0.00    +0.060 A 
BRANCH  15  18
ATOM     18  O   UNL A   1     -12.927   9.764 129.025  0.00  0.00    -0.491 OA
ATOM     19  C   UNL A   1     -13.448  10.727 129.931  0.00  0.00    +0.277 C 
ENDBRANCH  15  18
BRANCH  16  20
ATOM     20  O   UNL A   1     -10.753   8.880 127.776  0.00  0.00    -0.503 OA
ATOM     21  H   UNL A   1     -10.171   8.244 127.316  0.00  0.00    +0.292 HD
ENDBRANCH  16  20
ENDBRANCH   9  12
BRANCH   1  23
ATOM     22  C   UNL A   1      -7.820   3.630 127.172  0.00  0.00    +0.277 C 
ATOM     23  O   UNL A   1      -8.660   2.589 127.660  0.00  0.00    -0.488 OA
ENDBRANCH   1  23
BRANCH   2  24
ATOM     24  O   UNL A   1      -7.026   0.600 128.266  0.00  0.00    -0.488 OA
ATOM     25  C   UNL A   1      -5.630   0.878 128.287  0.00  0.00    +0.277 C 
ENDBRANCH   2  24
BRANCH   3  26
ATOM     26  O   UNL A   1      -6.890  -0.293 131.212  0.00  0.00    -0.488 OA
ATOM     27  C   UNL A   1      -7.093  -1.663 130.958  0.00  0.00    +0.277 C 
ENDBRANCH   3  26
BRANCH   4  28
ATOM     28  O   UNL A   1      -7.966   1.112 132.941  0.00  0.00    -0.503 OA
ATOM     29  H   UNL A   1      -8.809   0.732 133.251  0.00  0.00    +0.292 HD
ENDBRANCH   4  28
TORSDOF 7
ENDMDL
MODEL 3
REMARK VINA RESULT:      -6.9      8.614     11.940
REMARK  Name = NuBBE_2524
REMARK  11 active torsions:
REMARK  status: ('A' for Active; 'I' for Inactive)
REMARK    1  A    between atoms: C_1  and  O_2
REMARK    2  A    between atoms: O_2  and  C_3
REMARK    3  A    between atoms: C_4  and  O_5
REMARK    4  A    between atoms: O_5  and  C_6
REMARK    5  A    between atoms: C_7  and  O_8
REMARK    6  A    between atoms: O_8  and  C_9
REMARK    7  A    between atoms: C_10  and  O_11
REMARK    8  A    between atoms: C_16  and  C_17
REMARK    9  A    between atoms: C_20  and  O_21
REMARK   10  A    between atoms: O_21  and  C_22
REMARK   11  A    between atoms: C_23  and  O_24
REMARK                            x       y       z     vdW  Elec       q    Type
REMARK                         _______ _______ _______ _____ _____    ______ ____
ROOT
ATOM      1  C   UNL A   1      -7.896   2.881 133.266  0.00  0.00    +0.209 A 
ATOM      2  C   UNL A   1      -6.771   2.159 133.801  0.00  0.00    +0.211 A 
ATOM      3  C   UNL A   1      -5.519   2.785 133.858  0.00  0.00    +0.208 A 
ATOM      4  C   UNL A   1      -5.401   4.092 133.340  0.00  0.00    +0.177 A 
ATOM      5  C   UNL A   1      -6.470   4.774 132.755  0.00  0.00    +0.113 A 
ATOM      6  C   UNL A   1      -6.260   6.073 132.084  0.00  0.00    +0.197 A 
ATOM      7  O   UNL A   1      -5.193   6.666 132.008  0.00  0.00    -0.287 OA
ATOM      8  C   UNL A   1      -7.425   6.675 131.442  0.00  0.00    +0.098 A 
ATOM      9  C   UNL A   1      -8.614   6.061 131.502  0.00  0.00    +0.140 A 
ATOM     10  O   UNL A   1      -8.808   4.826 132.120  0.00  0.00    -0.451 OA
ATOM     11  C   UNL A   1      -7.737   4.185 132.725  0.00  0.00    +0.188 A 
ENDROOT
BRANCH   9  12
ATOM     12  C   UNL A   1      -9.796   6.686 130.845  0.00  0.00    +0.021 A 
ATOM     13  C   UNL A   1      -9.677   7.405 129.644  0.00  0.00    +0.015 A 
ATOM     14  C   UNL A   1     -10.786   8.054 129.064  0.00  0.00    +0.050 A 
ATOM     15  C   UNL A   1     -12.035   8.007 129.688  0.00  0.00    +0.161 A 
ATOM     16  C   UNL A   1     -12.161   7.271 130.859  0.00  0.00    +0.159 A 
ATOM     17  C   UNL A   1     -11.074   6.608 131.426  0.00  0.00    +0.060 A 
BRANCH  15  18
ATOM     18  O   UNL A   1     -13.182   8.627 129.270  0.00  0.00    -0.491 OA
ATOM     19  C   UNL A   1     -13.219  10.045 129.351  0.00  0.00    +0.277 C 
ENDBRANCH  15  18
BRANCH  16  20
ATOM     20  O   UNL A   1     -13.364   7.202 131.506  0.00  0.00    -0.503 OA
ATOM     21  H   UNL A   1     -13.723   8.111 131.476  0.00  0.00    +0.292 HD
ENDBRANCH  16  20
ENDBRANCH   9  12
BRANCH   1  23
ATOM     22  C   UNL A   1      -9.496   1.642 131.978  0.00  0.00    +0.277 C 
ATOM     23  O   UNL A   1      -9.078   2.166 133.234  0.00  0.00    -0.488 OA
ENDBRANCH   1  23
BRANCH   2  24
ATOM     24  O   UNL A   1      -6.938   0.810 133.990  0.00  0.00    -0.488 OA
ATOM     25  C   UNL A   1      -6.354  -0.055 133.021  0.00  0.00    +0.277 C 
ENDBRANCH   2  24
BRANCH   3  26
ATOM     26  O   UNL A   1      -4.286   2.355 134.259  0.00  0.00    -0.488 OA
ATOM     27  C   UNL A   1      -3.987   1.892 135.554  0.00  0.00    +0.277 C 
ENDBRANCH   3  26
BRANCH   4  28
ATOM     28  O   UNL A   1      -4.150   4.664 133.381  0.00  0.00    -0.503 OA
ATOM     29  H   UNL A   1      -3.777   4.435 134.253  0.00  0.00    +0.292 HD
ENDBRANCH   4  28
TORSDOF 7
ENDMDL
MODEL 4
REMARK VINA RESULT:      -6.8      8.511     11.201
REMARK  Name = NuBBE_2524
REMARK  11 active torsions:
REMARK  status: ('A' for Active; 'I' for Inactive)
REMARK    1  A    between atoms: C_1  and  O_2
REMARK    2  A    between atoms: O_2  and  C_3
REMARK    3  A    between atoms: C_4  and  O_5
REMARK    4  A    between atoms: O_5  and  C_6
REMARK    5  A    between atoms: C_7  and  O_8
REMARK    6  A    between atoms: O_8  and  C_9
REMARK    7  A    between atoms: C_10  and  O_11
REMARK    8  A    between atoms: C_16  and  C_17
REMARK    9  A    between atoms: C_20  and  O_21
REMARK   10  A    between atoms: O_21  and  C_22
REMARK   11  A    between atoms: C_23  and  O_24
REMARK                            x       y       z     vdW  Elec       q    Type
REMARK                         _______ _______ _______ _____ _____    ______ ____
ROOT
ATOM      1  C   UNL A   1      -6.515   4.145 130.020  0.00  0.00    +0.209 A 
ATOM      2  C   UNL A   1      -5.474   3.284 130.520  0.00  0.00    +0.211 A 
ATOM      3  C   UNL A   1      -5.623   2.686 131.777  0.00  0.00    +0.208 A 
ATOM      4  C   UNL A   1      -6.776   2.993 132.530  0.00  0.00    +0.177 A 
ATOM      5  C   UNL A   1      -7.757   3.881 132.085  0.00  0.00    +0.113 A 
ATOM      6  C   UNL A   1      -8.861   4.293 132.976  0.00  0.00    +0.197 A 
ATOM      7  O   UNL A   1      -9.038   3.891 134.117  0.00  0.00    -0.287 OA
ATOM      8  C   UNL A   1      -9.798   5.279 132.444  0.00  0.00    +0.098 A 
ATOM      9  C   UNL A   1      -9.645   5.744 131.197  0.00  0.00    +0.140 A 
ATOM     10  O   UNL A   1      -8.591   5.369 130.364  0.00  0.00    -0.451 OA
ATOM     11  C   UNL A   1      -7.648   4.457 130.817  0.00  0.00    +0.188 A 
ENDROOT
BRANCH   9  12
ATOM     12  C   UNL A   1     -10.608   6.748 130.665  0.00  0.00    +0.021 A 
ATOM     13  C   UNL A   1     -11.845   6.983 131.287  0.00  0.00    +0.015 A 
ATOM     14  C   UNL A   1     -12.783   7.882 130.739  0.00  0.00    +0.050 A 
ATOM     15  C   UNL A   1     -12.502   8.554 129.546  0.00  0.00    +0.161 A 
ATOM     16  C   UNL A   1     -11.266   8.344 128.947  0.00  0.00    +0.159 A 
ATOM     17  C   UNL A   1     -10.325   7.474 129.494  0.00  0.00    +0.060 A 
BRANCH  15  18
ATOM     18  O   UNL A   1     -13.331   9.412 128.876  0.00  0.00    -0.491 OA
ATOM     19  C   UNL A   1     -13.548  10.691 129.458  0.00  0.00    +0.277 C 
ENDBRANCH  15  18
BRANCH  16  20
ATOM     20  O   UNL A   1     -10.951   8.977 127.776  0.00  0.00    -0.503 OA
ATOM     21  H   UNL A   1     -10.423   9.756 128.041  0.00  0.00    +0.292 HD
ENDBRANCH  16  20
ENDBRANCH   9  12
BRANCH   1  23
ATOM     22  C   UNL A   1      -6.836   4.065 127.644  0.00  0.00    +0.277 C 
ATOM     23  O   UNL A   1      -6.259   4.701 128.781  0.00  0.00    -0.488 OA
ENDBRANCH   1  23
BRANCH   2  24
ATOM     24  O   UNL A   1      -4.280   3.302 129.840  0.00  0.00    -0.488 OA
ATOM     25  C   UNL A   1      -3.944   2.136 129.096  0.00  0.00    +0.277 C 
ENDBRANCH   2  24
BRANCH   3  26
ATOM     26  O   UNL A   1      -4.810   1.878 132.521  0.00  0.00    -0.488 OA
ATOM     27  C   UNL A   1      -3.530   2.243 132.979  0.00  0.00    +0.277 C 
ENDBRANCH   3  26
BRANCH   4  28
ATOM     28  O   UNL A   1      -6.874   2.414 133.776  0.00  0.00    -0.503 OA
ATOM     29  H   UNL A   1      -7.556   1.722 133.698  0.00  0.00    +0.292 HD
ENDBRANCH   4  28
TORSDOF 7
ENDMDL
MODEL 5
REMARK VINA RESULT:      -6.6      8.830     11.626
REMARK  Name = NuBBE_2524
REMARK  11 active torsions:
REMARK  status: ('A' for Active; 'I' for Inactive)
REMARK    1  A    between atoms: C_1  and  O_2
REMARK    2  A    between atoms: O_2  and  C_3
REMARK    3  A    between atoms: C_4  and  O_5
REMARK    4  A    between atoms: O_5  and  C_6
REMARK    5  A    between atoms: C_7  and  O_8
REMARK    6  A    between atoms: O_8  and  C_9
REMARK    7  A    between atoms: C_10  and  O_11
REMARK    8  A    between atoms: C_16  and  C_17
REMARK    9  A    between atoms: C_20  and  O_21
REMARK   10  A    between atoms: O_21  and  C_22
REMARK   11  A    between atoms: C_23  and  O_24
REMARK                            x       y       z     vdW  Elec       q    Type
REMARK                         _______ _______ _______ _____ _____    ______ ____
ROOT
ATOM      1  C   UNL A   1      -6.480   4.973 132.529  0.00  0.00    +0.209 A 
ATOM      2  C   UNL A   1      -5.677   3.961 133.165  0.00  0.00    +0.211 A 
ATOM      3  C   UNL A   1      -6.151   2.644 133.220  0.00  0.00    +0.208 A 
ATOM      4  C   UNL A   1      -7.429   2.371 132.689  0.00  0.00    +0.177 A 
ATOM      5  C   UNL A   1      -8.245   3.359 132.133  0.00  0.00    +0.113 A 
ATOM      6  C   UNL A   1      -9.635   3.055 131.738  0.00  0.00    +0.197 A 
ATOM      7  O   UNL A   1     -10.170   1.958 131.819  0.00  0.00    -0.287 OA
ATOM      8  C   UNL A   1     -10.431   4.170 131.232  0.00  0.00    +0.098 A 
ATOM      9  C   UNL A   1      -9.884   5.388 131.123  0.00  0.00    +0.140 A 
ATOM     10  O   UNL A   1      -8.578   5.678 131.514  0.00  0.00    -0.451 OA
ATOM     11  C   UNL A   1      -7.775   4.671 132.030  0.00  0.00    +0.188 A 
ENDROOT
BRANCH   9  12
ATOM     12  C   UNL A   1     -10.706   6.516 130.604  0.00  0.00    +0.021 A 
ATOM     13  C   UNL A   1     -11.941   6.855 131.181  0.00  0.00    +0.015 A 
ATOM     14  C   UNL A   1     -12.747   7.878 130.641  0.00  0.00    +0.050 A 
ATOM     15  C   UNL A   1     -12.335   8.572 129.500  0.00  0.00    +0.161 A 
ATOM     16  C   UNL A   1     -11.100   8.258 128.947  0.00  0.00    +0.159 A 
ATOM     17  C   UNL A   1     -10.288   7.264 129.488  0.00  0.00    +0.060 A 
BRANCH  15  18
ATOM     18  O   UNL A   1     -13.032   9.548 128.840  0.00  0.00    -0.491 OA
ATOM     19  C   UNL A   1     -13.485  10.654 129.610  0.00  0.00    +0.277 C 
ENDBRANCH  15  18
BRANCH  16  20
ATOM     20  O   UNL A   1     -10.660   8.908 127.827  0.00  0.00    -0.503 OA
ATOM     21  H   UNL A   1     -11.267   8.629 127.114  0.00  0.00    +0.292 HD
ENDBRANCH  16  20
ENDBRANCH   9  12
BRANCH   1  23
ATOM     22  C   UNL A   1      -5.323   6.712 131.348  0.00  0.00    +0.277 C 
ATOM     23  O   UNL A   1      -5.931   6.241 132.547  0.00  0.00    -0.488 OA
ENDBRANCH   1  23
BRANCH   2  24
ATOM     24  O   UNL A   1      -4.605   4.398 133.904  0.00  0.00    -0.488 OA
ATOM     25  C   UNL A   1      -3.308   4.093 133.403  0.00  0.00    +0.277 C 
ENDBRANCH   2  24
BRANCH   3  26
ATOM     26  O   UNL A   1      -5.652   1.503 133.782  0.00  0.00    -0.488 OA
ATOM     27  C   UNL A   1      -5.331   1.363 135.146  0.00  0.00    +0.277 C 
ENDBRANCH   3  26
BRANCH   4  28
ATOM     28  O   UNL A   1      -7.878   1.074 132.791  0.00  0.00    -0.503 OA
ATOM     29  H   UNL A   1      -7.762   0.822 133.727  0.00  0.00    +0.292 HD
ENDBRANCH   4  28
TORSDOF 7
ENDMDL
MODEL 6
REMARK VINA RESULT:      -6.5      8.504     11.314
REMARK  Name = NuBBE_2524
REMARK  11 active torsions:
REMARK  status: ('A' for Active; 'I' for Inactive)
REMARK    1  A    between atoms: C_1  and  O_2
REMARK    2  A    between atoms: O_2  and  C_3
REMARK    3  A    between atoms: C_4  and  O_5
REMARK    4  A    between atoms: O_5  and  C_6
REMARK    5  A    between atoms: C_7  and  O_8
REMARK    6  A    between atoms: O_8  and  C_9
REMARK    7  A    between atoms: C_10  and  O_11
REMARK    8  A    between atoms: C_16  and  C_17
REMARK    9  A    between atoms: C_20  and  O_21
REMARK   10  A    between atoms: O_21  and  C_22
REMARK   11  A    between atoms: C_23  and  O_24
REMARK                            x       y       z     vdW  Elec       q    Type
REMARK                         _______ _______ _______ _____ _____    ______ ____
ROOT
ATOM      1  C   UNL A   1      -8.424   2.136 131.416  0.00  0.00    +0.209 A 
ATOM      2  C   UNL A   1      -7.467   1.229 131.994  0.00  0.00    +0.211 A 
ATOM      3  C   UNL A   1      -6.828   1.577 133.191  0.00  0.00    +0.208 A 
ATOM      4  C   UNL A   1      -7.115   2.835 133.760  0.00  0.00    +0.177 A 
ATOM      5  C   UNL A   1      -7.988   3.752 133.171  0.00  0.00    +0.113 A 
ATOM      6  C   UNL A   1      -8.132   5.116 133.718  0.00  0.00    +0.197 A 
ATOM      7  O   UNL A   1      -7.560   5.545 134.710  0.00  0.00    -0.287 OA
ATOM      8  C   UNL A   1      -9.016   6.024 132.991  0.00  0.00    +0.098 A 
ATOM      9  C   UNL A   1      -9.665   5.595 131.901  0.00  0.00    +0.140 A 
ATOM     10  O   UNL A   1      -9.514   4.313 131.374  0.00  0.00    -0.451 OA
ATOM     11  C   UNL A   1      -8.668   3.408 131.999  0.00  0.00    +0.188 A 
ENDROOT
BRANCH   9  12
ATOM     12  C   UNL A   1     -10.565   6.530 131.170  0.00  0.00    +0.021 A 
ATOM     13  C   UNL A   1     -11.898   6.729 131.564  0.00  0.00    +0.015 A 
ATOM     14  C   UNL A   1     -12.766   7.559 130.826  0.00  0.00    +0.050 A 
ATOM     15  C   UNL A   1     -12.315   8.197 129.667  0.00  0.00    +0.161 A 
ATOM     16  C   UNL A   1     -10.988   8.025 129.293  0.00  0.00    +0.159 A 
ATOM     17  C   UNL A   1     -10.118   7.224 130.030  0.00  0.00    +0.060 A 
BRANCH  15  18
ATOM     18  O   UNL A   1     -13.053   8.988 128.828  0.00  0.00    -0.491 OA
ATOM     19  C   UNL A   1     -13.444  10.264 129.317  0.00  0.00    +0.277 C 
ENDBRANCH  15  18
BRANCH  16  20
ATOM     20  O   UNL A   1     -10.505   8.627 128.164  0.00  0.00    -0.503 OA
ATOM     21  H   UNL A   1      -9.849   9.279 128.482  0.00  0.00    +0.292 HD
ENDBRANCH  16  20
ENDBRANCH   9  12
BRANCH   1  23
ATOM     22  C   UNL A   1      -8.539   2.342 129.029  0.00  0.00    +0.277 C 
ATOM     23  O   UNL A   1      -8.980   1.708 130.226  0.00  0.00    -0.488 OA
ENDBRANCH   1  23
BRANCH   2  24
ATOM     24  O   UNL A   1      -7.051   0.186 131.203  0.00  0.00    -0.488 OA
ATOM     25  C   UNL A   1      -5.788   0.328 130.560  0.00  0.00    +0.277 C 
ENDBRANCH   2  24
BRANCH   3  26
ATOM     26  O   UNL A   1      -5.865   0.961 133.939  0.00  0.00    -0.488 OA
ATOM     27  C   UNL A   1      -5.980  -0.337 134.472  0.00  0.00    +0.277 C 
ENDBRANCH   3  26
BRANCH   4  28
ATOM     28  O   UNL A   1      -6.443   3.159 134.917  0.00  0.00    -0.503 OA
ATOM     29  H   UNL A   1      -5.712   3.746 134.649  0.00  0.00    +0.292 HD
ENDBRANCH   4  28
TORSDOF 7
ENDMDL
MODEL 7
REMARK VINA RESULT:      -6.5      3.702      6.587
REMARK  Name = NuBBE_2524
REMARK  11 active torsions:
REMARK  status: ('A' for Active; 'I' for Inactive)
REMARK    1  A    between atoms: C_1  and  O_2
REMARK    2  A    between atoms: O_2  and  C_3
REMARK    3  A    between atoms: C_4  and  O_5
REMARK    4  A    between atoms: O_5  and  C_6
REMARK    5  A    between atoms: C_7  and  O_8
REMARK    6  A    between atoms: O_8  and  C_9
REMARK    7  A    between atoms: C_10  and  O_11
REMARK    8  A    between atoms: C_16  and  C_17
REMARK    9  A    between atoms: C_20  and  O_21
REMARK   10  A    between atoms: O_21  and  C_22
REMARK   11  A    between atoms: C_23  and  O_24
REMARK                            x       y       z     vdW  Elec       q    Type
REMARK                         _______ _______ _______ _____ _____    ______ ____
ROOT
ATOM      1  C   UNL A   1      -6.429  -1.138 125.878  0.00  0.00    +0.209 A 
ATOM      2  C   UNL A   1      -7.457  -2.037 125.423  0.00  0.00    +0.211 A 
ATOM      3  C   UNL A   1      -8.493  -1.544 124.619  0.00  0.00    +0.208 A 
ATOM      4  C   UNL A   1      -8.512  -0.165 124.326  0.00  0.00    +0.177 A 
ATOM      5  C   UNL A   1      -7.559   0.728 124.819  0.00  0.00    +0.113 A 
ATOM      6  C   UNL A   1      -7.712   2.183 124.618  0.00  0.00    +0.197 A 
ATOM      7  O   UNL A   1      -8.621   2.721 124.000  0.00  0.00    -0.287 OA
ATOM      8  C   UNL A   1      -6.701   3.040 125.232  0.00  0.00    +0.098 A 
ATOM      9  C   UNL A   1      -5.687   2.494 125.915  0.00  0.00    +0.140 A 
ATOM     10  O   UNL A   1      -5.553   1.121 126.121  0.00  0.00    -0.451 OA
ATOM     11  C   UNL A   1      -6.495   0.251 125.589  0.00  0.00    +0.188 A 
ENDROOT
BRANCH   9  12
ATOM     12  C   UNL A   1      -4.661   3.378 126.535  0.00  0.00    +0.021 A 
ATOM     13  C   UNL A   1      -3.419   2.880 126.961  0.00  0.00    +0.015 A 
ATOM     14  C   UNL A   1      -2.481   3.706 127.612  0.00  0.00    +0.050 A 
ATOM     15  C   UNL A   1      -2.777   5.049 127.861  0.00  0.00    +0.161 A 
ATOM     16  C   UNL A   1      -3.993   5.550 127.414  0.00  0.00    +0.159 A 
ATOM     17  C   UNL A   1      -4.916   4.745 126.749  0.00  0.00    +0.060 A 
BRANCH  15  18
ATOM     18  O   UNL A   1      -1.989   5.952 128.523  0.00  0.00    -0.491 OA
ATOM     19  C   UNL A   1      -2.046   5.944 129.943  0.00  0.00    +0.277 C 
ENDBRANCH  15  18
BRANCH  16  20
ATOM     20  O   UNL A   1      -4.326   6.857 127.640  0.00  0.00    -0.503 OA
ATOM     21  H   UNL A   1      -4.113   7.323 126.807  0.00  0.00    +0.292 HD
ENDBRANCH  16  20
ENDBRANCH   9  12
BRANCH   1  23
ATOM     22  C   UNL A   1      -5.509  -1.423 128.075  0.00  0.00    +0.277 C 
ATOM     23  O   UNL A   1      -5.468  -1.719 126.682  0.00  0.00    -0.488 OA
ENDBRANCH   1  23
BRANCH   2  24
ATOM     24  O   UNL A   1      -7.499  -3.276 126.015  0.00  0.00    -0.488 OA
ATOM     25  C   UNL A   1      -8.552  -3.513 126.943  0.00  0.00    +0.277 C 
ENDBRANCH   2  24
BRANCH   3  26
ATOM     26  O   UNL A   1      -9.607  -2.126 124.084  0.00  0.00    -0.488 OA
ATOM     27  C   UNL A   1      -9.610  -3.353 123.393  0.00  0.00    +0.277 C 
ENDBRANCH   3  26
BRANCH   4  28
ATOM     28  O   UNL A   1      -9.563   0.291 123.562  0.00  0.00    -0.503 OA
ATOM     29  H   UNL A   1      -9.221   0.367 122.651  0.00  0.00    +0.292 HD
ENDBRANCH   4  28
TORSDOF 7
ENDMDL
MODEL 8
REMARK VINA RESULT:      -6.4      2.679      3.692
REMARK  Name = NuBBE_2524
REMARK  11 active torsions:
REMARK  status: ('A' for Active; 'I' for Inactive)
REMARK    1  A    between atoms: C_1  and  O_2
REMARK    2  A    between atoms: O_2  and  C_3
REMARK    3  A    between atoms: C_4  and  O_5
REMARK    4  A    between atoms: O_5  and  C_6
REMARK    5  A    between atoms: C_7  and  O_8
REMARK    6  A    between atoms: O_8  and  C_9
REMARK    7  A    between atoms: C_10  and  O_11
REMARK    8  A    between atoms: C_16  and  C_17
REMARK    9  A    between atoms: C_20  and  O_21
REMARK   10  A    between atoms: O_21  and  C_22
REMARK   11  A    between atoms: C_23  and  O_24
REMARK                            x       y       z     vdW  Elec       q    Type
REMARK                         _______ _______ _______ _____ _____    ______ ____
ROOT
ATOM      1  C   UNL A   1      -7.634   1.923 125.465  0.00  0.00    +0.209 A 
ATOM      2  C   UNL A   1      -8.082   2.665 124.315  0.00  0.00    +0.211 A 
ATOM      3  C   UNL A   1      -8.900   2.036 123.368  0.00  0.00    +0.208 A 
ATOM      4  C   UNL A   1      -9.213   0.673 123.557  0.00  0.00    +0.177 A 
ATOM      5  C   UNL A   1      -8.726  -0.074 124.631  0.00  0.00    +0.113 A 
ATOM      6  C   UNL A   1      -8.949  -1.533 124.698  0.00  0.00    +0.197 A 
ATOM      7  O   UNL A   1      -9.580  -2.191 123.883  0.00  0.00    -0.287 OA
ATOM      8  C   UNL A   1      -8.341  -2.238 125.823  0.00  0.00    +0.098 A 
ATOM      9  C   UNL A   1      -7.643  -1.556 126.742  0.00  0.00    +0.140 A 
ATOM     10  O   UNL A   1      -7.417  -0.183 126.668  0.00  0.00    -0.451 OA
ATOM     11  C   UNL A   1      -7.943   0.544 125.609  0.00  0.00    +0.188 A 
ENDROOT
BRANCH   9  12
ATOM     12  C   UNL A   1      -7.030  -2.286 127.886  0.00  0.00    +0.021 A 
ATOM     13  C   UNL A   1      -7.815  -2.902 128.874  0.00  0.00    +0.015 A 
ATOM     14  C   UNL A   1      -7.230  -3.530 129.992  0.00  0.00    +0.050 A 
ATOM     15  C   UNL A   1      -5.841  -3.540 130.148  0.00  0.00    +0.161 A 
ATOM     16  C   UNL A   1      -5.062  -2.957 129.156  0.00  0.00    +0.159 A 
ATOM     17  C   UNL A   1      -5.633  -2.355 128.037  0.00  0.00    +0.060 A 
BRANCH  15  18
ATOM     18  O   UNL A   1      -5.139  -4.064 131.200  0.00  0.00    -0.491 OA
ATOM     19  C   UNL A   1      -5.299  -3.434 132.464  0.00  0.00    +0.277 C 
ENDBRANCH  15  18
BRANCH  16  20
ATOM     20  O   UNL A   1      -3.699  -2.939 129.270  0.00  0.00    -0.503 OA
ATOM     21  H   UNL A   1      -3.460  -3.821 129.619  0.00  0.00    +0.292 HD
ENDBRANCH  16  20
ENDBRANCH   9  12
BRANCH   1  23
ATOM     22  C   UNL A   1      -7.420   3.217 127.474  0.00  0.00    +0.277 C 
ATOM     23  O   UNL A   1      -6.815   2.630 126.325  0.00  0.00    -0.488 OA
ENDBRANCH   1  23
BRANCH   2  24
ATOM     24  O   UNL A   1      -7.473   3.875 124.087  0.00  0.00    -0.488 OA
ATOM     25  C   UNL A   1      -6.178   3.844 123.496  0.00  0.00    +0.277 C 
ENDBRANCH   2  24
BRANCH   3  26
ATOM     26  O   UNL A   1      -9.433   2.452 122.182  0.00  0.00    -0.488 OA
ATOM     27  C   UNL A   1      -8.791   3.327 121.284  0.00  0.00    +0.277 C 
ENDBRANCH   3  26
BRANCH   4  28
ATOM     28  O   UNL A   1      -9.990   0.077 122.590  0.00  0.00    -0.503 OA
ATOM     29  H   UNL A   1     -10.861  -0.077 123.001  0.00  0.00    +0.292 HD
ENDBRANCH   4  28
TORSDOF 7
ENDMDL
MODEL 9
REMARK VINA RESULT:      -6.3      2.405      8.357
REMARK  Name = NuBBE_2524
REMARK  11 active torsions:
REMARK  status: ('A' for Active; 'I' for Inactive)
REMARK    1  A    between atoms: C_1  and  O_2
REMARK    2  A    between atoms: O_2  and  C_3
REMARK    3  A    between atoms: C_4  and  O_5
REMARK    4  A    between atoms: O_5  and  C_6
REMARK    5  A    between atoms: C_7  and  O_8
REMARK    6  A    between atoms: O_8  and  C_9
REMARK    7  A    between atoms: C_10  and  O_11
REMARK    8  A    between atoms: C_16  and  C_17
REMARK    9  A    between atoms: C_20  and  O_21
REMARK   10  A    between atoms: O_21  and  C_22
REMARK   11  A    between atoms: C_23  and  O_24
REMARK                            x       y       z     vdW  Elec       q    Type
REMARK                         _______ _______ _______ _____ _____    ______ ____
ROOT
ATOM      1  C   UNL A   1      -6.879  -1.514 131.835  0.00  0.00    +0.209 A 
ATOM      2  C   UNL A   1      -6.286  -1.534 133.147  0.00  0.00    +0.211 A 
ATOM      3  C   UNL A   1      -4.911  -1.769 133.275  0.00  0.00    +0.208 A 
ATOM      4  C   UNL A   1      -4.166  -2.027 132.105  0.00  0.00    +0.177 A 
ATOM      5  C   UNL A   1      -4.744  -2.079 130.835  0.00  0.00    +0.113 A 
ATOM      6  C   UNL A   1      -3.954  -2.511 129.664  0.00  0.00    +0.197 A 
ATOM      7  O   UNL A   1      -2.769  -2.814 129.682  0.00  0.00    -0.287 OA
ATOM      8  C   UNL A   1      -4.665  -2.601 128.391  0.00  0.00    +0.098 A 
ATOM      9  C   UNL A   1      -5.962  -2.275 128.325  0.00  0.00    +0.140 A 
ATOM     10  O   UNL A   1      -6.712  -1.886 129.434  0.00  0.00    -0.451 OA
ATOM     11  C   UNL A   1      -6.106  -1.807 130.680  0.00  0.00    +0.188 A 
ENDROOT
BRANCH   9  12
ATOM     12  C   UNL A   1      -6.676  -2.369 127.021  0.00  0.00    +0.021 A 
ATOM     13  C   UNL A   1      -6.023  -2.113 125.804  0.00  0.00    +0.015 A 
ATOM     14  C   UNL A   1      -6.720  -2.133 124.579  0.00  0.00    +0.050 A 
ATOM     15  C   UNL A   1      -8.092  -2.398 124.552  0.00  0.00    +0.161 A 
ATOM     16  C   UNL A   1      -8.732  -2.681 125.752  0.00  0.00    +0.159 A 
ATOM     17  C   UNL A   1      -8.045  -2.685 126.965  0.00  0.00    +0.060 A 
BRANCH  15  18
ATOM     18  O   UNL A   1      -8.904  -2.402 123.450  0.00  0.00    -0.491 OA
ATOM     19  C   UNL A   1      -9.203  -1.144 122.861  0.00  0.00    +0.277 C 
ENDBRANCH  15  18
BRANCH  16  20
ATOM     20  O   UNL A   1     -10.075  -2.941 125.774  0.00  0.00    -0.503 OA
ATOM     21  H   UNL A   1     -10.146  -3.916 125.804  0.00  0.00    +0.292 HD
ENDBRANCH  16  20
ENDBRANCH   9  12
BRANCH   1  23
ATOM     22  C   UNL A   1      -8.694   0.035 131.586  0.00  0.00    +0.277 C 
ATOM     23  O   UNL A   1      -8.243  -1.296 131.821  0.00  0.00    -0.488 OA
ENDBRANCH   1  23
BRANCH   2  24
ATOM     24  O   UNL A   1      -7.150  -1.572 134.213  0.00  0.00    -0.488 OA
ATOM     25  C   UNL A   1      -7.411  -2.849 134.787  0.00  0.00    +0.277 C 
ENDBRANCH   2  24
BRANCH   3  26
ATOM     26  O   UNL A   1      -4.089  -1.890 134.359  0.00  0.00    -0.488 OA
ATOM     27  C   UNL A   1      -3.881  -0.879 135.316  0.00  0.00    +0.277 C 
ENDBRANCH   3  26
BRANCH   4  28
ATOM     28  O   UNL A   1      -2.824  -2.287 132.270  0.00  0.00    -0.503 OA
ATOM     29  H   UNL A   1      -2.547  -2.786 131.479  0.00  0.00    +0.292 HD
ENDBRANCH   4  28
TORSDOF 7
ENDMDL
