MODEL 1
REMARK VINA RESULT:      -8.8      0.000      0.000
REMARK  Name = NuBBE_2282
REMARK  9 active torsions:
REMARK  status: ('A' for Active; 'I' for Inactive)
REMARK    1  A    between atoms: C_3  and  C_4
REMARK    2  A    between atoms: C_7  and  O_8
REMARK    3  A    between atoms: O_8  and  C_9
REMARK    4  A    between atoms: C_9  and  C_10
REMARK    5  A    between atoms: C_22  and  C_23
REMARK    6  A    between atoms: C_22  and  C_24
REMARK    7  A    between atoms: C_26  and  O_27
REMARK    8  A    between atoms: O_27  and  C_28
REMARK    9  A    between atoms: C_28  and  C_29
REMARK                            x       y       z     vdW  Elec       q    Type
REMARK                         _______ _______ _______ _____ _____    ______ ____
ROOT
ATOM      1  O   LIG A   1      -7.279   5.299 126.004  0.00  0.00    -0.286 OA
ATOM      2  C   LIG A   1      -7.372   4.093 126.199  0.00  0.00    +0.204 A 
ATOM      3  C   LIG A   1      -7.608   3.110 125.105  0.00  0.00    +0.064 A 
ATOM      4  C   LIG A   1      -8.349   2.044 125.437  0.00  0.00    +0.208 A 
ATOM      5  O   LIG A   1      -8.823   1.767 126.697  0.00  0.00    -0.462 OA
ATOM      6  C   LIG A   1      -8.223   2.429 127.742  0.00  0.00    +0.145 A 
ATOM      7  C   LIG A   1      -8.511   1.959 129.016  0.00  0.00    +0.093 A 
ATOM      8  C   LIG A   1      -7.917   2.554 130.126  0.00  0.00    +0.136 A 
ATOM      9  C   LIG A   1      -6.990   3.596 129.973  0.00  0.00    +0.060 A 
ATOM     10  C   LIG A   1      -6.362   4.126 131.184  0.00  0.00    +0.015 C 
ATOM     11  C   LIG A   1      -6.727   3.626 132.373  0.00  0.00    +0.020 C 
ATOM     12  C   LIG A   1      -7.768   2.542 132.545  0.00  0.00    +0.123 C 
ATOM     13  C   LIG A   1      -7.162   1.324 133.254  0.00  0.00    +0.060 C 
ATOM     14  C   LIG A   1      -8.939   3.077 133.381  0.00  0.00    +0.060 C 
ATOM     15  O   LIG A   1      -8.326   2.038 131.321  0.00  0.00    -0.481 OA
ATOM     16  C   LIG A   1      -6.716   4.085 128.669  0.00  0.00    +0.157 A 
ATOM     17  C   LIG A   1      -7.382   3.531 127.563  0.00  0.00    +0.108 A 
ENDROOT
BRANCH   3  18
ATOM     18  C   LIG A   1      -7.204   3.352 123.720  0.00  0.00    -0.011 A 
ATOM     19  C   LIG A   1      -5.891   3.722 123.388  0.00  0.00    +0.012 A 
ATOM     20  C   LIG A   1      -5.545   3.976 122.054  0.00  0.00    +0.047 A 
ATOM     21  C   LIG A   1      -6.508   3.840 121.051  0.00  0.00    +0.132 A 
ATOM     22  C   LIG A   1      -7.810   3.464 121.372  0.00  0.00    +0.047 A 
ATOM     23  C   LIG A   1      -8.152   3.211 122.701  0.00  0.00    +0.012 A 
BRANCH  21  24
ATOM     24  O   LIG A   1      -6.116   4.201 119.741  0.00  0.00    -0.426 OA
BRANCH  24  25
ATOM     25  C   LIG A   1      -5.541   5.450 119.480  0.00  0.00    +0.309 C 
ATOM     26  C   LIG A   1      -5.986   5.934 118.127  0.00  0.00    +0.136 C 
ATOM     27  O   LIG A   1      -4.826   6.096 120.220  0.00  0.00    -0.251 OA
ENDBRANCH  24  25
ENDBRANCH  21  24
ENDBRANCH   3  18
BRANCH  16  28
ATOM     28  O   LIG A   1      -5.806   5.179 128.572  0.00  0.00    -0.424 OA
BRANCH  28  29
ATOM     29  C   LIG A   1      -4.478   5.049 128.140  0.00  0.00    +0.309 C 
ATOM     30  C   LIG A   1      -3.547   5.180 129.315  0.00  0.00    +0.136 C 
ATOM     31  O   LIG A   1      -4.109   4.753 127.010  0.00  0.00    -0.251 OA
ENDBRANCH  28  29
ENDBRANCH  16  28
TORSDOF 5
ENDMDL
MODEL 2
REMARK VINA RESULT:      -8.5      5.300      7.852
REMARK  Name = NuBBE_2282
REMARK  9 active torsions:
REMARK  status: ('A' for Active; 'I' for Inactive)
REMARK    1  A    between atoms: C_3  and  C_4
REMARK    2  A    between atoms: C_7  and  O_8
REMARK    3  A    between atoms: O_8  and  C_9
REMARK    4  A    between atoms: C_9  and  C_10
REMARK    5  A    between atoms: C_22  and  C_23
REMARK    6  A    between atoms: C_22  and  C_24
REMARK    7  A    between atoms: C_26  and  O_27
REMARK    8  A    between atoms: O_27  and  C_28
REMARK    9  A    between atoms: C_28  and  C_29
REMARK                            x       y       z     vdW  Elec       q    Type
REMARK                         _______ _______ _______ _____ _____    ______ ____
ROOT
ATOM      1  O   LIG A   1      -8.214  -3.257 129.297  0.00  0.00    -0.286 OA
ATOM      2  C   LIG A   1      -7.094  -2.767 129.222  0.00  0.00    +0.204 A 
ATOM      3  C   LIG A   1      -6.638  -1.959 128.057  0.00  0.00    +0.064 A 
ATOM      4  C   LIG A   1      -5.340  -2.078 127.745  0.00  0.00    +0.208 A 
ATOM      5  O   LIG A   1      -4.416  -2.809 128.453  0.00  0.00    -0.462 OA
ATOM      6  C   LIG A   1      -4.758  -3.158 129.738  0.00  0.00    +0.145 A 
ATOM      7  C   LIG A   1      -3.736  -3.655 130.534  0.00  0.00    +0.093 A 
ATOM      8  C   LIG A   1      -3.993  -4.001 131.858  0.00  0.00    +0.136 A 
ATOM      9  C   LIG A   1      -5.266  -3.807 132.417  0.00  0.00    +0.060 A 
ATOM     10  C   LIG A   1      -5.439  -4.136 133.832  0.00  0.00    +0.015 C 
ATOM     11  C   LIG A   1      -4.399  -4.639 134.512  0.00  0.00    +0.020 C 
ATOM     12  C   LIG A   1      -3.042  -4.901 133.898  0.00  0.00    +0.123 C 
ATOM     13  C   LIG A   1      -1.956  -4.107 134.635  0.00  0.00    +0.060 C 
ATOM     14  C   LIG A   1      -2.714  -6.399 133.987  0.00  0.00    +0.060 C 
ATOM     15  O   LIG A   1      -2.920  -4.530 132.515  0.00  0.00    -0.481 OA
ATOM     16  C   LIG A   1      -6.311  -3.318 131.592  0.00  0.00    +0.157 A 
ATOM     17  C   LIG A   1      -6.060  -3.049 130.236  0.00  0.00    +0.108 A 
ENDROOT
BRANCH   3  18
ATOM     18  C   LIG A   1      -7.559  -1.208 127.203  0.00  0.00    -0.011 A 
ATOM     19  C   LIG A   1      -7.903   0.123 127.482  0.00  0.00    +0.012 A 
ATOM     20  C   LIG A   1      -8.812   0.804 126.660  0.00  0.00    +0.047 A 
ATOM     21  C   LIG A   1      -9.359   0.158 125.548  0.00  0.00    +0.132 A 
ATOM     22  C   LIG A   1      -9.012  -1.160 125.260  0.00  0.00    +0.047 A 
ATOM     23  C   LIG A   1      -8.107  -1.835 126.080  0.00  0.00    +0.012 A 
BRANCH  21  24
ATOM     24  O   LIG A   1     -10.338   0.870 124.817  0.00  0.00    -0.426 OA
BRANCH  24  25
ATOM     25  C   LIG A   1     -10.223   1.035 123.432  0.00  0.00    +0.309 C 
ATOM     26  C   LIG A   1      -9.191   2.089 123.137  0.00  0.00    +0.136 C 
ATOM     27  O   LIG A   1     -10.812   0.416 122.570  0.00  0.00    -0.251 OA
ENDBRANCH  24  25
ENDBRANCH  21  24
ENDBRANCH   3  18
BRANCH  16  28
ATOM     28  O   LIG A   1      -7.597  -3.189 132.194  0.00  0.00    -0.424 OA
BRANCH  28  29
ATOM     29  C   LIG A   1      -7.945  -2.147 133.067  0.00  0.00    +0.309 C 
ATOM     30  C   LIG A   1      -8.091  -0.865 132.293  0.00  0.00    +0.136 C 
ATOM     31  O   LIG A   1      -8.215  -2.258 134.257  0.00  0.00    -0.251 OA
ENDBRANCH  28  29
ENDBRANCH  16  28
TORSDOF 5
ENDMDL
MODEL 3
REMARK VINA RESULT:      -8.4      3.838      8.428
REMARK  Name = NuBBE_2282
REMARK  9 active torsions:
REMARK  status: ('A' for Active; 'I' for Inactive)
REMARK    1  A    between atoms: C_3  and  C_4
REMARK    2  A    between atoms: C_7  and  O_8
REMARK    3  A    between atoms: O_8  and  C_9
REMARK    4  A    between atoms: C_9  and  C_10
REMARK    5  A    between atoms: C_22  and  C_23
REMARK    6  A    between atoms: C_22  and  C_24
REMARK    7  A    between atoms: C_26  and  O_27
REMARK    8  A    between atoms: O_27  and  C_28
REMARK    9  A    between atoms: C_28  and  C_29
REMARK                            x       y       z     vdW  Elec       q    Type
REMARK                         _______ _______ _______ _____ _____    ______ ____
ROOT
ATOM      1  O   LIG A   1      -8.209   3.406 127.160  0.00  0.00    -0.286 OA
ATOM      2  C   LIG A   1      -8.414   2.395 127.821  0.00  0.00    +0.204 A 
ATOM      3  C   LIG A   1      -8.700   2.425 129.282  0.00  0.00    +0.064 A 
ATOM      4  C   LIG A   1      -8.231   1.384 129.983  0.00  0.00    +0.208 A 
ATOM      5  O   LIG A   1      -7.593   0.289 129.450  0.00  0.00    -0.462 OA
ATOM      6  C   LIG A   1      -7.746   0.082 128.100  0.00  0.00    +0.145 A 
ATOM      7  C   LIG A   1      -7.333  -1.151 127.616  0.00  0.00    +0.093 A 
ATOM      8  C   LIG A   1      -7.486  -1.453 126.264  0.00  0.00    +0.136 A 
ATOM      9  C   LIG A   1      -8.099  -0.542 125.390  0.00  0.00    +0.060 A 
ATOM     10  C   LIG A   1      -8.279  -0.958 123.999  0.00  0.00    +0.015 C 
ATOM     11  C   LIG A   1      -7.821  -2.158 123.618  0.00  0.00    +0.020 C 
ATOM     12  C   LIG A   1      -7.110  -3.118 124.545  0.00  0.00    +0.123 C 
ATOM     13  C   LIG A   1      -7.862  -4.454 124.616  0.00  0.00    +0.060 C 
ATOM     14  C   LIG A   1      -5.684  -3.374 124.033  0.00  0.00    +0.060 C 
ATOM     15  O   LIG A   1      -6.989  -2.672 125.905  0.00  0.00    -0.481 OA
ATOM     16  C   LIG A   1      -8.500   0.725 125.888  0.00  0.00    +0.157 A 
ATOM     17  C   LIG A   1      -8.267   1.049 127.236  0.00  0.00    +0.108 A 
ENDROOT
BRANCH   3  18
ATOM     18  C   LIG A   1      -9.309   3.577 129.948  0.00  0.00    -0.011 A 
ATOM     19  C   LIG A   1     -10.670   3.596 130.290  0.00  0.00    +0.012 A 
ATOM     20  C   LIG A   1     -11.229   4.728 130.900  0.00  0.00    +0.047 A 
ATOM     21  C   LIG A   1     -10.420   5.831 131.185  0.00  0.00    +0.132 A 
ATOM     22  C   LIG A   1      -9.066   5.813 130.858  0.00  0.00    +0.047 A 
ATOM     23  C   LIG A   1      -8.512   4.685 130.251  0.00  0.00    +0.012 A 
BRANCH  21  24
ATOM     24  O   LIG A   1     -11.065   6.972 131.715  0.00  0.00    -0.426 OA
BRANCH  24  25
ATOM     25  C   LIG A   1     -12.282   7.420 131.189  0.00  0.00    +0.309 C 
ATOM     26  C   LIG A   1     -12.045   8.049 129.844  0.00  0.00    +0.136 C 
ATOM     27  O   LIG A   1     -13.383   7.300 131.687  0.00  0.00    -0.251 OA
ENDBRANCH  24  25
ENDBRANCH  21  24
ENDBRANCH   3  18
BRANCH  16  28
ATOM     28  O   LIG A   1      -9.069   1.633 124.948  0.00  0.00    -0.424 OA
BRANCH  28  29
ATOM     29  C   LIG A   1      -8.318   2.332 123.991  0.00  0.00    +0.309 C 
ATOM     30  C   LIG A   1      -9.057   2.351 122.680  0.00  0.00    +0.136 C 
ATOM     31  O   LIG A   1      -7.278   2.947 124.194  0.00  0.00    -0.251 OA
ENDBRANCH  28  29
ENDBRANCH  16  28
TORSDOF 5
ENDMDL
MODEL 4
REMARK VINA RESULT:      -8.2      4.942      7.963
REMARK  Name = NuBBE_2282
REMARK  9 active torsions:
REMARK  status: ('A' for Active; 'I' for Inactive)
REMARK    1  A    between atoms: C_3  and  C_4
REMARK    2  A    between atoms: C_7  and  O_8
REMARK    3  A    between atoms: O_8  and  C_9
REMARK    4  A    between atoms: C_9  and  C_10
REMARK    5  A    between atoms: C_22  and  C_23
REMARK    6  A    between atoms: C_22  and  C_24
REMARK    7  A    between atoms: C_26  and  O_27
REMARK    8  A    between atoms: O_27  and  C_28
REMARK    9  A    between atoms: C_28  and  C_29
REMARK                            x       y       z     vdW  Elec       q    Type
REMARK                         _______ _______ _______ _____ _____    ______ ____
ROOT
ATOM      1  O   LIG A   1      -7.495   3.260 129.684  0.00  0.00    -0.286 OA
ATOM      2  C   LIG A   1      -8.006   2.472 130.471  0.00  0.00    +0.204 A 
ATOM      3  C   LIG A   1      -9.011   2.881 131.491  0.00  0.00    +0.064 A 
ATOM      4  C   LIG A   1      -8.966   2.206 132.647  0.00  0.00    +0.208 A 
ATOM      5  O   LIG A   1      -8.135   1.145 132.917  0.00  0.00    -0.462 OA
ATOM      6  C   LIG A   1      -7.561   0.520 131.836  0.00  0.00    +0.145 A 
ATOM      7  C   LIG A   1      -6.946  -0.699 132.085  0.00  0.00    +0.093 A 
ATOM      8  C   LIG A   1      -6.370  -1.413 131.037  0.00  0.00    +0.136 A 
ATOM      9  C   LIG A   1      -6.445  -0.939 129.718  0.00  0.00    +0.060 A 
ATOM     10  C   LIG A   1      -5.871  -1.777 128.665  0.00  0.00    +0.015 C 
ATOM     11  C   LIG A   1      -5.271  -2.925 129.007  0.00  0.00    +0.020 C 
ATOM     12  C   LIG A   1      -5.139  -3.411 130.433  0.00  0.00    +0.123 C 
ATOM     13  C   LIG A   1      -5.806  -4.783 130.598  0.00  0.00    +0.060 C 
ATOM     14  C   LIG A   1      -3.653  -3.530 130.805  0.00  0.00    +0.060 C 
ATOM     15  O   LIG A   1      -5.748  -2.565 131.422  0.00  0.00    -0.481 OA
ATOM     16  C   LIG A   1      -7.058   0.318 129.474  0.00  0.00    +0.157 A 
ATOM     17  C   LIG A   1      -7.564   1.067 130.550  0.00  0.00    +0.108 A 
ENDROOT
BRANCH   3  18
ATOM     18  C   LIG A   1      -9.888   4.040 131.321  0.00  0.00    -0.011 A 
ATOM     19  C   LIG A   1     -10.908   4.058 130.357  0.00  0.00    +0.012 A 
ATOM     20  C   LIG A   1     -11.711   5.196 130.200  0.00  0.00    +0.047 A 
ATOM     21  C   LIG A   1     -11.504   6.308 131.021  0.00  0.00    +0.132 A 
ATOM     22  C   LIG A   1     -10.500   6.292 131.986  0.00  0.00    +0.047 A 
ATOM     23  C   LIG A   1      -9.703   5.157 132.141  0.00  0.00    +0.012 A 
BRANCH  21  24
ATOM     24  O   LIG A   1     -12.286   7.454 130.747  0.00  0.00    -0.426 OA
BRANCH  24  25
ATOM     25  C   LIG A   1     -11.953   8.318 129.699  0.00  0.00    +0.309 C 
ATOM     26  C   LIG A   1     -12.985   9.408 129.601  0.00  0.00    +0.136 C 
ATOM     27  O   LIG A   1     -10.972   8.259 128.984  0.00  0.00    -0.251 OA
ENDBRANCH  24  25
ENDBRANCH  21  24
ENDBRANCH   3  18
BRANCH  16  28
ATOM     28  O   LIG A   1      -7.062   0.778 128.125  0.00  0.00    -0.424 OA
BRANCH  28  29
ATOM     29  C   LIG A   1      -8.203   0.781 127.308  0.00  0.00    +0.309 C 
ATOM     30  C   LIG A   1      -8.248  -0.484 126.495  0.00  0.00    +0.136 C 
ATOM     31  O   LIG A   1      -9.102   1.613 127.323  0.00  0.00    -0.251 OA
ENDBRANCH  28  29
ENDBRANCH  16  28
TORSDOF 5
ENDMDL
MODEL 5
REMARK VINA RESULT:      -8.1      2.918      3.528
REMARK  Name = NuBBE_2282
REMARK  9 active torsions:
REMARK  status: ('A' for Active; 'I' for Inactive)
REMARK    1  A    between atoms: C_3  and  C_4
REMARK    2  A    between atoms: C_7  and  O_8
REMARK    3  A    between atoms: O_8  and  C_9
REMARK    4  A    between atoms: C_9  and  C_10
REMARK    5  A    between atoms: C_22  and  C_23
REMARK    6  A    between atoms: C_22  and  C_24
REMARK    7  A    between atoms: C_26  and  O_27
REMARK    8  A    between atoms: O_27  and  C_28
REMARK    9  A    between atoms: C_28  and  C_29
REMARK                            x       y       z     vdW  Elec       q    Type
REMARK                         _______ _______ _______ _____ _____    ______ ____
ROOT
ATOM      1  O   LIG A   1      -7.576   2.920 125.544  0.00  0.00    -0.286 OA
ATOM      2  C   LIG A   1      -7.410   1.770 125.155  0.00  0.00    +0.204 A 
ATOM      3  C   LIG A   1      -7.611   1.355 123.739  0.00  0.00    +0.064 A 
ATOM      4  C   LIG A   1      -8.081   0.113 123.563  0.00  0.00    +0.208 A 
ATOM      5  O   LIG A   1      -8.307  -0.801 124.564  0.00  0.00    -0.462 OA
ATOM      6  C   LIG A   1      -7.699  -0.556 125.772  0.00  0.00    +0.145 A 
ATOM      7  C   LIG A   1      -7.706  -1.599 126.688  0.00  0.00    +0.093 A 
ATOM      8  C   LIG A   1      -7.081  -1.443 127.923  0.00  0.00    +0.136 A 
ATOM      9  C   LIG A   1      -6.400  -0.257 128.239  0.00  0.00    +0.060 A 
ATOM     10  C   LIG A   1      -5.717  -0.194 129.531  0.00  0.00    +0.015 C 
ATOM     11  C   LIG A   1      -5.805  -1.242 130.361  0.00  0.00    +0.020 C 
ATOM     12  C   LIG A   1      -6.585  -2.499 130.047  0.00  0.00    +0.123 C 
ATOM     13  C   LIG A   1      -5.664  -3.726 130.079  0.00  0.00    +0.060 C 
ATOM     14  C   LIG A   1      -7.704  -2.686 131.082  0.00  0.00    +0.060 C 
ATOM     15  O   LIG A   1      -7.209  -2.519 128.753  0.00  0.00    -0.481 OA
ATOM     16  C   LIG A   1      -6.415   0.813 127.306  0.00  0.00    +0.157 A 
ATOM     17  C   LIG A   1      -7.116   0.672 126.096  0.00  0.00    +0.108 A 
ENDROOT
BRANCH   3  18
ATOM     18  C   LIG A   1      -7.464   2.279 122.613  0.00  0.00    -0.011 A 
ATOM     19  C   LIG A   1      -8.572   2.912 122.030  0.00  0.00    +0.012 A 
ATOM     20  C   LIG A   1      -8.400   3.768 120.933  0.00  0.00    +0.047 A 
ATOM     21  C   LIG A   1      -7.115   4.004 120.434  0.00  0.00    +0.132 A 
ATOM     22  C   LIG A   1      -6.011   3.386 121.016  0.00  0.00    +0.047 A 
ATOM     23  C   LIG A   1      -6.186   2.535 122.108  0.00  0.00    +0.012 A 
BRANCH  21  24
ATOM     24  O   LIG A   1      -7.023   4.802 119.271  0.00  0.00    -0.426 OA
BRANCH  24  25
ATOM     25  C   LIG A   1      -5.917   5.632 119.054  0.00  0.00    +0.309 C 
ATOM     26  C   LIG A   1      -5.861   6.022 117.602  0.00  0.00    +0.136 C 
ATOM     27  O   LIG A   1      -5.129   6.034 119.886  0.00  0.00    -0.251 OA
ENDBRANCH  24  25
ENDBRANCH  21  24
ENDBRANCH   3  18
BRANCH  16  28
ATOM     28  O   LIG A   1      -5.753   2.013 127.697  0.00  0.00    -0.424 OA
BRANCH  28  29
ATOM     29  C   LIG A   1      -4.435   2.328 127.332  0.00  0.00    +0.309 C 
ATOM     30  C   LIG A   1      -3.676   2.808 128.540  0.00  0.00    +0.136 C 
ATOM     31  O   LIG A   1      -3.920   2.135 126.237  0.00  0.00    -0.251 OA
ENDBRANCH  28  29
ENDBRANCH  16  28
TORSDOF 5
ENDMDL
MODEL 6
REMARK VINA RESULT:      -8.1      4.059      6.090
REMARK  Name = NuBBE_2282
REMARK  9 active torsions:
REMARK  status: ('A' for Active; 'I' for Inactive)
REMARK    1  A    between atoms: C_3  and  C_4
REMARK    2  A    between atoms: C_7  and  O_8
REMARK    3  A    between atoms: O_8  and  C_9
REMARK    4  A    between atoms: C_9  and  C_10
REMARK    5  A    between atoms: C_22  and  C_23
REMARK    6  A    between atoms: C_22  and  C_24
REMARK    7  A    between atoms: C_26  and  O_27
REMARK    8  A    between atoms: O_27  and  C_28
REMARK    9  A    between atoms: C_28  and  C_29
REMARK                            x       y       z     vdW  Elec       q    Type
REMARK                         _______ _______ _______ _____ _____    ______ ____
ROOT
ATOM      1  O   LIG A   1      -6.667   3.033 126.790  0.00  0.00    -0.286 OA
ATOM      2  C   LIG A   1      -6.486   2.628 127.932  0.00  0.00    +0.204 A 
ATOM      3  C   LIG A   1      -7.251   1.495 128.522  0.00  0.00    +0.064 A 
ATOM      4  C   LIG A   1      -7.495   1.587 129.837  0.00  0.00    +0.208 A 
ATOM      5  O   LIG A   1      -7.033   2.584 130.663  0.00  0.00    -0.462 OA
ATOM      6  C   LIG A   1      -5.985   3.339 130.194  0.00  0.00    +0.145 A 
ATOM      7  C   LIG A   1      -5.351   4.155 131.121  0.00  0.00    +0.093 A 
ATOM      8  C   LIG A   1      -4.258   4.926 130.733  0.00  0.00    +0.136 A 
ATOM      9  C   LIG A   1      -3.755   4.854 129.424  0.00  0.00    +0.060 A 
ATOM     10  C   LIG A   1      -2.566   5.647 129.113  0.00  0.00    +0.015 C 
ATOM     11  C   LIG A   1      -2.042   6.429 130.067  0.00  0.00    +0.020 C 
ATOM     12  C   LIG A   1      -2.615   6.552 131.461  0.00  0.00    +0.123 C 
ATOM     13  C   LIG A   1      -1.570   6.147 132.509  0.00  0.00    +0.060 C 
ATOM     14  C   LIG A   1      -3.044   8.004 131.718  0.00  0.00    +0.060 C 
ATOM     15  O   LIG A   1      -3.762   5.727 131.721  0.00  0.00    -0.481 OA
ATOM     16  C   LIG A   1      -4.421   4.032 128.478  0.00  0.00    +0.157 A 
ATOM     17  C   LIG A   1      -5.571   3.321 128.860  0.00  0.00    +0.108 A 
ENDROOT
BRANCH   3  18
ATOM     18  C   LIG A   1      -7.842   0.429 127.713  0.00  0.00    -0.011 A 
ATOM     19  C   LIG A   1      -8.664   0.709 126.611  0.00  0.00    +0.012 A 
ATOM     20  C   LIG A   1      -9.239  -0.336 125.875  0.00  0.00    +0.047 A 
ATOM     21  C   LIG A   1      -8.973  -1.661 126.231  0.00  0.00    +0.132 A 
ATOM     22  C   LIG A   1      -8.148  -1.945 127.317  0.00  0.00    +0.047 A 
ATOM     23  C   LIG A   1      -7.577  -0.902 128.047  0.00  0.00    +0.012 A 
BRANCH  21  24
ATOM     24  O   LIG A   1      -9.657  -2.664 125.505  0.00  0.00    -0.426 OA
BRANCH  24  25
ATOM     25  C   LIG A   1      -9.274  -2.996 124.201  0.00  0.00    +0.309 C 
ATOM     26  C   LIG A   1      -7.889  -3.582 124.220  0.00  0.00    +0.136 C 
ATOM     27  O   LIG A   1      -9.940  -2.885 123.192  0.00  0.00    -0.251 OA
ENDBRANCH  24  25
ENDBRANCH  21  24
ENDBRANCH   3  18
BRANCH  16  28
ATOM     28  O   LIG A   1      -3.902   4.035 127.150  0.00  0.00    -0.424 OA
BRANCH  28  29
ATOM     29  C   LIG A   1      -3.219   2.949 126.581  0.00  0.00    +0.309 C 
ATOM     30  C   LIG A   1      -1.736   3.205 126.622  0.00  0.00    +0.136 C 
ATOM     31  O   LIG A   1      -3.717   1.892 126.212  0.00  0.00    -0.251 OA
ENDBRANCH  28  29
ENDBRANCH  16  28
TORSDOF 5
ENDMDL
MODEL 7
REMARK VINA RESULT:      -8.1      4.409      7.532
REMARK  Name = NuBBE_2282
REMARK  9 active torsions:
REMARK  status: ('A' for Active; 'I' for Inactive)
REMARK    1  A    between atoms: C_3  and  C_4
REMARK    2  A    between atoms: C_7  and  O_8
REMARK    3  A    between atoms: O_8  and  C_9
REMARK    4  A    between atoms: C_9  and  C_10
REMARK    5  A    between atoms: C_22  and  C_23
REMARK    6  A    between atoms: C_22  and  C_24
REMARK    7  A    between atoms: C_26  and  O_27
REMARK    8  A    between atoms: O_27  and  C_28
REMARK    9  A    between atoms: C_28  and  C_29
REMARK                            x       y       z     vdW  Elec       q    Type
REMARK                         _______ _______ _______ _____ _____    ______ ____
ROOT
ATOM      1  O   LIG A   1      -8.564   3.858 127.775  0.00  0.00    -0.286 OA
ATOM      2  C   LIG A   1      -8.638   3.357 128.890  0.00  0.00    +0.204 A 
ATOM      3  C   LIG A   1      -9.050   4.124 130.098  0.00  0.00    +0.064 A 
ATOM      4  C   LIG A   1      -8.462   3.754 131.244  0.00  0.00    +0.208 A 
ATOM      5  O   LIG A   1      -7.593   2.699 131.388  0.00  0.00    -0.462 OA
ATOM      6  C   LIG A   1      -7.589   1.761 130.383  0.00  0.00    +0.145 A 
ATOM      7  C   LIG A   1      -6.919   0.575 130.650  0.00  0.00    +0.093 A 
ATOM      8  C   LIG A   1      -6.898  -0.440 129.696  0.00  0.00    +0.136 A 
ATOM      9  C   LIG A   1      -7.588  -0.299 128.482  0.00  0.00    +0.060 A 
ATOM     10  C   LIG A   1      -7.569  -1.435 127.560  0.00  0.00    +0.015 C 
ATOM     11  C   LIG A   1      -6.869  -2.528 127.893  0.00  0.00    +0.020 C 
ATOM     12  C   LIG A   1      -6.078  -2.660 129.176  0.00  0.00    +0.123 C 
ATOM     13  C   LIG A   1      -6.579  -3.857 129.995  0.00  0.00    +0.060 C 
ATOM     14  C   LIG A   1      -4.592  -2.864 128.849  0.00  0.00    +0.060 C 
ATOM     15  O   LIG A   1      -6.159  -1.529 130.057  0.00  0.00    -0.481 OA
ATOM     16  C   LIG A   1      -8.253   0.924 128.208  0.00  0.00    +0.157 A 
ATOM     17  C   LIG A   1      -8.200   1.971 129.144  0.00  0.00    +0.108 A 
ENDROOT
BRANCH   3  18
ATOM     18  C   LIG A   1      -9.913   5.303 130.033  0.00  0.00    -0.011 A 
ATOM     19  C   LIG A   1      -9.424   6.554 129.625  0.00  0.00    +0.012 A 
ATOM     20  C   LIG A   1     -10.270   7.671 129.603  0.00  0.00    +0.047 A 
ATOM     21  C   LIG A   1     -11.611   7.530 129.970  0.00  0.00    +0.132 A 
ATOM     22  C   LIG A   1     -12.105   6.290 130.367  0.00  0.00    +0.047 A 
ATOM     23  C   LIG A   1     -11.260   5.179 130.387  0.00  0.00    +0.012 A 
BRANCH  21  24
ATOM     24  O   LIG A   1     -12.385   8.713 130.015  0.00  0.00    -0.426 OA
BRANCH  24  25
ATOM     25  C   LIG A   1     -13.127   9.129 128.904  0.00  0.00    +0.309 C 
ATOM     26  C   LIG A   1     -13.598  10.542 129.117  0.00  0.00    +0.136 C 
ATOM     27  O   LIG A   1     -13.344   8.497 127.890  0.00  0.00    -0.251 OA
ENDBRANCH  24  25
ENDBRANCH  21  24
ENDBRANCH   3  18
BRANCH  16  28
ATOM     28  O   LIG A   1      -8.894   1.034 126.939  0.00  0.00    -0.424 OA
BRANCH  28  29
ATOM     29  C   LIG A   1      -8.216   1.349 125.751  0.00  0.00    +0.309 C 
ATOM     30  C   LIG A   1      -9.177   1.312 124.594  0.00  0.00    +0.136 C 
ATOM     31  O   LIG A   1      -7.052   1.719 125.657  0.00  0.00    -0.251 OA
ENDBRANCH  28  29
ENDBRANCH  16  28
TORSDOF 5
ENDMDL
MODEL 8
REMARK VINA RESULT:      -8.1      3.590      5.532
REMARK  Name = NuBBE_2282
REMARK  9 active torsions:
REMARK  status: ('A' for Active; 'I' for Inactive)
REMARK    1  A    between atoms: C_3  and  C_4
REMARK    2  A    between atoms: C_7  and  O_8
REMARK    3  A    between atoms: O_8  and  C_9
REMARK    4  A    between atoms: C_9  and  C_10
REMARK    5  A    between atoms: C_22  and  C_23
REMARK    6  A    between atoms: C_22  and  C_24
REMARK    7  A    between atoms: C_26  and  O_27
REMARK    8  A    between atoms: O_27  and  C_28
REMARK    9  A    between atoms: C_28  and  C_29
REMARK                            x       y       z     vdW  Elec       q    Type
REMARK                         _______ _______ _______ _____ _____    ______ ____
ROOT
ATOM      1  O   LIG A   1      -6.172   1.225 128.777  0.00  0.00    -0.286 OA
ATOM      2  C   LIG A   1      -5.462   2.040 128.199  0.00  0.00    +0.204 A 
ATOM      3  C   LIG A   1      -4.980   1.850 126.803  0.00  0.00    +0.064 A 
ATOM      4  C   LIG A   1      -3.764   2.347 126.541  0.00  0.00    +0.208 A 
ATOM      5  O   LIG A   1      -2.991   3.065 127.423  0.00  0.00    -0.462 OA
ATOM      6  C   LIG A   1      -3.634   3.599 128.514  0.00  0.00    +0.145 A 
ATOM      7  C   LIG A   1      -2.922   4.535 129.251  0.00  0.00    +0.093 A 
ATOM      8  C   LIG A   1      -3.515   5.148 130.352  0.00  0.00    +0.136 A 
ATOM      9  C   LIG A   1      -4.845   4.868 130.700  0.00  0.00    +0.060 A 
ATOM     10  C   LIG A   1      -5.416   5.600 131.831  0.00  0.00    +0.015 C 
ATOM     11  C   LIG A   1      -4.640   6.464 132.501  0.00  0.00    +0.020 C 
ATOM     12  C   LIG A   1      -3.189   6.726 132.163  0.00  0.00    +0.123 C 
ATOM     13  C   LIG A   1      -2.972   8.209 131.836  0.00  0.00    +0.060 C 
ATOM     14  C   LIG A   1      -2.302   6.341 133.355  0.00  0.00    +0.060 C 
ATOM     15  O   LIG A   1      -2.691   6.004 131.024  0.00  0.00    -0.481 OA
ATOM     16  C   LIG A   1      -5.560   3.895 129.954  0.00  0.00    +0.157 A 
ATOM     17  C   LIG A   1      -4.925   3.224 128.896  0.00  0.00    +0.108 A 
ENDROOT
BRANCH   3  18
ATOM     18  C   LIG A   1      -5.699   1.042 125.818  0.00  0.00    -0.011 A 
ATOM     19  C   LIG A   1      -5.544  -0.351 125.753  0.00  0.00    +0.012 A 
ATOM     20  C   LIG A   1      -6.225  -1.092 124.776  0.00  0.00    +0.047 A 
ATOM     21  C   LIG A   1      -7.075  -0.440 123.880  0.00  0.00    +0.132 A 
ATOM     22  C   LIG A   1      -7.241   0.942 123.947  0.00  0.00    +0.047 A 
ATOM     23  C   LIG A   1      -6.563   1.676 124.920  0.00  0.00    +0.012 A 
BRANCH  21  24
ATOM     24  O   LIG A   1      -7.657  -1.233 122.865  0.00  0.00    -0.426 OA
BRANCH  24  25
ATOM     25  C   LIG A   1      -9.005  -1.604 122.925  0.00  0.00    +0.309 C 
ATOM     26  C   LIG A   1      -9.110  -3.041 123.359  0.00  0.00    +0.136 C 
ATOM     27  O   LIG A   1      -9.969  -0.897 122.711  0.00  0.00    -0.251 OA
ENDBRANCH  24  25
ENDBRANCH  21  24
ENDBRANCH   3  18
BRANCH  16  28
ATOM     28  O   LIG A   1      -6.890   3.610 130.382  0.00  0.00    -0.424 OA
BRANCH  28  29
ATOM     29  C   LIG A   1      -8.035   4.105 129.740  0.00  0.00    +0.309 C 
ATOM     30  C   LIG A   1      -9.170   3.130 129.903  0.00  0.00    +0.136 C 
ATOM     31  O   LIG A   1      -8.157   5.210 129.226  0.00  0.00    -0.251 OA
ENDBRANCH  28  29
ENDBRANCH  16  28
TORSDOF 5
ENDMDL
MODEL 9
REMARK VINA RESULT:      -7.9      4.416      9.578
REMARK  Name = NuBBE_2282
REMARK  9 active torsions:
REMARK  status: ('A' for Active; 'I' for Inactive)
REMARK    1  A    between atoms: C_3  and  C_4
REMARK    2  A    between atoms: C_7  and  O_8
REMARK    3  A    between atoms: O_8  and  C_9
REMARK    4  A    between atoms: C_9  and  C_10
REMARK    5  A    between atoms: C_22  and  C_23
REMARK    6  A    between atoms: C_22  and  C_24
REMARK    7  A    between atoms: C_26  and  O_27
REMARK    8  A    between atoms: O_27  and  C_28
REMARK    9  A    between atoms: C_28  and  C_29
REMARK                            x       y       z     vdW  Elec       q    Type
REMARK                         _______ _______ _______ _____ _____    ______ ____
ROOT
ATOM      1  O   LIG A   1      -8.223  -0.400 130.644  0.00  0.00    -0.286 OA
ATOM      2  C   LIG A   1      -8.068   0.428 129.754  0.00  0.00    +0.204 A 
ATOM      3  C   LIG A   1      -8.100   1.897 129.998  0.00  0.00    +0.064 A 
ATOM      4  C   LIG A   1      -8.606   2.635 129.001  0.00  0.00    +0.208 A 
ATOM      5  O   LIG A   1      -9.011   2.153 127.779  0.00  0.00    -0.462 OA
ATOM      6  C   LIG A   1      -8.557   0.904 127.429  0.00  0.00    +0.145 A 
ATOM      7  C   LIG A   1      -8.739   0.532 126.104  0.00  0.00    +0.093 A 
ATOM      8  C   LIG A   1      -8.277  -0.704 125.660  0.00  0.00    +0.136 A 
ATOM      9  C   LIG A   1      -7.582  -1.565 126.525  0.00  0.00    +0.060 A 
ATOM     10  C   LIG A   1      -7.074  -2.818 125.966  0.00  0.00    +0.015 C 
ATOM     11  C   LIG A   1      -7.326  -3.102 124.681  0.00  0.00    +0.020 C 
ATOM     12  C   LIG A   1      -8.122  -2.204 123.762  0.00  0.00    +0.123 C 
ATOM     13  C   LIG A   1      -7.279  -1.794 122.547  0.00  0.00    +0.060 C 
ATOM     14  C   LIG A   1      -9.377  -2.943 123.273  0.00  0.00    +0.060 C 
ATOM     15  O   LIG A   1      -8.569  -0.973 124.354  0.00  0.00    -0.481 OA
ATOM     16  C   LIG A   1      -7.417  -1.187 127.883  0.00  0.00    +0.157 A 
ATOM     17  C   LIG A   1      -7.959   0.027 128.338  0.00  0.00    +0.108 A 
ENDROOT
BRANCH   3  18
ATOM     18  C   LIG A   1      -7.758   2.495 131.288  0.00  0.00    -0.011 A 
ATOM     19  C   LIG A   1      -6.452   2.920 131.581  0.00  0.00    +0.012 A 
ATOM     20  C   LIG A   1      -6.151   3.461 132.838  0.00  0.00    +0.047 A 
ATOM     21  C   LIG A   1      -7.162   3.595 133.795  0.00  0.00    +0.132 A 
ATOM     22  C   LIG A   1      -8.461   3.185 133.506  0.00  0.00    +0.047 A 
ATOM     23  C   LIG A   1      -8.758   2.647 132.253  0.00  0.00    +0.012 A 
BRANCH  21  24
ATOM     24  O   LIG A   1      -6.770   4.061 135.071  0.00  0.00    -0.426 OA
BRANCH  24  25
ATOM     25  C   LIG A   1      -6.604   5.428 135.318  0.00  0.00    +0.309 C 
ATOM     26  C   LIG A   1      -7.827   5.965 136.009  0.00  0.00    +0.136 C 
ATOM     27  O   LIG A   1      -5.625   6.103 135.069  0.00  0.00    -0.251 OA
ENDBRANCH  24  25
ENDBRANCH  21  24
ENDBRANCH   3  18
BRANCH  16  28
ATOM     28  O   LIG A   1      -6.751  -2.119 128.731  0.00  0.00    -0.424 OA
BRANCH  28  29
ATOM     29  C   LIG A   1      -7.378  -3.240 129.296  0.00  0.00    +0.309 C 
ATOM     30  C   LIG A   1      -6.395  -3.992 130.152  0.00  0.00    +0.136 C 
ATOM     31  O   LIG A   1      -8.568  -3.520 129.221  0.00  0.00    -0.251 OA
ENDBRANCH  28  29
ENDBRANCH  16  28
TORSDOF 5
ENDMDL
