MODEL 1
REMARK VINA RESULT:      -8.4      0.000      0.000
REMARK  Name = NuBBE_1130
REMARK  12 active torsions:
REMARK  status: ('A' for Active; 'I' for Inactive)
REMARK    1  A    between atoms: C_1  and  C_2
REMARK    2  A    between atoms: C_8  and  C_9
REMARK    3  A    between atoms: C_13  and  C_14
REMARK    4  A    between atoms: C_13  and  C_15
REMARK    5  A    between atoms: C_21  and  C_35
REMARK    6  A    between atoms: C_22  and  C_23
REMARK    7  A    between atoms: C_23  and  C_25
REMARK    8  A    between atoms: C_23  and  C_26
REMARK    9  A    between atoms: C_26  and  C_27
REMARK   10  A    between atoms: C_27  and  C_28
REMARK   11  A    between atoms: C_29  and  C_30
REMARK   12  A    between atoms: C_29  and  C_31
REMARK                            x       y       z     vdW  Elec       q    Type
REMARK                         _______ _______ _______ _____ _____    ______ ____
ROOT
ATOM      1  C   LIG A   1      -4.884   0.475 126.259  0.00  0.00    +0.016 C 
ATOM      2  C   LIG A   1      -6.260   0.272 126.951  0.00  0.00    -0.005 C 
ATOM      3  C   LIG A   1      -6.371   1.472 127.916  0.00  0.00    -0.063 C 
ATOM      4  C   LIG A   1      -6.836   2.687 127.558  0.00  0.00    -0.026 C 
ATOM      5  C   LIG A   1      -6.519   3.946 128.315  0.00  0.00    +0.032 C 
ATOM      6  C   LIG A   1      -5.241   3.744 129.160  0.00  0.00    +0.012 C 
ATOM      7  C   LIG A   1      -5.469   2.549 130.147  0.00  0.00    -0.021 C 
ATOM      8  C   LIG A   1      -6.660   2.773 131.108  0.00  0.00    +0.012 C 
ATOM      9  C   LIG A   1      -4.175   2.336 130.976  0.00  0.00    +0.015 C 
ATOM     10  C   LIG A   1      -3.669   3.598 131.656  0.00  0.00    +0.075 C 
ATOM     11  C   LIG A   1      -3.442   4.699 130.657  0.00  0.00    +0.139 C 
ATOM     12  C   LIG A   1      -4.607   5.059 129.724  0.00  0.00    +0.027 C 
ATOM     13  C   LIG A   1      -5.560   5.977 130.503  0.00  0.00    +0.019 C 
ATOM     14  C   LIG A   1      -4.047   5.885 128.533  0.00  0.00    +0.019 C 
ATOM     15  O   LIG A   1      -2.366   5.326 130.656  0.00  0.00    -0.297 OA
ATOM     16  C   LIG A   1      -5.689   1.254 129.260  0.00  0.00    +0.021 C 
ATOM     17  C   LIG A   1      -6.444   0.107 129.938  0.00  0.00    +0.009 C 
ATOM     18  C   LIG A   1      -6.185  -1.194 129.183  0.00  0.00    +0.008 C 
ATOM     19  C   LIG A   1      -6.460  -1.161 127.643  0.00  0.00    -0.020 C 
ATOM     20  C   LIG A   1      -7.993  -1.512 127.391  0.00  0.00    -0.001 C 
ATOM     21  C   LIG A   1      -8.541  -0.384 126.496  0.00  0.00    +0.005 C 
ATOM     22  C   LIG A   1      -7.327   0.232 125.838  0.00  0.00    +0.012 C 
ATOM     23  C   LIG A   1      -5.467  -2.180 127.037  0.00  0.00    +0.012 C 
ENDROOT
BRANCH  20  24
ATOM     24  C   LIG A   1      -8.436  -2.921 126.860  0.00  0.00    -0.010 C 
ATOM     25  C   LIG A   1      -8.927  -3.910 127.927  0.00  0.00    +0.008 C 
BRANCH  24  26
ATOM     26  C   LIG A   1      -9.397  -2.819 125.651  0.00  0.00    +0.007 C 
BRANCH  26  27
ATOM     27  C   LIG A   1      -8.927  -3.583 124.406  0.00  0.00    +0.027 C 
BRANCH  27  28
ATOM     28  C   LIG A   1      -7.425  -3.619 124.338  0.00  0.00    -0.028 C 
ATOM     29  C   LIG A   1      -6.620  -2.801 123.632  0.00  0.00    -0.080 C 
ATOM     30  C   LIG A   1      -7.085  -1.667 122.759  0.00  0.00    +0.038 C 
ATOM     31  C   LIG A   1      -5.123  -2.953 123.698  0.00  0.00    +0.038 C 
ENDBRANCH  27  28
ENDBRANCH  26  27
ENDBRANCH  24  26
ENDBRANCH  20  24
TORSDOF 4
ENDMDL
MODEL 2
REMARK VINA RESULT:      -8.2      3.403      5.588
REMARK  Name = NuBBE_1130
REMARK  12 active torsions:
REMARK  status: ('A' for Active; 'I' for Inactive)
REMARK    1  A    between atoms: C_1  and  C_2
REMARK    2  A    between atoms: C_8  and  C_9
REMARK    3  A    between atoms: C_13  and  C_14
REMARK    4  A    between atoms: C_13  and  C_15
REMARK    5  A    between atoms: C_21  and  C_35
REMARK    6  A    between atoms: C_22  and  C_23
REMARK    7  A    between atoms: C_23  and  C_25
REMARK    8  A    between atoms: C_23  and  C_26
REMARK    9  A    between atoms: C_26  and  C_27
REMARK   10  A    between atoms: C_27  and  C_28
REMARK   11  A    between atoms: C_29  and  C_30
REMARK   12  A    between atoms: C_29  and  C_31
REMARK                            x       y       z     vdW  Elec       q    Type
REMARK                         _______ _______ _______ _____ _____    ______ ____
ROOT
ATOM      1  C   LIG A   1      -5.689   0.805 126.965  0.00  0.00    +0.016 C 
ATOM      2  C   LIG A   1      -7.150   0.328 126.743  0.00  0.00    -0.005 C 
ATOM      3  C   LIG A   1      -7.502  -0.412 128.052  0.00  0.00    -0.063 C 
ATOM      4  C   LIG A   1      -7.969   0.198 129.161  0.00  0.00    -0.026 C 
ATOM      5  C   LIG A   1      -7.867  -0.401 130.536  0.00  0.00    +0.032 C 
ATOM      6  C   LIG A   1      -6.748  -1.466 130.563  0.00  0.00    +0.012 C 
ATOM      7  C   LIG A   1      -7.073  -2.572 129.502  0.00  0.00    -0.021 C 
ATOM      8  C   LIG A   1      -8.426  -3.277 129.754  0.00  0.00    +0.012 C 
ATOM      9  C   LIG A   1      -5.935  -3.626 129.518  0.00  0.00    +0.015 C 
ATOM     10  C   LIG A   1      -5.634  -4.181 130.901  0.00  0.00    +0.075 C 
ATOM     11  C   LIG A   1      -5.302  -3.078 131.867  0.00  0.00    +0.139 C 
ATOM     12  C   LIG A   1      -6.304  -1.921 131.994  0.00  0.00    +0.027 C 
ATOM     13  C   LIG A   1      -7.433  -2.384 132.925  0.00  0.00    +0.019 C 
ATOM     14  C   LIG A   1      -5.594  -0.728 132.690  0.00  0.00    +0.019 C 
ATOM     15  O   LIG A   1      -4.283  -3.160 132.578  0.00  0.00    -0.297 OA
ATOM     16  C   LIG A   1      -7.055  -1.868 128.082  0.00  0.00    +0.021 C 
ATOM     17  C   LIG A   1      -7.847  -2.578 126.980  0.00  0.00    +0.009 C 
ATOM     18  C   LIG A   1      -7.381  -2.081 125.614  0.00  0.00    +0.008 C 
ATOM     19  C   LIG A   1      -7.382  -0.531 125.409  0.00  0.00    -0.020 C 
ATOM     20  C   LIG A   1      -8.823  -0.085 124.896  0.00  0.00    -0.001 C 
ATOM     21  C   LIG A   1      -9.271   1.049 125.837  0.00  0.00    +0.005 C 
ATOM     22  C   LIG A   1      -8.000   1.583 126.458  0.00  0.00    +0.012 C 
ATOM     23  C   LIG A   1      -6.238  -0.259 124.404  0.00  0.00    +0.012 C 
ENDROOT
BRANCH  20  24
ATOM     24  C   LIG A   1      -9.079   0.293 123.394  0.00  0.00    -0.010 C 
ATOM     25  C   LIG A   1      -9.763  -0.787 122.544  0.00  0.00    +0.008 C 
BRANCH  24  26
ATOM     26  C   LIG A   1      -9.740   1.683 123.241  0.00  0.00    +0.007 C 
BRANCH  26  27
ATOM     27  C   LIG A   1      -8.903   2.696 122.447  0.00  0.00    +0.027 C 
BRANCH  27  28
ATOM     28  C   LIG A   1      -7.789   3.245 123.294  0.00  0.00    -0.028 C 
ATOM     29  C   LIG A   1      -6.510   3.458 122.923  0.00  0.00    -0.080 C 
ATOM     30  C   LIG A   1      -5.946   3.181 121.556  0.00  0.00    +0.038 C 
ATOM     31  C   LIG A   1      -5.518   4.048 123.891  0.00  0.00    +0.038 C 
ENDBRANCH  27  28
ENDBRANCH  26  27
ENDBRANCH  24  26
ENDBRANCH  20  24
TORSDOF 4
ENDMDL
MODEL 3
REMARK VINA RESULT:      -8.2      2.886      8.230
REMARK  Name = NuBBE_1130
REMARK  12 active torsions:
REMARK  status: ('A' for Active; 'I' for Inactive)
REMARK    1  A    between atoms: C_1  and  C_2
REMARK    2  A    between atoms: C_8  and  C_9
REMARK    3  A    between atoms: C_13  and  C_14
REMARK    4  A    between atoms: C_13  and  C_15
REMARK    5  A    between atoms: C_21  and  C_35
REMARK    6  A    between atoms: C_22  and  C_23
REMARK    7  A    between atoms: C_23  and  C_25
REMARK    8  A    between atoms: C_23  and  C_26
REMARK    9  A    between atoms: C_26  and  C_27
REMARK   10  A    between atoms: C_27  and  C_28
REMARK   11  A    between atoms: C_29  and  C_30
REMARK   12  A    between atoms: C_29  and  C_31
REMARK                            x       y       z     vdW  Elec       q    Type
REMARK                         _______ _______ _______ _____ _____    ______ ____
ROOT
ATOM      1  C   LIG A   1      -7.990   2.836 126.996  0.00  0.00    +0.016 C 
ATOM      2  C   LIG A   1      -7.035   2.309 128.101  0.00  0.00    -0.005 C 
ATOM      3  C   LIG A   1      -6.522   0.965 127.539  0.00  0.00    -0.063 C 
ATOM      4  C   LIG A   1      -5.468   0.850 126.703  0.00  0.00    -0.026 C 
ATOM      5  C   LIG A   1      -5.256  -0.336 125.803  0.00  0.00    +0.032 C 
ATOM      6  C   LIG A   1      -6.595  -1.074 125.584  0.00  0.00    +0.012 C 
ATOM      7  C   LIG A   1      -7.157  -1.531 126.974  0.00  0.00    -0.021 C 
ATOM      8  C   LIG A   1      -6.198  -2.472 127.737  0.00  0.00    +0.012 C 
ATOM      9  C   LIG A   1      -8.512  -2.252 126.750  0.00  0.00    +0.015 C 
ATOM     10  C   LIG A   1      -8.447  -3.372 125.724  0.00  0.00    +0.075 C 
ATOM     11  C   LIG A   1      -7.929  -2.869 124.405  0.00  0.00    +0.139 C 
ATOM     12  C   LIG A   1      -6.594  -2.110 124.411  0.00  0.00    +0.027 C 
ATOM     13  C   LIG A   1      -5.467  -3.153 124.445  0.00  0.00    +0.019 C 
ATOM     14  C   LIG A   1      -6.461  -1.335 123.071  0.00  0.00    +0.019 C 
ATOM     15  O   LIG A   1      -8.543  -3.134 123.354  0.00  0.00    -0.297 OA
ATOM     16  C   LIG A   1      -7.446  -0.214 127.809  0.00  0.00    +0.021 C 
ATOM     17  C   LIG A   1      -7.480  -0.388 129.329  0.00  0.00    +0.009 C 
ATOM     18  C   LIG A   1      -8.204   0.796 129.965  0.00  0.00    +0.008 C 
ATOM     19  C   LIG A   1      -7.684   2.215 129.564  0.00  0.00    -0.020 C 
ATOM     20  C   LIG A   1      -6.500   2.622 130.550  0.00  0.00    -0.001 C 
ATOM     21  C   LIG A   1      -5.325   3.039 129.645  0.00  0.00    +0.005 C 
ATOM     22  C   LIG A   1      -5.946   3.383 128.310  0.00  0.00    +0.012 C 
ATOM     23  C   LIG A   1      -8.925   3.135 129.647  0.00  0.00    +0.012 C 
ENDROOT
BRANCH  20  24
ATOM     24  C   LIG A   1      -6.717   3.658 131.709  0.00  0.00    -0.010 C 
ATOM     25  C   LIG A   1      -6.798   3.067 133.123  0.00  0.00    +0.008 C 
BRANCH  24  26
ATOM     26  C   LIG A   1      -5.743   4.857 131.616  0.00  0.00    +0.007 C 
BRANCH  26  27
ATOM     27  C   LIG A   1      -6.337   6.190 132.092  0.00  0.00    +0.027 C 
BRANCH  27  28
ATOM     28  C   LIG A   1      -7.341   6.710 131.100  0.00  0.00    -0.028 C 
ATOM     29  C   LIG A   1      -8.684   6.642 131.187  0.00  0.00    -0.080 C 
ATOM     30  C   LIG A   1      -9.450   6.020 132.324  0.00  0.00    +0.038 C 
ATOM     31  C   LIG A   1      -9.554   7.243 130.115  0.00  0.00    +0.038 C 
ENDBRANCH  27  28
ENDBRANCH  26  27
ENDBRANCH  24  26
ENDBRANCH  20  24
TORSDOF 4
ENDMDL
MODEL 4
REMARK VINA RESULT:      -8.1      2.165      2.719
REMARK  Name = NuBBE_1130
REMARK  12 active torsions:
REMARK  status: ('A' for Active; 'I' for Inactive)
REMARK    1  A    between atoms: C_1  and  C_2
REMARK    2  A    between atoms: C_8  and  C_9
REMARK    3  A    between atoms: C_13  and  C_14
REMARK    4  A    between atoms: C_13  and  C_15
REMARK    5  A    between atoms: C_21  and  C_35
REMARK    6  A    between atoms: C_22  and  C_23
REMARK    7  A    between atoms: C_23  and  C_25
REMARK    8  A    between atoms: C_23  and  C_26
REMARK    9  A    between atoms: C_26  and  C_27
REMARK   10  A    between atoms: C_27  and  C_28
REMARK   11  A    between atoms: C_29  and  C_30
REMARK   12  A    between atoms: C_29  and  C_31
REMARK                            x       y       z     vdW  Elec       q    Type
REMARK                         _______ _______ _______ _____ _____    ______ ____
ROOT
ATOM      1  C   LIG A   1      -5.466   1.463 128.614  0.00  0.00    +0.016 C 
ATOM      2  C   LIG A   1      -6.931   0.974 128.458  0.00  0.00    -0.005 C 
ATOM      3  C   LIG A   1      -7.745   1.947 129.337  0.00  0.00    -0.063 C 
ATOM      4  C   LIG A   1      -8.198   3.145 128.915  0.00  0.00    -0.026 C 
ATOM      5  C   LIG A   1      -8.559   4.266 129.850  0.00  0.00    +0.032 C 
ATOM      6  C   LIG A   1      -7.862   4.057 131.213  0.00  0.00    +0.012 C 
ATOM      7  C   LIG A   1      -8.311   2.678 131.806  0.00  0.00    -0.021 C 
ATOM      8  C   LIG A   1      -9.839   2.575 132.017  0.00  0.00    +0.012 C 
ATOM      9  C   LIG A   1      -7.591   2.464 133.164  0.00  0.00    +0.015 C 
ATOM     10  C   LIG A   1      -7.754   3.624 134.133  0.00  0.00    +0.075 C 
ATOM     11  C   LIG A   1      -7.282   4.913 133.520  0.00  0.00    +0.139 C 
ATOM     12  C   LIG A   1      -7.870   5.306 132.157  0.00  0.00    +0.027 C 
ATOM     13  C   LIG A   1      -9.244   5.941 132.410  0.00  0.00    +0.019 C 
ATOM     14  C   LIG A   1      -6.966   6.402 131.528  0.00  0.00    +0.019 C 
ATOM     15  O   LIG A   1      -6.498   5.650 134.147  0.00  0.00    -0.297 OA
ATOM     16  C   LIG A   1      -7.797   1.558 130.809  0.00  0.00    +0.021 C 
ATOM     17  C   LIG A   1      -8.545   0.224 130.869  0.00  0.00    +0.009 C 
ATOM     18  C   LIG A   1      -7.692  -0.871 130.233  0.00  0.00    +0.008 C 
ATOM     19  C   LIG A   1      -7.162  -0.578 128.791  0.00  0.00    -0.020 C 
ATOM     20  C   LIG A   1      -8.260  -1.051 127.738  0.00  0.00    -0.001 C 
ATOM     21  C   LIG A   1      -8.498   0.155 126.810  0.00  0.00    +0.005 C 
ATOM     22  C   LIG A   1      -7.268   1.022 126.952  0.00  0.00    +0.012 C 
ATOM     23  C   LIG A   1      -5.820  -1.341 128.695  0.00  0.00    +0.012 C 
ENDROOT
BRANCH  20  24
ATOM     24  C   LIG A   1      -8.089  -2.375 126.913  0.00  0.00    -0.010 C 
ATOM     25  C   LIG A   1      -8.639  -3.647 127.574  0.00  0.00    +0.008 C 
BRANCH  24  26
ATOM     26  C   LIG A   1      -8.549  -2.217 125.444  0.00  0.00    +0.007 C 
BRANCH  26  27
ATOM     27  C   LIG A   1      -8.270  -3.440 124.560  0.00  0.00    +0.027 C 
BRANCH  27  28
ATOM     28  C   LIG A   1      -6.790  -3.640 124.379  0.00  0.00    -0.028 C 
ATOM     29  C   LIG A   1      -5.970  -2.963 123.551  0.00  0.00    -0.080 C 
ATOM     30  C   LIG A   1      -6.393  -1.849 122.630  0.00  0.00    +0.038 C 
ATOM     31  C   LIG A   1      -4.496  -3.267 123.512  0.00  0.00    +0.038 C 
ENDBRANCH  27  28
ENDBRANCH  26  27
ENDBRANCH  24  26
ENDBRANCH  20  24
TORSDOF 4
ENDMDL
MODEL 5
REMARK VINA RESULT:      -8.0      3.066      5.126
REMARK  Name = NuBBE_1130
REMARK  12 active torsions:
REMARK  status: ('A' for Active; 'I' for Inactive)
REMARK    1  A    between atoms: C_1  and  C_2
REMARK    2  A    between atoms: C_8  and  C_9
REMARK    3  A    between atoms: C_13  and  C_14
REMARK    4  A    between atoms: C_13  and  C_15
REMARK    5  A    between atoms: C_21  and  C_35
REMARK    6  A    between atoms: C_22  and  C_23
REMARK    7  A    between atoms: C_23  and  C_25
REMARK    8  A    between atoms: C_23  and  C_26
REMARK    9  A    between atoms: C_26  and  C_27
REMARK   10  A    between atoms: C_27  and  C_28
REMARK   11  A    between atoms: C_29  and  C_30
REMARK   12  A    between atoms: C_29  and  C_31
REMARK                            x       y       z     vdW  Elec       q    Type
REMARK                         _______ _______ _______ _____ _____    ______ ____
ROOT
ATOM      1  C   LIG A   1      -7.717   1.025 128.850  0.00  0.00    +0.016 C 
ATOM      2  C   LIG A   1      -7.518   0.683 130.352  0.00  0.00    -0.005 C 
ATOM      3  C   LIG A   1      -8.136   1.888 131.093  0.00  0.00    -0.063 C 
ATOM      4  C   LIG A   1      -9.448   2.000 131.388  0.00  0.00    -0.026 C 
ATOM      5  C   LIG A   1     -10.121   3.315 131.666  0.00  0.00    +0.032 C 
ATOM      6  C   LIG A   1      -9.287   4.469 131.064  0.00  0.00    +0.012 C 
ATOM      7  C   LIG A   1      -7.852   4.440 131.693  0.00  0.00    -0.021 C 
ATOM      8  C   LIG A   1      -7.860   4.592 133.231  0.00  0.00    +0.012 C 
ATOM      9  C   LIG A   1      -7.013   5.586 131.068  0.00  0.00    +0.015 C 
ATOM     10  C   LIG A   1      -7.683   6.948 131.147  0.00  0.00    +0.075 C 
ATOM     11  C   LIG A   1      -9.042   6.922 130.504  0.00  0.00    +0.139 C 
ATOM     12  C   LIG A   1     -10.029   5.844 130.977  0.00  0.00    +0.027 C 
ATOM     13  C   LIG A   1     -10.667   6.340 132.282  0.00  0.00    +0.019 C 
ATOM     14  C   LIG A   1     -11.167   5.723 129.927  0.00  0.00    +0.019 C 
ATOM     15  O   LIG A   1      -9.354   7.796 129.674  0.00  0.00    -0.297 OA
ATOM     16  C   LIG A   1      -7.187   3.067 131.260  0.00  0.00    +0.021 C 
ATOM     17  C   LIG A   1      -6.048   2.572 132.155  0.00  0.00    +0.009 C 
ATOM     18  C   LIG A   1      -5.216   1.538 131.400  0.00  0.00    +0.008 C 
ATOM     19  C   LIG A   1      -6.008   0.345 130.771  0.00  0.00    -0.020 C 
ATOM     20  C   LIG A   1      -6.147  -0.806 131.863  0.00  0.00    -0.001 C 
ATOM     21  C   LIG A   1      -7.647  -1.153 131.919  0.00  0.00    +0.005 C 
ATOM     22  C   LIG A   1      -8.222  -0.667 130.607  0.00  0.00    +0.012 C 
ATOM     23  C   LIG A   1      -5.194  -0.060 129.520  0.00  0.00    +0.012 C 
ENDROOT
BRANCH  20  24
ATOM     24  C   LIG A   1      -5.269  -2.106 131.801  0.00  0.00    -0.010 C 
ATOM     25  C   LIG A   1      -4.061  -2.137 132.748  0.00  0.00    +0.008 C 
BRANCH  24  26
ATOM     26  C   LIG A   1      -6.120  -3.396 131.873  0.00  0.00    +0.007 C 
BRANCH  26  27
ATOM     27  C   LIG A   1      -6.008  -4.296 130.635  0.00  0.00    +0.027 C 
BRANCH  27  28
ATOM     28  C   LIG A   1      -6.055  -3.476 129.375  0.00  0.00    -0.028 C 
ATOM     29  C   LIG A   1      -7.135  -3.212 128.612  0.00  0.00    -0.080 C 
ATOM     30  C   LIG A   1      -8.532  -3.700 128.888  0.00  0.00    +0.038 C 
ATOM     31  C   LIG A   1      -7.017  -2.341 127.389  0.00  0.00    +0.038 C 
ENDBRANCH  27  28
ENDBRANCH  26  27
ENDBRANCH  24  26
ENDBRANCH  20  24
TORSDOF 4
ENDMDL
MODEL 6
REMARK VINA RESULT:      -7.9      2.777      8.188
REMARK  Name = NuBBE_1130
REMARK  12 active torsions:
REMARK  status: ('A' for Active; 'I' for Inactive)
REMARK    1  A    between atoms: C_1  and  C_2
REMARK    2  A    between atoms: C_8  and  C_9
REMARK    3  A    between atoms: C_13  and  C_14
REMARK    4  A    between atoms: C_13  and  C_15
REMARK    5  A    between atoms: C_21  and  C_35
REMARK    6  A    between atoms: C_22  and  C_23
REMARK    7  A    between atoms: C_23  and  C_25
REMARK    8  A    between atoms: C_23  and  C_26
REMARK    9  A    between atoms: C_26  and  C_27
REMARK   10  A    between atoms: C_27  and  C_28
REMARK   11  A    between atoms: C_29  and  C_30
REMARK   12  A    between atoms: C_29  and  C_31
REMARK                            x       y       z     vdW  Elec       q    Type
REMARK                         _______ _______ _______ _____ _____    ______ ____
ROOT
ATOM      1  C   LIG A   1      -7.502   0.329 129.834  0.00  0.00    +0.016 C 
ATOM      2  C   LIG A   1      -7.476   1.667 129.045  0.00  0.00    -0.005 C 
ATOM      3  C   LIG A   1      -7.722   1.241 127.582  0.00  0.00    -0.063 C 
ATOM      4  C   LIG A   1      -8.947   1.057 127.047  0.00  0.00    -0.026 C 
ATOM      5  C   LIG A   1      -9.194   0.216 125.824  0.00  0.00    +0.032 C 
ATOM      6  C   LIG A   1      -8.024  -0.772 125.622  0.00  0.00    +0.012 C 
ATOM      7  C   LIG A   1      -6.693   0.040 125.473  0.00  0.00    -0.021 C 
ATOM      8  C   LIG A   1      -6.713   1.025 124.281  0.00  0.00    +0.012 C 
ATOM      9  C   LIG A   1      -5.519  -0.959 125.293  0.00  0.00    +0.015 C 
ATOM     10  C   LIG A   1      -5.742  -1.971 124.180  0.00  0.00    +0.075 C 
ATOM     11  C   LIG A   1      -7.017  -2.738 124.392  0.00  0.00    +0.139 C 
ATOM     12  C   LIG A   1      -8.305  -1.928 124.604  0.00  0.00    +0.027 C 
ATOM     13  C   LIG A   1      -8.810  -1.489 123.222  0.00  0.00    +0.019 C 
ATOM     14  C   LIG A   1      -9.384  -2.866 125.210  0.00  0.00    +0.019 C 
ATOM     15  O   LIG A   1      -7.014  -3.981 124.322  0.00  0.00    -0.297 OA
ATOM     16  C   LIG A   1      -6.465   0.807 126.841  0.00  0.00    +0.021 C 
ATOM     17  C   LIG A   1      -5.568   2.045 126.765  0.00  0.00    +0.009 C 
ATOM     18  C   LIG A   1      -5.064   2.399 128.162  0.00  0.00    +0.008 C 
ATOM     19  C   LIG A   1      -6.159   2.554 129.268  0.00  0.00    -0.020 C 
ATOM     20  C   LIG A   1      -6.686   4.057 129.257  0.00  0.00    -0.001 C 
ATOM     21  C   LIG A   1      -8.222   3.963 129.166  0.00  0.00    +0.005 C 
ATOM     22  C   LIG A   1      -8.569   2.573 129.650  0.00  0.00    +0.012 C 
ATOM     23  C   LIG A   1      -5.461   2.136 130.584  0.00  0.00    +0.012 C 
ENDROOT
BRANCH  20  24
ATOM     24  C   LIG A   1      -6.247   5.090 130.354  0.00  0.00    -0.010 C 
ATOM     25  C   LIG A   1      -5.005   5.928 130.020  0.00  0.00    +0.008 C 
BRANCH  24  26
ATOM     26  C   LIG A   1      -7.430   5.949 130.861  0.00  0.00    +0.007 C 
BRANCH  26  27
ATOM     27  C   LIG A   1      -7.698   5.828 132.367  0.00  0.00    +0.027 C 
BRANCH  27  28
ATOM     28  C   LIG A   1      -7.078   4.574 132.919  0.00  0.00    -0.028 C 
ATOM     29  C   LIG A   1      -7.717   3.468 133.351  0.00  0.00    -0.080 C 
ATOM     30  C   LIG A   1      -9.210   3.277 133.360  0.00  0.00    +0.038 C 
ATOM     31  C   LIG A   1      -6.941   2.278 133.849  0.00  0.00    +0.038 C 
ENDBRANCH  27  28
ENDBRANCH  26  27
ENDBRANCH  24  26
ENDBRANCH  20  24
TORSDOF 4
ENDMDL
MODEL 7
REMARK VINA RESULT:      -7.7      3.973      8.311
REMARK  Name = NuBBE_1130
REMARK  12 active torsions:
REMARK  status: ('A' for Active; 'I' for Inactive)
REMARK    1  A    between atoms: C_1  and  C_2
REMARK    2  A    between atoms: C_8  and  C_9
REMARK    3  A    between atoms: C_13  and  C_14
REMARK    4  A    between atoms: C_13  and  C_15
REMARK    5  A    between atoms: C_21  and  C_35
REMARK    6  A    between atoms: C_22  and  C_23
REMARK    7  A    between atoms: C_23  and  C_25
REMARK    8  A    between atoms: C_23  and  C_26
REMARK    9  A    between atoms: C_26  and  C_27
REMARK   10  A    between atoms: C_27  and  C_28
REMARK   11  A    between atoms: C_29  and  C_30
REMARK   12  A    between atoms: C_29  and  C_31
REMARK                            x       y       z     vdW  Elec       q    Type
REMARK                         _______ _______ _______ _____ _____    ______ ____
ROOT
ATOM      1  C   LIG A   1      -9.649   1.218 131.861  0.00  0.00    +0.016 C 
ATOM      2  C   LIG A   1      -8.703   2.163 131.071  0.00  0.00    -0.005 C 
ATOM      3  C   LIG A   1      -7.652   1.212 130.459  0.00  0.00    -0.063 C 
ATOM      4  C   LIG A   1      -7.818   0.554 129.293  0.00  0.00    -0.026 C 
ATOM      5  C   LIG A   1      -7.053  -0.689 128.932  0.00  0.00    +0.032 C 
ATOM      6  C   LIG A   1      -6.509  -1.360 130.212  0.00  0.00    +0.012 C 
ATOM      7  C   LIG A   1      -5.584  -0.344 130.966  0.00  0.00    -0.021 C 
ATOM      8  C   LIG A   1      -4.385   0.132 130.114  0.00  0.00    +0.012 C 
ATOM      9  C   LIG A   1      -5.059  -1.016 132.261  0.00  0.00    +0.015 C 
ATOM     10  C   LIG A   1      -4.409  -2.370 132.028  0.00  0.00    +0.075 C 
ATOM     11  C   LIG A   1      -5.351  -3.311 131.329  0.00  0.00    +0.139 C 
ATOM     12  C   LIG A   1      -5.994  -2.827 130.021  0.00  0.00    +0.027 C 
ATOM     13  C   LIG A   1      -4.970  -3.032 128.896  0.00  0.00    +0.019 C 
ATOM     14  C   LIG A   1      -7.212  -3.737 129.705  0.00  0.00    +0.019 C 
ATOM     15  O   LIG A   1      -5.529  -4.459 131.777  0.00  0.00    -0.297 OA
ATOM     16  C   LIG A   1      -6.498   0.878 131.395  0.00  0.00    +0.021 C 
ATOM     17  C   LIG A   1      -5.763   2.197 131.650  0.00  0.00    +0.009 C 
ATOM     18  C   LIG A   1      -6.648   3.125 132.478  0.00  0.00    +0.008 C 
ATOM     19  C   LIG A   1      -8.091   3.372 131.927  0.00  0.00    -0.020 C 
ATOM     20  C   LIG A   1      -8.044   4.596 130.908  0.00  0.00    -0.001 C 
ATOM     21  C   LIG A   1      -8.723   4.095 129.619  0.00  0.00    +0.005 C 
ATOM     22  C   LIG A   1      -9.572   2.918 130.042  0.00  0.00    +0.012 C 
ATOM     23  C   LIG A   1      -8.961   3.622 133.181  0.00  0.00    +0.012 C 
ENDROOT
BRANCH  20  24
ATOM     24  C   LIG A   1      -8.573   6.019 131.310  0.00  0.00    -0.010 C 
ATOM     25  C   LIG A   1      -7.607   7.184 131.055  0.00  0.00    +0.008 C 
BRANCH  24  26
ATOM     26  C   LIG A   1      -9.996   6.292 130.768  0.00  0.00    +0.007 C 
BRANCH  26  27
ATOM     27  C   LIG A   1     -10.066   7.396 129.704  0.00  0.00    +0.027 C 
BRANCH  27  28
ATOM     28  C   LIG A   1     -11.264   7.204 128.815  0.00  0.00    -0.028 C 
ATOM     29  C   LIG A   1     -12.429   7.881 128.858  0.00  0.00    -0.080 C 
ATOM     30  C   LIG A   1     -12.755   8.986 129.827  0.00  0.00    +0.038 C 
ATOM     31  C   LIG A   1     -13.526   7.584 127.870  0.00  0.00    +0.038 C 
ENDBRANCH  27  28
ENDBRANCH  26  27
ENDBRANCH  24  26
ENDBRANCH  20  24
TORSDOF 4
ENDMDL
MODEL 8
REMARK VINA RESULT:      -7.7      3.841      8.375
REMARK  Name = NuBBE_1130
REMARK  12 active torsions:
REMARK  status: ('A' for Active; 'I' for Inactive)
REMARK    1  A    between atoms: C_1  and  C_2
REMARK    2  A    between atoms: C_8  and  C_9
REMARK    3  A    between atoms: C_13  and  C_14
REMARK    4  A    between atoms: C_13  and  C_15
REMARK    5  A    between atoms: C_21  and  C_35
REMARK    6  A    between atoms: C_22  and  C_23
REMARK    7  A    between atoms: C_23  and  C_25
REMARK    8  A    between atoms: C_23  and  C_26
REMARK    9  A    between atoms: C_26  and  C_27
REMARK   10  A    between atoms: C_27  and  C_28
REMARK   11  A    between atoms: C_29  and  C_30
REMARK   12  A    between atoms: C_29  and  C_31
REMARK                            x       y       z     vdW  Elec       q    Type
REMARK                         _______ _______ _______ _____ _____    ______ ____
ROOT
ATOM      1  C   LIG A   1      -5.760   2.285 132.176  0.00  0.00    +0.016 C 
ATOM      2  C   LIG A   1      -7.254   2.000 131.861  0.00  0.00    -0.005 C 
ATOM      3  C   LIG A   1      -7.272   0.512 131.451  0.00  0.00    -0.063 C 
ATOM      4  C   LIG A   1      -7.358  -0.510 132.327  0.00  0.00    -0.026 C 
ATOM      5  C   LIG A   1      -6.912  -1.910 132.006  0.00  0.00    +0.032 C 
ATOM      6  C   LIG A   1      -5.911  -1.885 130.830  0.00  0.00    +0.012 C 
ATOM      7  C   LIG A   1      -6.603  -1.229 129.587  0.00  0.00    -0.021 C 
ATOM      8  C   LIG A   1      -7.875  -1.981 129.132  0.00  0.00    +0.012 C 
ATOM      9  C   LIG A   1      -5.586  -1.186 128.416  0.00  0.00    +0.015 C 
ATOM     10  C   LIG A   1      -4.944  -2.531 128.115  0.00  0.00    +0.075 C 
ATOM     11  C   LIG A   1      -4.272  -3.098 129.334  0.00  0.00    +0.139 C 
ATOM     12  C   LIG A   1      -5.111  -3.214 130.615  0.00  0.00    +0.027 C 
ATOM     13  C   LIG A   1      -5.958  -4.490 130.501  0.00  0.00    +0.019 C 
ATOM     14  C   LIG A   1      -4.149  -3.408 131.819  0.00  0.00    +0.019 C 
ATOM     15  O   LIG A   1      -3.101  -3.515 129.262  0.00  0.00    -0.297 OA
ATOM     16  C   LIG A   1      -6.940   0.269 129.985  0.00  0.00    +0.021 C 
ATOM     17  C   LIG A   1      -8.061   0.931 129.180  0.00  0.00    +0.009 C 
ATOM     18  C   LIG A   1      -7.969   2.448 129.328  0.00  0.00    +0.008 C 
ATOM     19  C   LIG A   1      -7.918   2.994 130.792  0.00  0.00    -0.020 C 
ATOM     20  C   LIG A   1      -9.409   3.199 131.313  0.00  0.00    -0.001 C 
ATOM     21  C   LIG A   1      -9.489   2.458 132.661  0.00  0.00    +0.005 C 
ATOM     22  C   LIG A   1      -8.059   2.332 133.136  0.00  0.00    +0.012 C 
ATOM     23  C   LIG A   1      -7.091   4.299 130.704  0.00  0.00    +0.012 C 
ENDROOT
BRANCH  20  24
ATOM     24  C   LIG A   1     -10.055   4.627 131.413  0.00  0.00    -0.010 C 
ATOM     25  C   LIG A   1      -9.660   5.449 132.648  0.00  0.00    +0.008 C 
BRANCH  24  26
ATOM     26  C   LIG A   1      -9.926   5.426 130.095  0.00  0.00    +0.007 C 
BRANCH  26  27
ATOM     27  C   LIG A   1      -9.732   6.936 130.289  0.00  0.00    +0.027 C 
BRANCH  27  28
ATOM     28  C   LIG A   1     -10.745   7.709 129.490  0.00  0.00    -0.028 C 
ATOM     29  C   LIG A   1     -12.027   7.961 129.821  0.00  0.00    -0.080 C 
ATOM     30  C   LIG A   1     -12.701   7.506 131.088  0.00  0.00    +0.038 C 
ATOM     31  C   LIG A   1     -12.907   8.783 128.917  0.00  0.00    +0.038 C 
ENDBRANCH  27  28
ENDBRANCH  26  27
ENDBRANCH  24  26
ENDBRANCH  20  24
TORSDOF 4
ENDMDL
MODEL 9
REMARK VINA RESULT:      -7.5      3.542      7.417
REMARK  Name = NuBBE_1130
REMARK  12 active torsions:
REMARK  status: ('A' for Active; 'I' for Inactive)
REMARK    1  A    between atoms: C_1  and  C_2
REMARK    2  A    between atoms: C_8  and  C_9
REMARK    3  A    between atoms: C_13  and  C_14
REMARK    4  A    between atoms: C_13  and  C_15
REMARK    5  A    between atoms: C_21  and  C_35
REMARK    6  A    between atoms: C_22  and  C_23
REMARK    7  A    between atoms: C_23  and  C_25
REMARK    8  A    between atoms: C_23  and  C_26
REMARK    9  A    between atoms: C_26  and  C_27
REMARK   10  A    between atoms: C_27  and  C_28
REMARK   11  A    between atoms: C_29  and  C_30
REMARK   12  A    between atoms: C_29  and  C_31
REMARK                            x       y       z     vdW  Elec       q    Type
REMARK                         _______ _______ _______ _____ _____    ______ ____
ROOT
ATOM      1  C   LIG A   1      -7.992   1.195 129.027  0.00  0.00    +0.016 C 
ATOM      2  C   LIG A   1      -6.966   0.065 129.314  0.00  0.00    -0.005 C 
ATOM      3  C   LIG A   1      -6.694  -0.553 127.925  0.00  0.00    -0.063 C 
ATOM      4  C   LIG A   1      -5.783  -0.074 127.053  0.00  0.00    -0.026 C 
ATOM      5  C   LIG A   1      -5.834  -0.349 125.575  0.00  0.00    +0.032 C 
ATOM      6  C   LIG A   1      -7.268  -0.753 125.166  0.00  0.00    +0.012 C 
ATOM      7  C   LIG A   1      -7.688  -2.025 125.978  0.00  0.00    -0.021 C 
ATOM      8  C   LIG A   1      -6.753  -3.233 125.741  0.00  0.00    +0.012 C 
ATOM      9  C   LIG A   1      -9.137  -2.413 125.579  0.00  0.00    +0.015 C 
ATOM     10  C   LIG A   1      -9.341  -2.554 124.079  0.00  0.00    +0.075 C 
ATOM     11  C   LIG A   1      -8.949  -1.296 123.357  0.00  0.00    +0.139 C 
ATOM     12  C   LIG A   1      -7.545  -0.733 123.625  0.00  0.00    +0.027 C 
ATOM     13  C   LIG A   1      -6.555  -1.526 122.760  0.00  0.00    +0.019 C 
ATOM     14  C   LIG A   1      -7.503   0.740 123.137  0.00  0.00    +0.019 C 
ATOM     15  O   LIG A   1      -9.725  -0.788 122.525  0.00  0.00    -0.297 OA
ATOM     16  C   LIG A   1      -7.707  -1.611 127.508  0.00  0.00    +0.021 C 
ATOM     17  C   LIG A   1      -7.556  -2.760 128.507  0.00  0.00    +0.009 C 
ATOM     18  C   LIG A   1      -8.045  -2.311 129.882  0.00  0.00    +0.008 C 
ATOM     19  C   LIG A   1      -7.420  -0.988 130.435  0.00  0.00    -0.020 C 
ATOM     20  C   LIG A   1      -6.076  -1.345 131.212  0.00  0.00    -0.001 C 
ATOM     21  C   LIG A   1      -4.991  -0.426 130.618  0.00  0.00    +0.005 C 
ATOM     22  C   LIG A   1      -5.740   0.723 129.983  0.00  0.00    +0.012 C 
ATOM     23  C   LIG A   1      -8.522  -0.365 131.324  0.00  0.00    +0.012 C 
ENDROOT
BRANCH  20  24
ATOM     24  C   LIG A   1      -6.012  -1.355 132.780  0.00  0.00    -0.010 C 
ATOM     25  C   LIG A   1      -5.603  -0.029 133.437  0.00  0.00    +0.008 C 
BRANCH  24  26
ATOM     26  C   LIG A   1      -7.278  -1.973 133.417  0.00  0.00    +0.007 C 
BRANCH  26  27
ATOM     27  C   LIG A   1      -7.425  -3.484 133.192  0.00  0.00    +0.027 C 
BRANCH  27  28
ATOM     28  C   LIG A   1      -6.164  -4.205 133.582  0.00  0.00    -0.028 C 
ATOM     29  C   LIG A   1      -5.330  -4.887 132.772  0.00  0.00    -0.080 C 
ATOM     30  C   LIG A   1      -5.508  -5.055 131.286  0.00  0.00    +0.038 C 
ATOM     31  C   LIG A   1      -4.083  -5.530 133.319  0.00  0.00    +0.038 C 
ENDBRANCH  27  28
ENDBRANCH  26  27
ENDBRANCH  24  26
ENDBRANCH  20  24
TORSDOF 4
ENDMDL
