MODEL 1
REMARK VINA RESULT:      -8.1      0.000      0.000
REMARK  Name = NuBBE_587
REMARK  4 active torsions:
REMARK  status: ('A' for Active; 'I' for Inactive)
REMARK    1  A    between atoms: O_1  and  C_2
REMARK    2  A    between atoms: C_2  and  C_20
REMARK    3  A    between atoms: C_3  and  C_5
REMARK    4  A    between atoms: C_6  and  C_8
REMARK                            x       y       z     vdW  Elec       q    Type
REMARK                         _______ _______ _______ _____ _____    ______ ____
ROOT
ATOM      1  C   LIG A   1      -6.512  -1.052 125.634  0.00  0.00    +0.123 C 
ATOM      2  C   LIG A   1      -6.539  -1.493 124.135  0.00  0.00    +0.037 C 
ATOM      3  C   LIG A   1      -5.647  -2.733 123.875  0.00  0.00    +0.012 C 
ATOM      4  C   LIG A   1      -7.958  -1.767 123.600  0.00  0.00    +0.063 C 
ATOM      5  C   LIG A   1      -8.767  -0.509 123.289  0.00  0.00    +0.016 C 
ATOM      6  C   LIG A   1      -8.765  -2.663 124.519  0.00  0.00    +0.167 C 
ATOM      7  O   LIG A   1      -9.758  -3.261 124.109  0.00  0.00    -0.292 OA
ATOM      8  C   LIG A   1      -7.317  -2.018 126.485  0.00  0.00    +0.044 A 
ATOM      9  C   LIG A   1      -8.379  -2.774 125.952  0.00  0.00    +0.028 A 
ATOM     10  C   LIG A   1      -9.131  -3.653 126.769  0.00  0.00    +0.015 A 
ATOM     11  C   LIG A   1      -8.847  -3.789 128.128  0.00  0.00    +0.050 A 
ATOM     12  C   LIG A   1      -7.819  -3.034 128.639  0.00  0.00    +0.167 A 
ATOM     13  C   LIG A   1      -7.083  -2.179 127.849  0.00  0.00    +0.173 A 
ATOM     14  O   LIG A   1      -6.132  -1.518 128.575  0.00  0.00    -0.452 OA
ATOM     15  C   LIG A   1      -6.347  -2.069 129.892  0.00  0.00    +0.466 C 
ATOM     16  O   LIG A   1      -7.421  -3.025 129.939  0.00  0.00    -0.453 OA
ENDROOT
BRANCH   1  17
ATOM     17  C   LIG A   1      -6.894   0.430 125.812  0.00  0.00    -0.008 A 
ATOM     18  C   LIG A   1      -7.979   0.859 126.621  0.00  0.00    +0.010 A 
ATOM     19  C   LIG A   1      -8.297   2.216 126.767  0.00  0.00    +0.050 A 
ATOM     20  C   LIG A   1      -7.518   3.135 126.101  0.00  0.00    +0.166 A 
ATOM     21  O   LIG A   1      -7.679   4.484 126.129  0.00  0.00    -0.453 OA
ATOM     22  C   LIG A   1      -6.596   4.902 125.271  0.00  0.00    +0.466 C 
ATOM     23  O   LIG A   1      -5.817   3.803 124.753  0.00  0.00    -0.453 OA
ATOM     24  C   LIG A   1      -6.461   2.747 125.319  0.00  0.00    +0.167 A 
ATOM     25  C   LIG A   1      -6.125   1.418 125.158  0.00  0.00    +0.056 A 
ENDBRANCH   1  17
BRANCH   1  26
ATOM     26  O   LIG A   1      -5.137  -1.133 126.052  0.00  0.00    -0.379 OA
ATOM     27  H   LIG A   1      -4.597  -0.892 125.275  0.00  0.00    +0.211 HD
ENDBRANCH   1  26
TORSDOF 2
ENDMDL
MODEL 2
REMARK VINA RESULT:      -7.7      1.534      2.131
REMARK  Name = NuBBE_587
REMARK  4 active torsions:
REMARK  status: ('A' for Active; 'I' for Inactive)
REMARK    1  A    between atoms: O_1  and  C_2
REMARK    2  A    between atoms: C_2  and  C_20
REMARK    3  A    between atoms: C_3  and  C_5
REMARK    4  A    between atoms: C_6  and  C_8
REMARK                            x       y       z     vdW  Elec       q    Type
REMARK                         _______ _______ _______ _____ _____    ______ ____
ROOT
ATOM      1  C   LIG A   1      -6.413  -0.656 126.501  0.00  0.00    +0.123 C 
ATOM      2  C   LIG A   1      -6.463  -0.707 124.940  0.00  0.00    +0.037 C 
ATOM      3  C   LIG A   1      -5.593  -1.851 124.364  0.00  0.00    +0.012 C 
ATOM      4  C   LIG A   1      -7.891  -0.820 124.373  0.00  0.00    +0.063 C 
ATOM      5  C   LIG A   1      -8.686   0.485 124.400  0.00  0.00    +0.016 C 
ATOM      6  C   LIG A   1      -8.702  -1.910 125.049  0.00  0.00    +0.167 C 
ATOM      7  O   LIG A   1      -9.708  -2.374 124.516  0.00  0.00    -0.292 OA
ATOM      8  C   LIG A   1      -7.223  -1.797 127.093  0.00  0.00    +0.044 A 
ATOM      9  C   LIG A   1      -8.303  -2.381 126.402  0.00  0.00    +0.028 A 
ATOM     10  C   LIG A   1      -9.058  -3.429 126.983  0.00  0.00    +0.015 A 
ATOM     11  C   LIG A   1      -8.762  -3.906 128.260  0.00  0.00    +0.050 A 
ATOM     12  C   LIG A   1      -7.718  -3.315 128.930  0.00  0.00    +0.167 A 
ATOM     13  C   LIG A   1      -6.977  -2.298 128.369  0.00  0.00    +0.173 A 
ATOM     14  O   LIG A   1      -6.008  -1.852 129.225  0.00  0.00    -0.452 OA
ATOM     15  C   LIG A   1      -6.217  -2.714 130.364  0.00  0.00    +0.466 C 
ATOM     16  O   LIG A   1      -7.305  -3.638 130.184  0.00  0.00    -0.453 OA
ENDROOT
BRANCH   1  17
ATOM     17  C   LIG A   1      -6.771   0.737 127.052  0.00  0.00    -0.008 A 
ATOM     18  C   LIG A   1      -6.121   1.928 126.631  0.00  0.00    +0.010 A 
ATOM     19  C   LIG A   1      -6.474   3.181 127.148  0.00  0.00    +0.050 A 
ATOM     20  C   LIG A   1      -7.484   3.231 128.082  0.00  0.00    +0.166 A 
ATOM     21  O   LIG A   1      -7.955   4.354 128.686  0.00  0.00    -0.453 OA
ATOM     22  C   LIG A   1      -8.979   3.794 129.535  0.00  0.00    +0.466 C 
ATOM     23  O   LIG A   1      -9.097   2.360 129.422  0.00  0.00    -0.453 OA
ATOM     24  C   LIG A   1      -8.131   2.097 128.501  0.00  0.00    +0.167 A 
ATOM     25  C   LIG A   1      -7.805   0.850 128.009  0.00  0.00    +0.056 A 
ENDBRANCH   1  17
BRANCH   1  26
ATOM     26  O   LIG A   1      -5.035  -0.856 126.866  0.00  0.00    -0.379 OA
ATOM     27  H   LIG A   1      -4.767  -1.711 126.478  0.00  0.00    +0.211 HD
ENDBRANCH   1  26
TORSDOF 2
ENDMDL
MODEL 3
REMARK VINA RESULT:      -7.5      5.981      8.676
REMARK  Name = NuBBE_587
REMARK  4 active torsions:
REMARK  status: ('A' for Active; 'I' for Inactive)
REMARK    1  A    between atoms: O_1  and  C_2
REMARK    2  A    between atoms: C_2  and  C_20
REMARK    3  A    between atoms: C_3  and  C_5
REMARK    4  A    between atoms: C_6  and  C_8
REMARK                            x       y       z     vdW  Elec       q    Type
REMARK                         _______ _______ _______ _____ _____    ______ ____
ROOT
ATOM      1  C   LIG A   1      -4.034   4.445 131.605  0.00  0.00    +0.123 C 
ATOM      2  C   LIG A   1      -2.910   5.408 132.107  0.00  0.00    +0.037 C 
ATOM      3  C   LIG A   1      -1.599   4.652 132.440  0.00  0.00    +0.012 C 
ATOM      4  C   LIG A   1      -2.599   6.555 131.127  0.00  0.00    +0.063 C 
ATOM      5  C   LIG A   1      -3.628   7.685 131.132  0.00  0.00    +0.016 C 
ATOM      6  C   LIG A   1      -2.402   6.069 129.704  0.00  0.00    +0.167 C 
ATOM      7  O   LIG A   1      -1.820   6.763 128.872  0.00  0.00    -0.292 OA
ATOM      8  C   LIG A   1      -3.742   3.984 130.188  0.00  0.00    +0.044 A 
ATOM      9  C   LIG A   1      -2.973   4.757 129.297  0.00  0.00    +0.028 A 
ATOM     10  C   LIG A   1      -2.732   4.318 127.972  0.00  0.00    +0.015 A 
ATOM     11  C   LIG A   1      -3.258   3.112 127.508  0.00  0.00    +0.050 A 
ATOM     12  C   LIG A   1      -4.021   2.376 128.383  0.00  0.00    +0.167 A 
ATOM     13  C   LIG A   1      -4.256   2.796 129.673  0.00  0.00    +0.173 A 
ATOM     14  O   LIG A   1      -5.056   1.918 130.349  0.00  0.00    -0.452 OA
ATOM     15  C   LIG A   1      -5.274   0.902 129.346  0.00  0.00    +0.466 C 
ATOM     16  O   LIG A   1      -4.625   1.193 128.095  0.00  0.00    -0.453 OA
ENDROOT
BRANCH   1  17
ATOM     17  C   LIG A   1      -5.442   5.037 131.810  0.00  0.00    -0.008 A 
ATOM     18  C   LIG A   1      -6.013   5.254 133.092  0.00  0.00    +0.010 A 
ATOM     19  C   LIG A   1      -7.295   5.799 133.243  0.00  0.00    +0.050 A 
ATOM     20  C   LIG A   1      -7.994   6.126 132.104  0.00  0.00    +0.166 A 
ATOM     21  O   LIG A   1      -9.242   6.663 132.063  0.00  0.00    -0.453 OA
ATOM     22  C   LIG A   1      -9.436   6.785 130.638  0.00  0.00    +0.466 C 
ATOM     23  O   LIG A   1      -8.309   6.322 129.864  0.00  0.00    -0.453 OA
ATOM     24  C   LIG A   1      -7.463   5.931 130.855  0.00  0.00    +0.167 A 
ATOM     25  C   LIG A   1      -6.204   5.397 130.676  0.00  0.00    +0.056 A 
ENDBRANCH   1  17
BRANCH   1  26
ATOM     26  O   LIG A   1      -3.988   3.292 132.465  0.00  0.00    -0.379 OA
ATOM     27  H   LIG A   1      -3.116   3.307 132.903  0.00  0.00    +0.211 HD
ENDBRANCH   1  26
TORSDOF 2
ENDMDL
MODEL 4
REMARK VINA RESULT:      -7.4      2.462      6.016
REMARK  Name = NuBBE_587
REMARK  4 active torsions:
REMARK  status: ('A' for Active; 'I' for Inactive)
REMARK    1  A    between atoms: O_1  and  C_2
REMARK    2  A    between atoms: C_2  and  C_20
REMARK    3  A    between atoms: C_3  and  C_5
REMARK    4  A    between atoms: C_6  and  C_8
REMARK                            x       y       z     vdW  Elec       q    Type
REMARK                         _______ _______ _______ _____ _____    ______ ____
ROOT
ATOM      1  C   LIG A   1      -7.302   2.062 125.829  0.00  0.00    +0.123 C 
ATOM      2  C   LIG A   1      -7.954   3.066 124.824  0.00  0.00    +0.037 C 
ATOM      3  C   LIG A   1      -8.459   4.351 125.527  0.00  0.00    +0.012 C 
ATOM      4  C   LIG A   1      -7.028   3.457 123.657  0.00  0.00    +0.063 C 
ATOM      5  C   LIG A   1      -6.897   2.390 122.571  0.00  0.00    +0.016 C 
ATOM      6  C   LIG A   1      -5.643   3.866 124.123  0.00  0.00    +0.167 C 
ATOM      7  O   LIG A   1      -4.900   4.526 123.398  0.00  0.00    -0.292 OA
ATOM      8  C   LIG A   1      -5.936   2.562 126.265  0.00  0.00    +0.044 A 
ATOM      9  C   LIG A   1      -5.159   3.412 125.454  0.00  0.00    +0.028 A 
ATOM     10  C   LIG A   1      -3.878   3.848 125.872  0.00  0.00    +0.015 A 
ATOM     11  C   LIG A   1      -3.344   3.441 127.095  0.00  0.00    +0.050 A 
ATOM     12  C   LIG A   1      -4.106   2.599 127.869  0.00  0.00    +0.167 A 
ATOM     13  C   LIG A   1      -5.354   2.173 127.469  0.00  0.00    +0.173 A 
ATOM     14  O   LIG A   1      -5.912   1.327 128.386  0.00  0.00    -0.452 OA
ATOM     15  C   LIG A   1      -4.887   1.291 129.402  0.00  0.00    +0.466 C 
ATOM     16  O   LIG A   1      -3.736   2.090 129.074  0.00  0.00    -0.453 OA
ENDROOT
BRANCH   1  17
ATOM     17  C   LIG A   1      -7.316   0.616 125.298  0.00  0.00    -0.008 A 
ATOM     18  C   LIG A   1      -6.134  -0.139 125.073  0.00  0.00    +0.010 A 
ATOM     19  C   LIG A   1      -6.181  -1.455 124.595  0.00  0.00    +0.050 A 
ATOM     20  C   LIG A   1      -7.418  -2.007 124.350  0.00  0.00    +0.166 A 
ATOM     21  O   LIG A   1      -7.651  -3.264 123.888  0.00  0.00    -0.453 OA
ATOM     22  C   LIG A   1      -9.094  -3.269 123.838  0.00  0.00    +0.466 C 
ATOM     23  O   LIG A   1      -9.687  -2.025 124.268  0.00  0.00    -0.453 OA
ATOM     24  C   LIG A   1      -8.574  -1.302 124.565  0.00  0.00    +0.167 A 
ATOM     25  C   LIG A   1      -8.558  -0.005 125.036  0.00  0.00    +0.056 A 
ENDBRANCH   1  17
BRANCH   1  26
ATOM     26  O   LIG A   1      -8.157   2.040 126.987  0.00  0.00    -0.379 OA
ATOM     27  H   LIG A   1      -7.577   2.169 127.761  0.00  0.00    +0.211 HD
ENDBRANCH   1  26
TORSDOF 2
ENDMDL
MODEL 5
REMARK VINA RESULT:      -7.3      5.360      8.041
REMARK  Name = NuBBE_587
REMARK  4 active torsions:
REMARK  status: ('A' for Active; 'I' for Inactive)
REMARK    1  A    between atoms: O_1  and  C_2
REMARK    2  A    between atoms: C_2  and  C_20
REMARK    3  A    between atoms: C_3  and  C_5
REMARK    4  A    between atoms: C_6  and  C_8
REMARK                            x       y       z     vdW  Elec       q    Type
REMARK                         _______ _______ _______ _____ _____    ______ ____
ROOT
ATOM      1  C   LIG A   1      -8.684   3.032 130.723  0.00  0.00    +0.123 C 
ATOM      2  C   LIG A   1      -9.306   2.264 131.934  0.00  0.00    +0.037 C 
ATOM      3  C   LIG A   1      -9.142   0.730 131.800  0.00  0.00    +0.012 C 
ATOM      4  C   LIG A   1      -8.752   2.717 133.299  0.00  0.00    +0.063 C 
ATOM      5  C   LIG A   1      -9.314   4.047 133.798  0.00  0.00    +0.016 C 
ATOM      6  C   LIG A   1      -7.237   2.777 133.322  0.00  0.00    +0.167 C 
ATOM      7  O   LIG A   1      -6.619   2.775 134.386  0.00  0.00    -0.292 OA
ATOM      8  C   LIG A   1      -7.168   3.017 130.810  0.00  0.00    +0.044 A 
ATOM      9  C   LIG A   1      -6.493   2.899 132.040  0.00  0.00    +0.028 A 
ATOM     10  C   LIG A   1      -5.078   2.910 132.099  0.00  0.00    +0.015 A 
ATOM     11  C   LIG A   1      -4.312   3.049 130.942  0.00  0.00    +0.050 A 
ATOM     12  C   LIG A   1      -4.983   3.181 129.750  0.00  0.00    +0.167 A 
ATOM     13  C   LIG A   1      -6.359   3.168 129.686  0.00  0.00    +0.173 A 
ATOM     14  O   LIG A   1      -6.803   3.337 128.404  0.00  0.00    -0.452 OA
ATOM     15  C   LIG A   1      -5.556   3.436 127.682  0.00  0.00    +0.466 C 
ATOM     16  O   LIG A   1      -4.400   3.346 128.533  0.00  0.00    -0.453 OA
ENDROOT
BRANCH   1  17
ATOM     17  C   LIG A   1      -9.303   4.431 130.540  0.00  0.00    -0.008 A 
ATOM     18  C   LIG A   1      -8.561   5.632 130.693  0.00  0.00    +0.010 A 
ATOM     19  C   LIG A   1      -9.153   6.890 130.514  0.00  0.00    +0.050 A 
ATOM     20  C   LIG A   1     -10.486   6.932 130.178  0.00  0.00    +0.166 A 
ATOM     21  O   LIG A   1     -11.219   8.057 129.965  0.00  0.00    -0.453 OA
ATOM     22  C   LIG A   1     -12.506   7.485 129.652  0.00  0.00    +0.466 C 
ATOM     23  O   LIG A   1     -12.516   6.042 129.683  0.00  0.00    -0.453 OA
ATOM     24  C   LIG A   1     -11.223   5.786 130.019  0.00  0.00    +0.167 A 
ATOM     25  C   LIG A   1     -10.667   4.535 130.188  0.00  0.00    +0.056 A 
ENDBRANCH   1  17
BRANCH   1  26
ATOM     26  O   LIG A   1      -9.068   2.300 129.545  0.00  0.00    -0.379 OA
ATOM     27  H   LIG A   1      -8.730   2.807 128.782  0.00  0.00    +0.211 HD
ENDBRANCH   1  26
TORSDOF 2
ENDMDL
MODEL 6
REMARK VINA RESULT:      -7.3      2.098      5.791
REMARK  Name = NuBBE_587
REMARK  4 active torsions:
REMARK  status: ('A' for Active; 'I' for Inactive)
REMARK    1  A    between atoms: O_1  and  C_2
REMARK    2  A    between atoms: C_2  and  C_20
REMARK    3  A    between atoms: C_3  and  C_5
REMARK    4  A    between atoms: C_6  and  C_8
REMARK                            x       y       z     vdW  Elec       q    Type
REMARK                         _______ _______ _______ _____ _____    ______ ____
ROOT
ATOM      1  C   LIG A   1      -5.887  -0.676 128.385  0.00  0.00    +0.123 C 
ATOM      2  C   LIG A   1      -5.134  -1.609 129.386  0.00  0.00    +0.037 C 
ATOM      3  C   LIG A   1      -4.144  -0.826 130.284  0.00  0.00    +0.012 C 
ATOM      4  C   LIG A   1      -6.075  -2.444 130.276  0.00  0.00    +0.063 C 
ATOM      5  C   LIG A   1      -6.711  -3.641 129.572  0.00  0.00    +0.016 C 
ATOM      6  C   LIG A   1      -7.165  -1.607 130.917  0.00  0.00    +0.167 C 
ATOM      7  O   LIG A   1      -7.777  -2.011 131.904  0.00  0.00    -0.292 OA
ATOM      8  C   LIG A   1      -6.936   0.145 129.114  0.00  0.00    +0.044 A 
ATOM      9  C   LIG A   1      -7.535  -0.302 130.307  0.00  0.00    +0.028 A 
ATOM     10  C   LIG A   1      -8.528   0.471 130.958  0.00  0.00    +0.015 A 
ATOM     11  C   LIG A   1      -8.948   1.692 130.431  0.00  0.00    +0.050 A 
ATOM     12  C   LIG A   1      -8.367   2.109 129.257  0.00  0.00    +0.167 A 
ATOM     13  C   LIG A   1      -7.399   1.363 128.621  0.00  0.00    +0.173 A 
ATOM     14  O   LIG A   1      -6.985   1.962 127.463  0.00  0.00    -0.452 OA
ATOM     15  C   LIG A   1      -7.786   3.163 127.463  0.00  0.00    +0.466 C 
ATOM     16  O   LIG A   1      -8.669   3.257 128.595  0.00  0.00    -0.453 OA
ENDROOT
BRANCH   1  17
ATOM     17  C   LIG A   1      -6.412  -1.442 127.156  0.00  0.00    -0.008 A 
ATOM     18  C   LIG A   1      -5.559  -2.073 126.212  0.00  0.00    +0.010 A 
ATOM     19  C   LIG A   1      -6.070  -2.767 125.108  0.00  0.00    +0.050 A 
ATOM     20  C   LIG A   1      -7.437  -2.827 124.960  0.00  0.00    +0.166 A 
ATOM     21  O   LIG A   1      -8.103  -3.454 123.955  0.00  0.00    -0.453 OA
ATOM     22  C   LIG A   1      -9.471  -3.184 124.329  0.00  0.00    +0.466 C 
ATOM     23  O   LIG A   1      -9.593  -2.407 125.539  0.00  0.00    -0.453 OA
ATOM     24  C   LIG A   1      -8.282  -2.230 125.860  0.00  0.00    +0.167 A 
ATOM     25  C   LIG A   1      -7.808  -1.541 126.957  0.00  0.00    +0.056 A 
ENDBRANCH   1  17
BRANCH   1  26
ATOM     26  O   LIG A   1      -4.899   0.231 127.861  0.00  0.00    -0.379 OA
ATOM     27  H   LIG A   1      -4.421   0.595 128.631  0.00  0.00    +0.211 HD
ENDBRANCH   1  26
TORSDOF 2
ENDMDL
MODEL 7
REMARK VINA RESULT:      -7.3      1.919      2.008
REMARK  Name = NuBBE_587
REMARK  4 active torsions:
REMARK  status: ('A' for Active; 'I' for Inactive)
REMARK    1  A    between atoms: O_1  and  C_2
REMARK    2  A    between atoms: C_2  and  C_20
REMARK    3  A    between atoms: C_3  and  C_5
REMARK    4  A    between atoms: C_6  and  C_8
REMARK                            x       y       z     vdW  Elec       q    Type
REMARK                         _______ _______ _______ _____ _____    ______ ____
ROOT
ATOM      1  C   LIG A   1      -6.424  -1.096 125.161  0.00  0.00    +0.123 C 
ATOM      2  C   LIG A   1      -6.167  -2.218 124.105  0.00  0.00    +0.037 C 
ATOM      3  C   LIG A   1      -4.973  -3.124 124.494  0.00  0.00    +0.012 C 
ATOM      4  C   LIG A   1      -7.402  -3.097 123.827  0.00  0.00    +0.063 C 
ATOM      5  C   LIG A   1      -8.455  -2.440 122.936  0.00  0.00    +0.016 C 
ATOM      6  C   LIG A   1      -8.064  -3.590 125.099  0.00  0.00    +0.167 C 
ATOM      7  O   LIG A   1      -8.824  -4.557 125.084  0.00  0.00    -0.292 OA
ATOM      8  C   LIG A   1      -7.059  -1.681 126.411  0.00  0.00    +0.044 A 
ATOM      9  C   LIG A   1      -7.833  -2.857 126.373  0.00  0.00    +0.028 A 
ATOM     10  C   LIG A   1      -8.434  -3.373 127.547  0.00  0.00    +0.015 A 
ATOM     11  C   LIG A   1      -8.286  -2.725 128.774  0.00  0.00    +0.050 A 
ATOM     12  C   LIG A   1      -7.543  -1.569 128.794  0.00  0.00    +0.167 A 
ATOM     13  C   LIG A   1      -6.953  -1.064 127.655  0.00  0.00    +0.173 A 
ATOM     14  O   LIG A   1      -6.286   0.101 127.911  0.00  0.00    -0.452 OA
ATOM     15  C   LIG A   1      -6.510   0.252 129.329  0.00  0.00    +0.466 C 
ATOM     16  O   LIG A   1      -7.313  -0.801 129.891  0.00  0.00    -0.453 OA
ENDROOT
BRANCH   1  17
ATOM     17  C   LIG A   1      -7.178   0.107 124.562  0.00  0.00    -0.008 A 
ATOM     18  C   LIG A   1      -8.425   0.567 125.062  0.00  0.00    +0.010 A 
ATOM     19  C   LIG A   1      -9.083   1.668 124.497  0.00  0.00    +0.050 A 
ATOM     20  C   LIG A   1      -8.480   2.304 123.436  0.00  0.00    +0.166 A 
ATOM     21  O   LIG A   1      -8.971   3.382 122.770  0.00  0.00    -0.453 OA
ATOM     22  C   LIG A   1      -7.929   3.593 121.793  0.00  0.00    +0.466 C 
ATOM     23  O   LIG A   1      -6.847   2.644 121.895  0.00  0.00    -0.453 OA
ATOM     24  C   LIG A   1      -7.274   1.882 122.939  0.00  0.00    +0.167 A 
ATOM     25  C   LIG A   1      -6.604   0.802 123.475  0.00  0.00    +0.056 A 
ENDBRANCH   1  17
BRANCH   1  26
ATOM     26  O   LIG A   1      -5.130  -0.579 125.522  0.00  0.00    -0.379 OA
ATOM     27  H   LIG A   1      -4.540  -0.760 124.766  0.00  0.00    +0.211 HD
ENDBRANCH   1  26
TORSDOF 2
ENDMDL
MODEL 8
REMARK VINA RESULT:      -7.3      7.404      9.919
REMARK  Name = NuBBE_587
REMARK  4 active torsions:
REMARK  status: ('A' for Active; 'I' for Inactive)
REMARK    1  A    between atoms: O_1  and  C_2
REMARK    2  A    between atoms: C_2  and  C_20
REMARK    3  A    between atoms: C_3  and  C_5
REMARK    4  A    between atoms: C_6  and  C_8
REMARK                            x       y       z     vdW  Elec       q    Type
REMARK                         _______ _______ _______ _____ _____    ______ ____
ROOT
ATOM      1  C   LIG A   1      -4.376   6.270 130.913  0.00  0.00    +0.123 C 
ATOM      2  C   LIG A   1      -5.626   6.537 131.811  0.00  0.00    +0.037 C 
ATOM      3  C   LIG A   1      -6.932   6.631 130.983  0.00  0.00    +0.012 C 
ATOM      4  C   LIG A   1      -5.811   5.498 132.934  0.00  0.00    +0.063 C 
ATOM      5  C   LIG A   1      -4.866   5.677 134.121  0.00  0.00    +0.016 C 
ATOM      6  C   LIG A   1      -5.710   4.071 132.429  0.00  0.00    +0.167 C 
ATOM      7  O   LIG A   1      -6.164   3.134 133.083  0.00  0.00    -0.292 OA
ATOM      8  C   LIG A   1      -4.370   4.831 130.428  0.00  0.00    +0.044 A 
ATOM      9  C   LIG A   1      -5.001   3.799 131.150  0.00  0.00    +0.028 A 
ATOM     10  C   LIG A   1      -4.964   2.460 130.691  0.00  0.00    +0.015 A 
ATOM     11  C   LIG A   1      -4.294   2.122 129.515  0.00  0.00    +0.050 A 
ATOM     12  C   LIG A   1      -3.669   3.136 128.829  0.00  0.00    +0.167 A 
ATOM     13  C   LIG A   1      -3.703   4.441 129.269  0.00  0.00    +0.173 A 
ATOM     14  O   LIG A   1      -2.996   5.269 128.442  0.00  0.00    -0.452 OA
ATOM     15  C   LIG A   1      -2.538   4.340 127.436  0.00  0.00    +0.466 C 
ATOM     16  O   LIG A   1      -2.956   2.986 127.681  0.00  0.00    -0.453 OA
ENDROOT
BRANCH   1  17
ATOM     17  C   LIG A   1      -3.066   6.725 131.586  0.00  0.00    -0.008 A 
ATOM     18  C   LIG A   1      -1.961   5.859 131.795  0.00  0.00    +0.010 A 
ATOM     19  C   LIG A   1      -0.782   6.306 132.406  0.00  0.00    +0.050 A 
ATOM     20  C   LIG A   1      -0.719   7.623 132.799  0.00  0.00    +0.166 A 
ATOM     21  O   LIG A   1       0.340   8.225 133.401  0.00  0.00    -0.453 OA
ATOM     22  C   LIG A   1      -0.167   9.566 133.562  0.00  0.00    +0.466 C 
ATOM     23  O   LIG A   1      -1.508   9.737 133.056  0.00  0.00    -0.453 OA
ATOM     24  C   LIG A   1      -1.771   8.481 132.603  0.00  0.00    +0.167 A 
ATOM     25  C   LIG A   1      -2.943   8.069 132.004  0.00  0.00    +0.056 A 
ENDBRANCH   1  17
BRANCH   1  26
ATOM     26  O   LIG A   1      -4.518   7.125 129.763  0.00  0.00    -0.379 OA
ATOM     27  H   LIG A   1      -4.113   6.649 129.014  0.00  0.00    +0.211 HD
ENDBRANCH   1  26
TORSDOF 2
ENDMDL
MODEL 9
REMARK VINA RESULT:      -7.0      2.165      5.498
REMARK  Name = NuBBE_587
REMARK  4 active torsions:
REMARK  status: ('A' for Active; 'I' for Inactive)
REMARK    1  A    between atoms: O_1  and  C_2
REMARK    2  A    between atoms: C_2  and  C_20
REMARK    3  A    between atoms: C_3  and  C_5
REMARK    4  A    between atoms: C_6  and  C_8
REMARK                            x       y       z     vdW  Elec       q    Type
REMARK                         _______ _______ _______ _____ _____    ______ ____
ROOT
ATOM      1  C   LIG A   1      -6.052  -1.360 128.074  0.00  0.00    +0.123 C 
ATOM      2  C   LIG A   1      -5.943  -2.704 128.863  0.00  0.00    +0.037 C 
ATOM      3  C   LIG A   1      -4.580  -2.851 129.584  0.00  0.00    +0.012 C 
ATOM      4  C   LIG A   1      -7.081  -2.915 129.880  0.00  0.00    +0.063 C 
ATOM      5  C   LIG A   1      -8.412  -3.336 129.259  0.00  0.00    +0.016 C 
ATOM      6  C   LIG A   1      -7.305  -1.701 130.762  0.00  0.00    +0.167 C 
ATOM      7  O   LIG A   1      -7.908  -1.797 131.830  0.00  0.00    -0.292 OA
ATOM      8  C   LIG A   1      -6.244  -0.198 129.033  0.00  0.00    +0.044 A 
ATOM      9  C   LIG A   1      -6.839  -0.367 130.299  0.00  0.00    +0.028 A 
ATOM     10  C   LIG A   1      -7.029   0.735 131.169  0.00  0.00    +0.015 A 
ATOM     11  C   LIG A   1      -6.642   2.021 130.793  0.00  0.00    +0.050 A 
ATOM     12  C   LIG A   1      -6.079   2.175 129.549  0.00  0.00    +0.167 A 
ATOM     13  C   LIG A   1      -5.889   1.107 128.699  0.00  0.00    +0.173 A 
ATOM     14  O   LIG A   1      -5.336   1.502 127.513  0.00  0.00    -0.452 OA
ATOM     15  C   LIG A   1      -5.189   2.922 127.727  0.00  0.00    +0.466 C 
ATOM     16  O   LIG A   1      -5.665   3.354 129.013  0.00  0.00    -0.453 OA
ENDROOT
BRANCH   1  17
ATOM     17  C   LIG A   1      -7.090  -1.432 126.938  0.00  0.00    -0.008 A 
ATOM     18  C   LIG A   1      -8.148  -0.496 126.794  0.00  0.00    +0.010 A 
ATOM     19  C   LIG A   1      -9.073  -0.587 125.746  0.00  0.00    +0.050 A 
ATOM     20  C   LIG A   1      -8.926  -1.617 124.845  0.00  0.00    +0.166 A 
ATOM     21  O   LIG A   1      -9.726  -1.856 123.772  0.00  0.00    -0.453 OA
ATOM     22  C   LIG A   1      -9.092  -3.030 123.220  0.00  0.00    +0.466 C 
ATOM     23  O   LIG A   1      -7.936  -3.463 123.969  0.00  0.00    -0.453 OA
ATOM     24  C   LIG A   1      -7.910  -2.530 124.959  0.00  0.00    +0.167 A 
ATOM     25  C   LIG A   1      -6.985  -2.465 125.980  0.00  0.00    +0.056 A 
ENDBRANCH   1  17
BRANCH   1  26
ATOM     26  O   LIG A   1      -4.787  -1.181 127.410  0.00  0.00    -0.379 OA
ATOM     27  H   LIG A   1      -4.691  -1.930 126.792  0.00  0.00    +0.211 HD
ENDBRANCH   1  26
TORSDOF 2
ENDMDL
