MODEL 1
REMARK VINA RESULT:      -8.1      0.000      0.000
REMARK  Name = NuBBE_65
REMARK  11 active torsions:
REMARK  status: ('A' for Active; 'I' for Inactive)
REMARK    1  A    between atoms: O_1  and  C_2
REMARK    2  A    between atoms: C_3  and  C_22
REMARK    3  A    between atoms: C_6  and  O_8
REMARK    4  A    between atoms: C_12  and  C_14
REMARK    5  A    between atoms: C_16  and  O_17
REMARK    6  A    between atoms: C_18  and  O_21
REMARK    7  A    between atoms: C_25  and  C_27
REMARK    8  A    between atoms: C_27  and  O_28
REMARK    9  A    between atoms: C_29  and  O_37
REMARK   10  A    between atoms: C_31  and  O_36
REMARK   11  A    between atoms: C_33  and  O_35
REMARK                            x       y       z     vdW  Elec       q    Type
REMARK                         _______ _______ _______ _____ _____    ______ ____
ROOT
ATOM      1  C   LIG A   1      -7.600   1.191 128.594  0.00  0.00    +0.130 A 
ATOM      2  C   LIG A   1      -8.248   2.423 128.390  0.00  0.00    +0.068 A 
ATOM      3  C   LIG A   1      -8.865   3.026 129.505  0.00  0.00    +0.152 A 
ATOM      4  C   LIG A   1      -8.746   2.450 130.776  0.00  0.00    +0.106 A 
ATOM      5  C   LIG A   1      -8.042   1.256 130.951  0.00  0.00    +0.135 A 
ATOM      6  C   LIG A   1      -7.474   0.620 129.860  0.00  0.00    +0.092 A 
ATOM      7  C   LIG A   1      -9.372   3.128 131.916  0.00  0.00    +0.197 A 
ATOM      8  O   LIG A   1      -9.295   2.676 133.046  0.00  0.00    -0.287 OA
ATOM      9  C   LIG A   1     -10.081   4.382 131.643  0.00  0.00    +0.098 A 
ATOM     10  C   LIG A   1     -10.147   4.836 130.378  0.00  0.00    +0.139 A 
ATOM     11  O   LIG A   1      -9.601   4.171 129.298  0.00  0.00    -0.454 OA
ENDROOT
BRANCH  10  12
ATOM     12  C   LIG A   1     -10.830   6.108 130.045  0.00  0.00    +0.021 A 
ATOM     13  C   LIG A   1     -10.372   6.921 128.990  0.00  0.00    +0.060 A 
ATOM     14  C   LIG A   1     -11.022   8.121 128.706  0.00  0.00    +0.159 A 
ATOM     15  C   LIG A   1     -12.116   8.530 129.463  0.00  0.00    +0.158 A 
ATOM     16  C   LIG A   1     -12.580   7.753 130.508  0.00  0.00    +0.050 A 
ATOM     17  C   LIG A   1     -11.937   6.548 130.798  0.00  0.00    +0.015 A 
BRANCH  14  18
ATOM     18  O   LIG A   1     -10.623   8.942 127.686  0.00  0.00    -0.503 OA
ATOM     19  H   LIG A   1     -10.163   8.406 127.018  0.00  0.00    +0.292 HD
ENDBRANCH  14  18
BRANCH  15  20
ATOM     20  O   LIG A   1     -12.748   9.707 129.184  0.00  0.00    -0.503 OA
ATOM     21  H   LIG A   1     -13.460   9.773 129.852  0.00  0.00    +0.292 HD
ENDBRANCH  15  20
ENDBRANCH  10  12
BRANCH   2  22
ATOM     22  C   LIG A   1      -8.265   3.046 126.999  0.00  0.00    +0.187 C 
ATOM     23  O   LIG A   1      -8.787   2.114 126.037  0.00  0.00    -0.361 OA
ATOM     24  C   LIG A   1      -8.900   2.660 124.716  0.00  0.00    +0.175 C 
ATOM     25  C   LIG A   1      -7.522   3.086 124.198  0.00  0.00    +0.176 C 
ATOM     26  C   LIG A   1      -6.878   4.075 125.169  0.00  0.00    +0.177 C 
ATOM     27  C   LIG A   1      -6.862   3.542 126.604  0.00  0.00    +0.179 C 
BRANCH  27  28
ATOM     28  O   LIG A   1      -6.436   4.611 127.470  0.00  0.00    -0.386 OA
ATOM     29  H   LIG A   1      -5.556   4.876 127.122  0.00  0.00    +0.210 HD
ENDBRANCH  27  28
BRANCH  26  30
ATOM     30  O   LIG A   1      -5.530   4.355 124.762  0.00  0.00    -0.387 OA
ATOM     31  H   LIG A   1      -5.016   3.544 124.955  0.00  0.00    +0.210 HD
ENDBRANCH  26  30
BRANCH  25  32
ATOM     32  O   LIG A   1      -7.588   3.697 122.906  0.00  0.00    -0.387 OA
ATOM     33  H   LIG A   1      -7.606   2.998 122.226  0.00  0.00    +0.210 HD
ENDBRANCH  25  32
BRANCH  24  34
ATOM     34  C   LIG A   1      -9.514   1.590 123.806  0.00  0.00    +0.190 C 
BRANCH  34  35
ATOM     35  O   LIG A   1     -10.905   1.457 124.089  0.00  0.00    -0.392 OA
ATOM     36  H   LIG A   1     -11.309   1.078 123.285  0.00  0.00    +0.209 HD
ENDBRANCH  34  35
ENDBRANCH  24  34
ENDBRANCH   2  22
BRANCH   1  37
ATOM     37  O   LIG A   1      -7.086   0.476 127.546  0.00  0.00    -0.506 OA
ATOM     38  H   LIG A   1      -6.153   0.267 127.768  0.00  0.00    +0.292 HD
ENDBRANCH   1  37
BRANCH   5  39
ATOM     39  O   LIG A   1      -7.895   0.648 132.172  0.00  0.00    -0.506 OA
ATOM     40  H   LIG A   1      -7.247   1.165 132.701  0.00  0.00    +0.292 HD
ENDBRANCH   5  39
TORSDOF 11
ENDMDL
MODEL 2
REMARK VINA RESULT:      -7.8      2.571      3.378
REMARK  Name = NuBBE_65
REMARK  11 active torsions:
REMARK  status: ('A' for Active; 'I' for Inactive)
REMARK    1  A    between atoms: O_1  and  C_2
REMARK    2  A    between atoms: C_3  and  C_22
REMARK    3  A    between atoms: C_6  and  O_8
REMARK    4  A    between atoms: C_12  and  C_14
REMARK    5  A    between atoms: C_16  and  O_17
REMARK    6  A    between atoms: C_18  and  O_21
REMARK    7  A    between atoms: C_25  and  C_27
REMARK    8  A    between atoms: C_27  and  O_28
REMARK    9  A    between atoms: C_29  and  O_37
REMARK   10  A    between atoms: C_31  and  O_36
REMARK   11  A    between atoms: C_33  and  O_35
REMARK                            x       y       z     vdW  Elec       q    Type
REMARK                         _______ _______ _______ _____ _____    ______ ____
ROOT
ATOM      1  C   LIG A   1      -4.909   3.421 127.472  0.00  0.00    +0.130 A 
ATOM      2  C   LIG A   1      -6.212   3.838 127.807  0.00  0.00    +0.068 A 
ATOM      3  C   LIG A   1      -6.358   4.674 128.932  0.00  0.00    +0.152 A 
ATOM      4  C   LIG A   1      -5.230   5.136 129.621  0.00  0.00    +0.106 A 
ATOM      5  C   LIG A   1      -3.948   4.750 129.224  0.00  0.00    +0.135 A 
ATOM      6  C   LIG A   1      -3.785   3.886 128.153  0.00  0.00    +0.092 A 
ATOM      7  C   LIG A   1      -5.424   6.033 130.765  0.00  0.00    +0.197 A 
ATOM      8  O   LIG A   1      -4.478   6.471 131.398  0.00  0.00    -0.287 OA
ATOM      9  C   LIG A   1      -6.803   6.396 131.105  0.00  0.00    +0.098 A 
ATOM     10  C   LIG A   1      -7.814   5.880 130.384  0.00  0.00    +0.139 A 
ATOM     11  O   LIG A   1      -7.634   4.995 129.339  0.00  0.00    -0.454 OA
ENDROOT
BRANCH  10  12
ATOM     12  C   LIG A   1      -9.227   6.227 130.667  0.00  0.00    +0.021 A 
ATOM     13  C   LIG A   1     -10.030   6.847 129.689  0.00  0.00    +0.060 A 
ATOM     14  C   LIG A   1     -11.351   7.178 129.986  0.00  0.00    +0.159 A 
ATOM     15  C   LIG A   1     -11.883   6.913 131.244  0.00  0.00    +0.158 A 
ATOM     16  C   LIG A   1     -11.112   6.312 132.223  0.00  0.00    +0.050 A 
ATOM     17  C   LIG A   1      -9.789   5.974 131.934  0.00  0.00    +0.015 A 
BRANCH  14  18
ATOM     18  O   LIG A   1     -12.176   7.772 129.069  0.00  0.00    -0.503 OA
ATOM     19  H   LIG A   1     -11.709   8.528 128.675  0.00  0.00    +0.292 HD
ENDBRANCH  14  18
BRANCH  15  20
ATOM     20  O   LIG A   1     -13.176   7.241 131.531  0.00  0.00    -0.503 OA
ATOM     21  H   LIG A   1     -13.172   8.215 131.620  0.00  0.00    +0.292 HD
ENDBRANCH  15  20
ENDBRANCH  10  12
BRANCH   2  22
ATOM     22  C   LIG A   1      -7.392   3.376 126.961  0.00  0.00    +0.187 C 
ATOM     23  O   LIG A   1      -7.451   1.940 126.921  0.00  0.00    -0.361 OA
ATOM     24  C   LIG A   1      -8.583   1.434 126.201  0.00  0.00    +0.175 C 
ATOM     25  C   LIG A   1      -8.538   1.902 124.743  0.00  0.00    +0.176 C 
ATOM     26  C   LIG A   1      -8.461   3.428 124.683  0.00  0.00    +0.177 C 
ATOM     27  C   LIG A   1      -7.322   3.979 125.546  0.00  0.00    +0.179 C 
BRANCH  27  28
ATOM     28  O   LIG A   1      -7.457   5.412 125.595  0.00  0.00    -0.386 OA
ATOM     29  H   LIG A   1      -7.038   5.671 126.444  0.00  0.00    +0.210 HD
ENDBRANCH  27  28
BRANCH  26  30
ATOM     30  O   LIG A   1      -8.265   3.856 123.327  0.00  0.00    -0.387 OA
ATOM     31  H   LIG A   1      -7.976   4.790 123.377  0.00  0.00    +0.210 HD
ENDBRANCH  26  30
BRANCH  25  32
ATOM     32  O   LIG A   1      -9.681   1.476 123.995  0.00  0.00    -0.387 OA
ATOM     33  H   LIG A   1     -10.141   2.262 123.646  0.00  0.00    +0.210 HD
ENDBRANCH  25  32
BRANCH  24  34
ATOM     34  C   LIG A   1      -8.556  -0.097 126.281  0.00  0.00    +0.190 C 
BRANCH  34  35
ATOM     35  O   LIG A   1      -9.734  -0.632 125.683  0.00  0.00    -0.392 OA
ATOM     36  H   LIG A   1      -9.914  -0.079 124.899  0.00  0.00    +0.209 HD
ENDBRANCH  34  35
ENDBRANCH  24  34
ENDBRANCH   2  22
BRANCH   1  37
ATOM     37  O   LIG A   1      -4.688   2.509 126.475  0.00  0.00    -0.506 OA
ATOM     38  H   LIG A   1      -3.872   2.017 126.709  0.00  0.00    +0.292 HD
ENDBRANCH   1  37
BRANCH   5  39
ATOM     39  O   LIG A   1      -2.809   5.170 129.862  0.00  0.00    -0.506 OA
ATOM     40  H   LIG A   1      -2.078   4.554 129.633  0.00  0.00    +0.292 HD
ENDBRANCH   5  39
TORSDOF 11
ENDMDL
MODEL 3
REMARK VINA RESULT:      -7.8      3.112      8.251
REMARK  Name = NuBBE_65
REMARK  11 active torsions:
REMARK  status: ('A' for Active; 'I' for Inactive)
REMARK    1  A    between atoms: O_1  and  C_2
REMARK    2  A    between atoms: C_3  and  C_22
REMARK    3  A    between atoms: C_6  and  O_8
REMARK    4  A    between atoms: C_12  and  C_14
REMARK    5  A    between atoms: C_16  and  O_17
REMARK    6  A    between atoms: C_18  and  O_21
REMARK    7  A    between atoms: C_25  and  C_27
REMARK    8  A    between atoms: C_27  and  O_28
REMARK    9  A    between atoms: C_29  and  O_37
REMARK   10  A    between atoms: C_31  and  O_36
REMARK   11  A    between atoms: C_33  and  O_35
REMARK                            x       y       z     vdW  Elec       q    Type
REMARK                         _______ _______ _______ _____ _____    ______ ____
ROOT
ATOM      1  C   LIG A   1      -8.931   2.333 124.950  0.00  0.00    +0.130 A 
ATOM      2  C   LIG A   1      -8.223   1.622 125.938  0.00  0.00    +0.068 A 
ATOM      3  C   LIG A   1      -8.270   0.215 125.885  0.00  0.00    +0.152 A 
ATOM      4  C   LIG A   1      -8.925  -0.432 124.830  0.00  0.00    +0.106 A 
ATOM      5  C   LIG A   1      -9.567   0.307 123.833  0.00  0.00    +0.135 A 
ATOM      6  C   LIG A   1      -9.578   1.691 123.895  0.00  0.00    +0.092 A 
ATOM      7  C   LIG A   1      -8.920  -1.898 124.792  0.00  0.00    +0.197 A 
ATOM      8  O   LIG A   1      -9.469  -2.514 123.893  0.00  0.00    -0.287 OA
ATOM      9  C   LIG A   1      -8.213  -2.593 125.872  0.00  0.00    +0.098 A 
ATOM     10  C   LIG A   1      -7.631  -1.871 126.846  0.00  0.00    +0.139 A 
ATOM     11  O   LIG A   1      -7.680  -0.492 126.909  0.00  0.00    -0.454 OA
ENDROOT
BRANCH  10  12
ATOM     12  C   LIG A   1      -6.884  -2.517 127.951  0.00  0.00    +0.021 A 
ATOM     13  C   LIG A   1      -5.481  -2.423 128.029  0.00  0.00    +0.060 A 
ATOM     14  C   LIG A   1      -4.800  -3.053 129.069  0.00  0.00    +0.159 A 
ATOM     15  C   LIG A   1      -5.493  -3.786 130.028  0.00  0.00    +0.158 A 
ATOM     16  C   LIG A   1      -6.870  -3.900 129.969  0.00  0.00    +0.050 A 
ATOM     17  C   LIG A   1      -7.560  -3.269 128.932  0.00  0.00    +0.015 A 
BRANCH  14  18
ATOM     18  O   LIG A   1      -3.439  -2.983 129.196  0.00  0.00    -0.503 OA
ATOM     19  H   LIG A   1      -3.075  -3.883 129.133  0.00  0.00    +0.292 HD
ENDBRANCH  14  18
BRANCH  15  20
ATOM     20  O   LIG A   1      -4.822  -4.403 131.043  0.00  0.00    -0.503 OA
ATOM     21  H   LIG A   1      -4.500  -3.673 131.609  0.00  0.00    +0.292 HD
ENDBRANCH  15  20
ENDBRANCH  10  12
BRANCH   2  22
ATOM     22  C   LIG A   1      -7.452   2.384 127.008  0.00  0.00    +0.187 C 
ATOM     23  O   LIG A   1      -8.296   3.363 127.636  0.00  0.00    -0.361 OA
ATOM     24  C   LIG A   1      -7.654   4.069 128.707  0.00  0.00    +0.175 C 
ATOM     25  C   LIG A   1      -6.431   4.829 128.184  0.00  0.00    +0.176 C 
ATOM     26  C   LIG A   1      -5.473   3.865 127.484  0.00  0.00    +0.177 C 
ATOM     27  C   LIG A   1      -6.182   3.026 126.418  0.00  0.00    +0.179 C 
BRANCH  27  28
ATOM     28  O   LIG A   1      -5.262   2.014 125.965  0.00  0.00    -0.386 OA
ATOM     29  H   LIG A   1      -5.103   1.453 126.756  0.00  0.00    +0.210 HD
ENDBRANCH  27  28
BRANCH  26  30
ATOM     30  O   LIG A   1      -4.406   4.598 126.864  0.00  0.00    -0.387 OA
ATOM     31  H   LIG A   1      -3.719   3.937 126.638  0.00  0.00    +0.210 HD
ENDBRANCH  26  30
BRANCH  25  32
ATOM     32  O   LIG A   1      -5.716   5.500 129.227  0.00  0.00    -0.387 OA
ATOM     33  H   LIG A   1      -4.762   5.329 129.117  0.00  0.00    +0.210 HD
ENDBRANCH  25  32
BRANCH  24  34
ATOM     34  C   LIG A   1      -8.673   5.038 129.320  0.00  0.00    +0.190 C 
BRANCH  34  35
ATOM     35  O   LIG A   1      -9.341   5.755 128.285  0.00  0.00    -0.392 OA
ATOM     36  H   LIG A   1      -9.971   6.350 128.734  0.00  0.00    +0.209 HD
ENDBRANCH  34  35
ENDBRANCH  24  34
ENDBRANCH   2  22
BRANCH   1  37
ATOM     37  O   LIG A   1      -9.045   3.697 125.000  0.00  0.00    -0.506 OA
ATOM     38  H   LIG A   1      -8.216   4.069 124.628  0.00  0.00    +0.292 HD
ENDBRANCH   1  37
BRANCH   5  39
ATOM     39  O   LIG A   1     -10.224  -0.273 122.778  0.00  0.00    -0.506 OA
ATOM     40  H   LIG A   1      -9.605  -0.322 122.015  0.00  0.00    +0.292 HD
ENDBRANCH   5  39
TORSDOF 11
ENDMDL
MODEL 4
REMARK VINA RESULT:      -7.8      3.110      4.735
REMARK  Name = NuBBE_65
REMARK  11 active torsions:
REMARK  status: ('A' for Active; 'I' for Inactive)
REMARK    1  A    between atoms: O_1  and  C_2
REMARK    2  A    between atoms: C_3  and  C_22
REMARK    3  A    between atoms: C_6  and  O_8
REMARK    4  A    between atoms: C_12  and  C_14
REMARK    5  A    between atoms: C_16  and  O_17
REMARK    6  A    between atoms: C_18  and  O_21
REMARK    7  A    between atoms: C_25  and  C_27
REMARK    8  A    between atoms: C_27  and  O_28
REMARK    9  A    between atoms: C_29  and  O_37
REMARK   10  A    between atoms: C_31  and  O_36
REMARK   11  A    between atoms: C_33  and  O_35
REMARK                            x       y       z     vdW  Elec       q    Type
REMARK                         _______ _______ _______ _____ _____    ______ ____
ROOT
ATOM      1  C   LIG A   1      -3.729   4.044 127.195  0.00  0.00    +0.130 A 
ATOM      2  C   LIG A   1      -5.023   4.175 127.734  0.00  0.00    +0.068 A 
ATOM      3  C   LIG A   1      -5.190   5.063 128.816  0.00  0.00    +0.152 A 
ATOM      4  C   LIG A   1      -4.117   5.845 129.261  0.00  0.00    +0.106 A 
ATOM      5  C   LIG A   1      -2.860   5.733 128.662  0.00  0.00    +0.135 A 
ATOM      6  C   LIG A   1      -2.661   4.827 127.633  0.00  0.00    +0.092 A 
ATOM      7  C   LIG A   1      -4.342   6.783 130.365  0.00  0.00    +0.197 A 
ATOM      8  O   LIG A   1      -3.445   7.494 130.790  0.00  0.00    -0.287 OA
ATOM      9  C   LIG A   1      -5.694   6.845 130.927  0.00  0.00    +0.098 A 
ATOM     10  C   LIG A   1      -6.648   6.035 130.433  0.00  0.00    +0.139 A 
ATOM     11  O   LIG A   1      -6.423   5.115 129.427  0.00  0.00    -0.454 OA
ENDROOT
BRANCH  10  12
ATOM     12  C   LIG A   1      -8.037   6.067 130.945  0.00  0.00    +0.021 A 
ATOM     13  C   LIG A   1      -8.428   5.258 132.031  0.00  0.00    +0.060 A 
ATOM     14  C   LIG A   1      -9.746   5.295 132.484  0.00  0.00    +0.159 A 
ATOM     15  C   LIG A   1     -10.685   6.116 131.866  0.00  0.00    +0.158 A 
ATOM     16  C   LIG A   1     -10.328   6.913 130.794  0.00  0.00    +0.050 A 
ATOM     17  C   LIG A   1      -9.009   6.885 130.336  0.00  0.00    +0.015 A 
BRANCH  14  18
ATOM     18  O   LIG A   1     -10.174   4.537 133.541  0.00  0.00    -0.503 OA
ATOM     19  H   LIG A   1     -10.800   5.063 134.066  0.00  0.00    +0.292 HD
ENDBRANCH  14  18
BRANCH  15  20
ATOM     20  O   LIG A   1     -11.974   6.147 132.311  0.00  0.00    -0.503 OA
ATOM     21  H   LIG A   1     -12.113   5.275 132.734  0.00  0.00    +0.292 HD
ENDBRANCH  15  20
ENDBRANCH  10  12
BRANCH   2  22
ATOM     22  C   LIG A   1      -6.170   3.364 127.145  0.00  0.00    +0.187 C 
ATOM     23  O   LIG A   1      -5.744   2.022 126.860  0.00  0.00    -0.361 OA
ATOM     24  C   LIG A   1      -6.796   1.180 126.369  0.00  0.00    +0.175 C 
ATOM     25  C   LIG A   1      -7.358   1.740 125.059  0.00  0.00    +0.176 C 
ATOM     26  C   LIG A   1      -7.829   3.180 125.262  0.00  0.00    +0.177 C 
ATOM     27  C   LIG A   1      -6.744   4.055 125.894  0.00  0.00    +0.179 C 
BRANCH  27  28
ATOM     28  O   LIG A   1      -7.339   5.321 126.237  0.00  0.00    -0.386 OA
ATOM     29  H   LIG A   1      -7.701   5.187 127.140  0.00  0.00    +0.210 HD
ENDBRANCH  27  28
BRANCH  26  30
ATOM     30  O   LIG A   1      -8.213   3.752 124.002  0.00  0.00    -0.387 OA
ATOM     31  H   LIG A   1      -8.512   4.664 124.199  0.00  0.00    +0.210 HD
ENDBRANCH  26  30
BRANCH  25  32
ATOM     32  O   LIG A   1      -8.456   0.969 124.560  0.00  0.00    -0.387 OA
ATOM     33  H   LIG A   1      -8.346   0.849 123.598  0.00  0.00    +0.210 HD
ENDBRANCH  25  32
BRANCH  24  34
ATOM     34  C   LIG A   1      -6.224  -0.227 126.157  0.00  0.00    +0.190 C 
BRANCH  34  35
ATOM     35  O   LIG A   1      -4.965  -0.341 126.816  0.00  0.00    -0.392 OA
ATOM     36  H   LIG A   1      -5.163  -0.637 127.725  0.00  0.00    +0.209 HD
ENDBRANCH  34  35
ENDBRANCH  24  34
ENDBRANCH   2  22
BRANCH   1  37
ATOM     37  O   LIG A   1      -3.451   3.113 126.231  0.00  0.00    -0.506 OA
ATOM     38  H   LIG A   1      -3.519   3.566 125.363  0.00  0.00    +0.292 HD
ENDBRANCH   1  37
BRANCH   5  39
ATOM     39  O   LIG A   1      -1.775   6.472 129.058  0.00  0.00    -0.506 OA
ATOM     40  H   LIG A   1      -1.843   6.630 130.026  0.00  0.00    +0.292 HD
ENDBRANCH   5  39
TORSDOF 11
ENDMDL
MODEL 5
REMARK VINA RESULT:      -7.5      3.956      8.421
REMARK  Name = NuBBE_65
REMARK  11 active torsions:
REMARK  status: ('A' for Active; 'I' for Inactive)
REMARK    1  A    between atoms: O_1  and  C_2
REMARK    2  A    between atoms: C_3  and  C_22
REMARK    3  A    between atoms: C_6  and  O_8
REMARK    4  A    between atoms: C_12  and  C_14
REMARK    5  A    between atoms: C_16  and  O_17
REMARK    6  A    between atoms: C_18  and  O_21
REMARK    7  A    between atoms: C_25  and  C_27
REMARK    8  A    between atoms: C_27  and  O_28
REMARK    9  A    between atoms: C_29  and  O_37
REMARK   10  A    between atoms: C_31  and  O_36
REMARK   11  A    between atoms: C_33  and  O_35
REMARK                            x       y       z     vdW  Elec       q    Type
REMARK                         _______ _______ _______ _____ _____    ______ ____
ROOT
ATOM      1  C   LIG A   1      -8.916   2.418 124.731  0.00  0.00    +0.130 A 
ATOM      2  C   LIG A   1      -8.194   1.735 125.728  0.00  0.00    +0.068 A 
ATOM      3  C   LIG A   1      -8.250   0.328 125.722  0.00  0.00    +0.152 A 
ATOM      4  C   LIG A   1      -8.928  -0.349 124.701  0.00  0.00    +0.106 A 
ATOM      5  C   LIG A   1      -9.584   0.361 123.692  0.00  0.00    +0.135 A 
ATOM      6  C   LIG A   1      -9.586   1.747 123.710  0.00  0.00    +0.092 A 
ATOM      7  C   LIG A   1      -8.932  -1.816 124.711  0.00  0.00    +0.197 A 
ATOM      8  O   LIG A   1      -9.501  -2.457 123.843  0.00  0.00    -0.287 OA
ATOM      9  C   LIG A   1      -8.209  -2.480 125.799  0.00  0.00    +0.098 A 
ATOM     10  C   LIG A   1      -7.605  -1.730 126.739  0.00  0.00    +0.139 A 
ATOM     11  O   LIG A   1      -7.644  -0.350 126.757  0.00  0.00    -0.454 OA
ENDROOT
BRANCH  10  12
ATOM     12  C   LIG A   1      -6.841  -2.344 127.850  0.00  0.00    +0.021 A 
ATOM     13  C   LIG A   1      -5.450  -2.154 127.965  0.00  0.00    +0.060 A 
ATOM     14  C   LIG A   1      -4.751  -2.756 129.010  0.00  0.00    +0.159 A 
ATOM     15  C   LIG A   1      -5.414  -3.554 129.938  0.00  0.00    +0.158 A 
ATOM     16  C   LIG A   1      -6.777  -3.762 129.842  0.00  0.00    +0.050 A 
ATOM     17  C   LIG A   1      -7.485  -3.161 128.800  0.00  0.00    +0.015 A 
BRANCH  14  18
ATOM     18  O   LIG A   1      -3.402  -2.594 129.172  0.00  0.00    -0.503 OA
ATOM     19  H   LIG A   1      -3.083  -1.958 128.509  0.00  0.00    +0.292 HD
ENDBRANCH  14  18
BRANCH  15  20
ATOM     20  O   LIG A   1      -4.726  -4.144 130.958  0.00  0.00    -0.503 OA
ATOM     21  H   LIG A   1      -4.466  -5.020 130.610  0.00  0.00    +0.292 HD
ENDBRANCH  15  20
ENDBRANCH  10  12
BRANCH   2  22
ATOM     22  C   LIG A   1      -7.398   2.527 126.759  0.00  0.00    +0.187 C 
ATOM     23  O   LIG A   1      -5.988   2.407 126.507  0.00  0.00    -0.361 OA
ATOM     24  C   LIG A   1      -5.180   3.188 127.398  0.00  0.00    +0.175 C 
ATOM     25  C   LIG A   1      -5.397   2.736 128.845  0.00  0.00    +0.176 C 
ATOM     26  C   LIG A   1      -6.881   2.818 129.204  0.00  0.00    +0.177 C 
ATOM     27  C   LIG A   1      -7.758   2.081 128.188  0.00  0.00    +0.179 C 
BRANCH  27  28
ATOM     28  O   LIG A   1      -9.134   2.386 128.487  0.00  0.00    -0.386 OA
ATOM     29  H   LIG A   1      -9.190   3.364 128.426  0.00  0.00    +0.210 HD
ENDBRANCH  27  28
BRANCH  26  30
ATOM     30  O   LIG A   1      -7.102   2.252 130.506  0.00  0.00    -0.387 OA
ATOM     31  H   LIG A   1      -8.073   2.232 130.630  0.00  0.00    +0.210 HD
ENDBRANCH  26  30
BRANCH  25  32
ATOM     32  O   LIG A   1      -4.660   3.528 129.783  0.00  0.00    -0.387 OA
ATOM     33  H   LIG A   1      -5.085   3.458 130.658  0.00  0.00    +0.210 HD
ENDBRANCH  25  32
BRANCH  24  34
ATOM     34  C   LIG A   1      -3.712   3.014 126.990  0.00  0.00    +0.190 C 
BRANCH  34  35
ATOM     35  O   LIG A   1      -3.052   2.154 127.916  0.00  0.00    -0.392 OA
ATOM     36  H   LIG A   1      -3.565   1.323 127.924  0.00  0.00    +0.209 HD
ENDBRANCH  34  35
ENDBRANCH  24  34
ENDBRANCH   2  22
BRANCH   1  37
ATOM     37  O   LIG A   1      -9.021   3.783 124.738  0.00  0.00    -0.506 OA
ATOM     38  H   LIG A   1      -8.387   4.126 124.072  0.00  0.00    +0.292 HD
ENDBRANCH   1  37
BRANCH   5  39
ATOM     39  O   LIG A   1     -10.264  -0.249 122.669  0.00  0.00    -0.506 OA
ATOM     40  H   LIG A   1     -11.009  -0.762 123.053  0.00  0.00    +0.292 HD
ENDBRANCH   5  39
TORSDOF 11
ENDMDL
MODEL 6
REMARK VINA RESULT:      -7.5      2.580      3.927
REMARK  Name = NuBBE_65
REMARK  11 active torsions:
REMARK  status: ('A' for Active; 'I' for Inactive)
REMARK    1  A    between atoms: O_1  and  C_2
REMARK    2  A    between atoms: C_3  and  C_22
REMARK    3  A    between atoms: C_6  and  O_8
REMARK    4  A    between atoms: C_12  and  C_14
REMARK    5  A    between atoms: C_16  and  O_17
REMARK    6  A    between atoms: C_18  and  O_21
REMARK    7  A    between atoms: C_25  and  C_27
REMARK    8  A    between atoms: C_27  and  O_28
REMARK    9  A    between atoms: C_29  and  O_37
REMARK   10  A    between atoms: C_31  and  O_36
REMARK   11  A    between atoms: C_33  and  O_35
REMARK                            x       y       z     vdW  Elec       q    Type
REMARK                         _______ _______ _______ _____ _____    ______ ____
ROOT
ATOM      1  C   LIG A   1      -7.580  -1.373 127.017  0.00  0.00    +0.130 A 
ATOM      2  C   LIG A   1      -7.916  -0.148 127.623  0.00  0.00    +0.068 A 
ATOM      3  C   LIG A   1      -8.016  -0.124 129.029  0.00  0.00    +0.152 A 
ATOM      4  C   LIG A   1      -7.699  -1.262 129.780  0.00  0.00    +0.106 A 
ATOM      5  C   LIG A   1      -7.309  -2.445 129.146  0.00  0.00    +0.135 A 
ATOM      6  C   LIG A   1      -7.257  -2.505 127.763  0.00  0.00    +0.092 A 
ATOM      7  C   LIG A   1      -7.780  -1.185 131.242  0.00  0.00    +0.197 A 
ATOM      8  O   LIG A   1      -7.509  -2.144 131.947  0.00  0.00    -0.287 OA
ATOM      9  C   LIG A   1      -8.186   0.098 131.823  0.00  0.00    +0.098 A 
ATOM     10  C   LIG A   1      -8.485   1.124 131.006  0.00  0.00    +0.139 A 
ATOM     11  O   LIG A   1      -8.457   1.035 129.628  0.00  0.00    -0.454 OA
ENDROOT
BRANCH  10  12
ATOM     12  C   LIG A   1      -8.879   2.450 131.535  0.00  0.00    +0.021 A 
ATOM     13  C   LIG A   1      -8.775   2.741 132.910  0.00  0.00    +0.060 A 
ATOM     14  C   LIG A   1      -9.167   3.992 133.385  0.00  0.00    +0.159 A 
ATOM     15  C   LIG A   1      -9.674   4.953 132.516  0.00  0.00    +0.158 A 
ATOM     16  C   LIG A   1      -9.794   4.688 131.164  0.00  0.00    +0.050 A 
ATOM     17  C   LIG A   1      -9.400   3.440 130.679  0.00  0.00    +0.015 A 
BRANCH  14  18
ATOM     18  O   LIG A   1      -9.076   4.328 134.709  0.00  0.00    -0.503 OA
ATOM     19  H   LIG A   1      -8.228   4.002 135.055  0.00  0.00    +0.292 HD
ENDBRANCH  14  18
BRANCH  15  20
ATOM     20  O   LIG A   1     -10.060   6.174 132.986  0.00  0.00    -0.503 OA
ATOM     21  H   LIG A   1      -9.231   6.690 133.052  0.00  0.00    +0.292 HD
ENDBRANCH  15  20
ENDBRANCH  10  12
BRANCH   2  22
ATOM     22  C   LIG A   1      -8.160   1.081 126.756  0.00  0.00    +0.187 C 
ATOM     23  O   LIG A   1      -8.982   0.744 125.626  0.00  0.00    -0.361 OA
ATOM     24  C   LIG A   1      -9.313   1.872 124.804  0.00  0.00    +0.175 C 
ATOM     25  C   LIG A   1      -8.041   2.507 124.235  0.00  0.00    +0.176 C 
ATOM     26  C   LIG A   1      -7.092   2.890 125.371  0.00  0.00    +0.177 C 
ATOM     27  C   LIG A   1      -6.828   1.716 126.318  0.00  0.00    +0.179 C 
BRANCH  27  28
ATOM     28  O   LIG A   1      -6.104   2.220 127.457  0.00  0.00    -0.386 OA
ATOM     29  H   LIG A   1      -5.160   2.047 127.247  0.00  0.00    +0.210 HD
ENDBRANCH  27  28
BRANCH  26  30
ATOM     30  O   LIG A   1      -5.840   3.343 124.832  0.00  0.00    -0.387 OA
ATOM     31  H   LIG A   1      -5.214   3.366 125.585  0.00  0.00    +0.210 HD
ENDBRANCH  26  30
BRANCH  25  32
ATOM     32  O   LIG A   1      -8.312   3.677 123.458  0.00  0.00    -0.387 OA
ATOM     33  H   LIG A   1      -9.213   3.991 123.663  0.00  0.00    +0.210 HD
ENDBRANCH  25  32
BRANCH  24  34
ATOM     34  C   LIG A   1     -10.230   1.388 123.674  0.00  0.00    +0.190 C 
BRANCH  34  35
ATOM     35  O   LIG A   1     -11.582   1.366 124.125  0.00  0.00    -0.392 OA
ATOM     36  H   LIG A   1     -11.580   1.795 125.002  0.00  0.00    +0.209 HD
ENDBRANCH  34  35
ENDBRANCH  24  34
ENDBRANCH   2  22
BRANCH   1  37
ATOM     37  O   LIG A   1      -7.586  -1.518 125.655  0.00  0.00    -0.506 OA
ATOM     38  H   LIG A   1      -8.514  -1.407 125.357  0.00  0.00    +0.292 HD
ENDBRANCH   1  37
BRANCH   5  39
ATOM     39  O   LIG A   1      -6.988  -3.589 129.831  0.00  0.00    -0.506 OA
ATOM     40  H   LIG A   1      -7.780  -4.172 129.851  0.00  0.00    +0.292 HD
ENDBRANCH   5  39
TORSDOF 11
ENDMDL
MODEL 7
REMARK VINA RESULT:      -7.5      2.158      3.811
REMARK  Name = NuBBE_65
REMARK  11 active torsions:
REMARK  status: ('A' for Active; 'I' for Inactive)
REMARK    1  A    between atoms: O_1  and  C_2
REMARK    2  A    between atoms: C_3  and  C_22
REMARK    3  A    between atoms: C_6  and  O_8
REMARK    4  A    between atoms: C_12  and  C_14
REMARK    5  A    between atoms: C_16  and  O_17
REMARK    6  A    between atoms: C_18  and  O_21
REMARK    7  A    between atoms: C_25  and  C_27
REMARK    8  A    between atoms: C_27  and  O_28
REMARK    9  A    between atoms: C_29  and  O_37
REMARK   10  A    between atoms: C_31  and  O_36
REMARK   11  A    between atoms: C_33  and  O_35
REMARK                            x       y       z     vdW  Elec       q    Type
REMARK                         _______ _______ _______ _____ _____    ______ ____
ROOT
ATOM      1  C   LIG A   1      -7.360  -1.899 127.511  0.00  0.00    +0.130 A 
ATOM      2  C   LIG A   1      -7.662  -0.541 127.731  0.00  0.00    +0.068 A 
ATOM      3  C   LIG A   1      -7.963  -0.148 129.050  0.00  0.00    +0.152 A 
ATOM      4  C   LIG A   1      -7.867  -1.068 130.102  0.00  0.00    +0.106 A 
ATOM      5  C   LIG A   1      -7.504  -2.394 129.854  0.00  0.00    +0.135 A 
ATOM      6  C   LIG A   1      -7.257  -2.814 128.557  0.00  0.00    +0.092 A 
ATOM      7  C   LIG A   1      -8.152  -0.609 131.466  0.00  0.00    +0.197 A 
ATOM      8  O   LIG A   1      -8.078  -1.365 132.420  0.00  0.00    -0.287 OA
ATOM      9  C   LIG A   1      -8.514   0.801 131.636  0.00  0.00    +0.098 A 
ATOM     10  C   LIG A   1      -8.592   1.594 130.552  0.00  0.00    +0.139 A 
ATOM     11  O   LIG A   1      -8.373   1.149 129.262  0.00  0.00    -0.454 OA
ENDROOT
BRANCH  10  12
ATOM     12  C   LIG A   1      -8.931   3.032 130.663  0.00  0.00    +0.021 A 
ATOM     13  C   LIG A   1      -8.998   3.852 129.519  0.00  0.00    +0.060 A 
ATOM     14  C   LIG A   1      -9.304   5.205 129.653  0.00  0.00    +0.159 A 
ATOM     15  C   LIG A   1      -9.532   5.759 130.909  0.00  0.00    +0.158 A 
ATOM     16  C   LIG A   1      -9.464   4.978 132.047  0.00  0.00    +0.050 A 
ATOM     17  C   LIG A   1      -9.162   3.620 131.923  0.00  0.00    +0.015 A 
BRANCH  14  18
ATOM     18  O   LIG A   1      -9.391   6.042 128.573  0.00  0.00    -0.503 OA
ATOM     19  H   LIG A   1      -9.707   5.530 127.809  0.00  0.00    +0.292 HD
ENDBRANCH  14  18
BRANCH  15  20
ATOM     20  O   LIG A   1      -9.828   7.085 131.035  0.00  0.00    -0.503 OA
ATOM     21  H   LIG A   1      -9.329   7.522 130.316  0.00  0.00    +0.292 HD
ENDBRANCH  15  20
ENDBRANCH  10  12
BRANCH   2  22
ATOM     22  C   LIG A   1      -7.660   0.431 126.558  0.00  0.00    +0.187 C 
ATOM     23  O   LIG A   1      -7.092   1.692 126.951  0.00  0.00    -0.361 OA
ATOM     24  C   LIG A   1      -6.992   2.634 125.874  0.00  0.00    +0.175 C 
ATOM     25  C   LIG A   1      -8.381   2.947 125.311  0.00  0.00    +0.176 C 
ATOM     26  C   LIG A   1      -9.074   1.656 124.875  0.00  0.00    +0.177 C 
ATOM     27  C   LIG A   1      -9.080   0.604 125.987  0.00  0.00    +0.179 C 
BRANCH  27  28
ATOM     28  O   LIG A   1      -9.558  -0.633 125.425  0.00  0.00    -0.386 OA
ATOM     29  H   LIG A   1     -10.522  -0.634 125.611  0.00  0.00    +0.210 HD
ENDBRANCH  27  28
BRANCH  26  30
ATOM     30  O   LIG A   1     -10.430   1.933 124.490  0.00  0.00    -0.387 OA
ATOM     31  H   LIG A   1     -10.387   2.702 123.884  0.00  0.00    +0.210 HD
ENDBRANCH  26  30
BRANCH  25  32
ATOM     32  O   LIG A   1      -8.331   3.835 124.190  0.00  0.00    -0.387 OA
ATOM     33  H   LIG A   1      -8.267   4.752 124.516  0.00  0.00    +0.210 HD
ENDBRANCH  25  32
BRANCH  24  34
ATOM     34  C   LIG A   1      -6.325   3.906 126.412  0.00  0.00    +0.190 C 
BRANCH  34  35
ATOM     35  O   LIG A   1      -7.311   4.913 126.626  0.00  0.00    -0.392 OA
ATOM     36  H   LIG A   1      -7.312   5.088 127.587  0.00  0.00    +0.209 HD
ENDBRANCH  34  35
ENDBRANCH  24  34
ENDBRANCH   2  22
BRANCH   1  37
ATOM     37  O   LIG A   1      -7.182  -2.391 126.246  0.00  0.00    -0.506 OA
ATOM     38  H   LIG A   1      -6.524  -1.815 125.801  0.00  0.00    +0.292 HD
ENDBRANCH   1  37
BRANCH   5  39
ATOM     39  O   LIG A   1      -7.396  -3.337 130.845  0.00  0.00    -0.506 OA
ATOM     40  H   LIG A   1      -7.200  -2.877 131.692  0.00  0.00    +0.292 HD
ENDBRANCH   5  39
TORSDOF 11
ENDMDL
MODEL 8
REMARK VINA RESULT:      -7.5      4.318      8.225
REMARK  Name = NuBBE_65
REMARK  11 active torsions:
REMARK  status: ('A' for Active; 'I' for Inactive)
REMARK    1  A    between atoms: O_1  and  C_2
REMARK    2  A    between atoms: C_3  and  C_22
REMARK    3  A    between atoms: C_6  and  O_8
REMARK    4  A    between atoms: C_12  and  C_14
REMARK    5  A    between atoms: C_16  and  O_17
REMARK    6  A    between atoms: C_18  and  O_21
REMARK    7  A    between atoms: C_25  and  C_27
REMARK    8  A    between atoms: C_27  and  O_28
REMARK    9  A    between atoms: C_29  and  O_37
REMARK   10  A    between atoms: C_31  and  O_36
REMARK   11  A    between atoms: C_33  and  O_35
REMARK                            x       y       z     vdW  Elec       q    Type
REMARK                         _______ _______ _______ _____ _____    ______ ____
ROOT
ATOM      1  C   LIG A   1      -7.245   3.864 125.857  0.00  0.00    +0.130 A 
ATOM      2  C   LIG A   1      -6.766   2.819 126.669  0.00  0.00    +0.068 A 
ATOM      3  C   LIG A   1      -7.374   1.555 126.529  0.00  0.00    +0.152 A 
ATOM      4  C   LIG A   1      -8.351   1.345 125.548  0.00  0.00    +0.106 A 
ATOM      5  C   LIG A   1      -8.759   2.392 124.718  0.00  0.00    +0.135 A 
ATOM      6  C   LIG A   1      -8.213   3.655 124.875  0.00  0.00    +0.092 A 
ATOM      7  C   LIG A   1      -8.932   0.006 125.410  0.00  0.00    +0.197 A 
ATOM      8  O   LIG A   1      -9.782  -0.236 124.569  0.00  0.00    -0.287 OA
ATOM      9  C   LIG A   1      -8.437  -1.036 126.315  0.00  0.00    +0.098 A 
ATOM     10  C   LIG A   1      -7.506  -0.719 127.233  0.00  0.00    +0.139 A 
ATOM     11  O   LIG A   1      -6.996   0.554 127.396  0.00  0.00    -0.454 OA
ENDROOT
BRANCH  10  12
ATOM     12  C   LIG A   1      -6.952  -1.734 128.159  0.00  0.00    +0.021 A 
ATOM     13  C   LIG A   1      -5.565  -1.969 128.230  0.00  0.00    +0.060 A 
ATOM     14  C   LIG A   1      -5.069  -2.940 129.099  0.00  0.00    +0.159 A 
ATOM     15  C   LIG A   1      -5.935  -3.691 129.890  0.00  0.00    +0.158 A 
ATOM     16  C   LIG A   1      -7.300  -3.484 129.832  0.00  0.00    +0.050 A 
ATOM     17  C   LIG A   1      -7.805  -2.511 128.968  0.00  0.00    +0.015 A 
BRANCH  14  18
ATOM     18  O   LIG A   1      -3.730  -3.200 129.213  0.00  0.00    -0.503 OA
ATOM     19  H   LIG A   1      -3.606  -3.908 129.868  0.00  0.00    +0.292 HD
ENDBRANCH  14  18
BRANCH  15  20
ATOM     20  O   LIG A   1      -5.446  -4.643 130.736  0.00  0.00    -0.503 OA
ATOM     21  H   LIG A   1      -4.527  -4.793 130.438  0.00  0.00    +0.292 HD
ENDBRANCH  15  20
ENDBRANCH  10  12
BRANCH   2  22
ATOM     22  C   LIG A   1      -5.636   3.087 127.655  0.00  0.00    +0.187 C 
ATOM     23  O   LIG A   1      -5.905   4.275 128.419  0.00  0.00    -0.361 OA
ATOM     24  C   LIG A   1      -4.915   4.548 129.419  0.00  0.00    +0.175 C 
ATOM     25  C   LIG A   1      -3.545   4.759 128.767  0.00  0.00    +0.176 C 
ATOM     26  C   LIG A   1      -3.175   3.544 127.917  0.00  0.00    +0.177 C 
ATOM     27  C   LIG A   1      -4.282   3.179 126.925  0.00  0.00    +0.179 C 
BRANCH  27  28
ATOM     28  O   LIG A   1      -3.941   1.915 126.324  0.00  0.00    -0.386 OA
ATOM     29  H   LIG A   1      -3.215   1.563 126.884  0.00  0.00    +0.210 HD
ENDBRANCH  27  28
BRANCH  26  30
ATOM     30  O   LIG A   1      -1.966   3.806 127.187  0.00  0.00    -0.387 OA
ATOM     31  H   LIG A   1      -1.774   4.758 127.315  0.00  0.00    +0.210 HD
ENDBRANCH  26  30
BRANCH  25  32
ATOM     32  O   LIG A   1      -2.507   4.972 129.729  0.00  0.00    -0.387 OA
ATOM     33  H   LIG A   1      -2.840   5.569 130.426  0.00  0.00    +0.210 HD
ENDBRANCH  25  32
BRANCH  24  34
ATOM     34  C   LIG A   1      -5.347   5.800 130.192  0.00  0.00    +0.190 C 
BRANCH  34  35
ATOM     35  O   LIG A   1      -4.763   6.958 129.599  0.00  0.00    -0.392 OA
ATOM     36  H   LIG A   1      -3.803   6.886 129.757  0.00  0.00    +0.209 HD
ENDBRANCH  34  35
ENDBRANCH  24  34
ENDBRANCH   2  22
BRANCH   1  37
ATOM     37  O   LIG A   1      -6.802   5.149 126.017  0.00  0.00    -0.506 OA
ATOM     38  H   LIG A   1      -5.826   5.134 125.910  0.00  0.00    +0.292 HD
ENDBRANCH   1  37
BRANCH   5  39
ATOM     39  O   LIG A   1      -9.712   2.244 123.742  0.00  0.00    -0.506 OA
ATOM     40  H   LIG A   1      -9.707   1.307 123.442  0.00  0.00    +0.292 HD
ENDBRANCH   5  39
TORSDOF 11
ENDMDL
MODEL 9
REMARK VINA RESULT:      -7.5      3.566      6.868
REMARK  Name = NuBBE_65
REMARK  11 active torsions:
REMARK  status: ('A' for Active; 'I' for Inactive)
REMARK    1  A    between atoms: O_1  and  C_2
REMARK    2  A    between atoms: C_3  and  C_22
REMARK    3  A    between atoms: C_6  and  O_8
REMARK    4  A    between atoms: C_12  and  C_14
REMARK    5  A    between atoms: C_16  and  O_17
REMARK    6  A    between atoms: C_18  and  O_21
REMARK    7  A    between atoms: C_25  and  C_27
REMARK    8  A    between atoms: C_27  and  O_28
REMARK    9  A    between atoms: C_29  and  O_37
REMARK   10  A    between atoms: C_31  and  O_36
REMARK   11  A    between atoms: C_33  and  O_35
REMARK                            x       y       z     vdW  Elec       q    Type
REMARK                         _______ _______ _______ _____ _____    ______ ____
ROOT
ATOM      1  C   LIG A   1      -8.234  -2.963 127.743  0.00  0.00    +0.130 A 
ATOM      2  C   LIG A   1      -7.817  -1.622 127.648  0.00  0.00    +0.068 A 
ATOM      3  C   LIG A   1      -8.060  -0.951 126.433  0.00  0.00    +0.152 A 
ATOM      4  C   LIG A   1      -8.772  -1.582 125.406  0.00  0.00    +0.106 A 
ATOM      5  C   LIG A   1      -9.224  -2.895 125.559  0.00  0.00    +0.135 A 
ATOM      6  C   LIG A   1      -8.949  -3.592 126.724  0.00  0.00    +0.092 A 
ATOM      7  C   LIG A   1      -9.035  -0.836 124.171  0.00  0.00    +0.197 A 
ATOM      8  O   LIG A   1      -9.656  -1.334 123.246  0.00  0.00    -0.287 OA
ATOM      9  C   LIG A   1      -8.535   0.540 124.100  0.00  0.00    +0.098 A 
ATOM     10  C   LIG A   1      -7.847   1.042 125.141  0.00  0.00    +0.139 A 
ATOM     11  O   LIG A   1      -7.556   0.322 126.283  0.00  0.00    -0.454 OA
ENDROOT
BRANCH  10  12
ATOM     12  C   LIG A   1      -7.336   2.433 125.137  0.00  0.00    +0.021 A 
ATOM     13  C   LIG A   1      -8.197   3.522 125.376  0.00  0.00    +0.060 A 
ATOM     14  C   LIG A   1      -7.695   4.822 125.351  0.00  0.00    +0.159 A 
ATOM     15  C   LIG A   1      -6.350   5.057 125.078  0.00  0.00    +0.158 A 
ATOM     16  C   LIG A   1      -5.487   4.005 124.833  0.00  0.00    +0.050 A 
ATOM     17  C   LIG A   1      -5.981   2.700 124.859  0.00  0.00    +0.015 A 
BRANCH  14  18
ATOM     18  O   LIG A   1      -8.487   5.913 125.587  0.00  0.00    -0.503 OA
ATOM     19  H   LIG A   1      -8.434   6.136 126.532  0.00  0.00    +0.292 HD
ENDBRANCH  14  18
BRANCH  15  20
ATOM     20  O   LIG A   1      -5.864   6.331 125.052  0.00  0.00    -0.503 OA
ATOM     21  H   LIG A   1      -4.944   6.254 125.375  0.00  0.00    +0.292 HD
ENDBRANCH  15  20
ENDBRANCH  10  12
BRANCH   2  22
ATOM     22  C   LIG A   1      -7.128  -0.960 128.835  0.00  0.00    +0.187 C 
ATOM     23  O   LIG A   1      -7.942   0.102 129.361  0.00  0.00    -0.361 OA
ATOM     24  C   LIG A   1      -7.386   0.722 130.528  0.00  0.00    +0.175 C 
ATOM     25  C   LIG A   1      -6.026   1.346 130.202  0.00  0.00    +0.176 C 
ATOM     26  C   LIG A   1      -5.089   0.288 129.620  0.00  0.00    +0.177 C 
ATOM     27  C   LIG A   1      -5.726  -0.458 128.444  0.00  0.00    +0.179 C 
BRANCH  27  28
ATOM     28  O   LIG A   1      -4.866  -1.561 128.101  0.00  0.00    -0.386 OA
ATOM     29  H   LIG A   1      -4.292  -1.215 127.383  0.00  0.00    +0.210 HD
ENDBRANCH  27  28
BRANCH  26  30
ATOM     30  O   LIG A   1      -3.871   0.904 129.174  0.00  0.00    -0.387 OA
ATOM     31  H   LIG A   1      -4.111   1.443 128.392  0.00  0.00    +0.210 HD
ENDBRANCH  26  30
BRANCH  25  32
ATOM     32  O   LIG A   1      -5.399   1.925 131.350  0.00  0.00    -0.387 OA
ATOM     33  H   LIG A   1      -4.736   2.576 131.054  0.00  0.00    +0.210 HD
ENDBRANCH  25  32
BRANCH  24  34
ATOM     34  C   LIG A   1      -8.371   1.792 131.016  0.00  0.00    +0.190 C 
BRANCH  34  35
ATOM     35  O   LIG A   1      -7.978   3.070 130.522  0.00  0.00    -0.392 OA
ATOM     36  H   LIG A   1      -8.291   3.721 131.179  0.00  0.00    +0.209 HD
ENDBRANCH  34  35
ENDBRANCH  24  34
ENDBRANCH   2  22
BRANCH   1  37
ATOM     37  O   LIG A   1      -7.926  -3.727 128.836  0.00  0.00    -0.506 OA
ATOM     38  H   LIG A   1      -7.474  -4.534 128.507  0.00  0.00    +0.292 HD
ENDBRANCH   1  37
BRANCH   5  39
ATOM     39  O   LIG A   1      -9.924  -3.563 124.586  0.00  0.00    -0.506 OA
ATOM     40  H   LIG A   1     -10.878  -3.546 124.823  0.00  0.00    +0.292 HD
ENDBRANCH   5  39
TORSDOF 11
ENDMDL
