MODEL 1
REMARK VINA RESULT:      -6.7      0.000      0.000
REMARK  Name = NuBBE_1278
REMARK  6 active torsions:
REMARK  status: ('A' for Active; 'I' for Inactive)
REMARK    1  A    between atoms: C_1  and  C_2
REMARK    2  A    between atoms: C_6  and  C_7
REMARK    3  A    between atoms: C_11  and  C_13
REMARK    4  A    between atoms: C_13  and  C_14
REMARK    5  A    between atoms: C_13  and  O_15
REMARK    6  A    between atoms: C_13  and  C_16
REMARK                            x       y       z     vdW  Elec       q    Type
REMARK                         _______ _______ _______ _____ _____    ______ ____
ROOT
ATOM      1  C   LIG A   1      -5.165  -2.072 124.352  0.00  0.00    +0.039 C 
ATOM      2  C   LIG A   1      -6.643  -2.199 124.108  0.00  0.00    -0.073 C 
ATOM      3  C   LIG A   1      -7.276  -3.366 124.341  0.00  0.00    -0.027 C 
ATOM      4  C   LIG A   1      -8.734  -3.610 124.075  0.00  0.00    +0.028 C 
ATOM      5  C   LIG A   1      -9.433  -2.458 123.346  0.00  0.00    +0.011 C 
ATOM      6  C   LIG A   1      -8.923  -1.070 123.800  0.00  0.00    -0.025 C 
ATOM      7  C   LIG A   1      -9.273  -0.868 125.297  0.00  0.00    +0.012 C 
ATOM      8  C   LIG A   1      -7.391  -1.006 123.518  0.00  0.00    +0.021 C 
ATOM      9  C   LIG A   1      -6.825   0.383 123.877  0.00  0.00    +0.014 C 
ATOM     10  C   LIG A   1      -7.528   1.526 123.098  0.00  0.00    +0.021 C 
ATOM     11  C   LIG A   1      -9.062   1.431 123.244  0.00  0.00    +0.007 C 
ATOM     12  C   LIG A   1      -9.612   0.030 122.965  0.00  0.00    +0.007 C 
ENDROOT
BRANCH  10  13
ATOM     13  C   LIG A   1      -6.967   2.936 123.480  0.00  0.00    +0.063 C 
ATOM     14  C   LIG A   1      -6.103   3.543 122.364  0.00  0.00    +0.041 C 
ATOM     15  C   LIG A   1      -6.127   2.884 124.764  0.00  0.00    +0.041 C 
BRANCH  13  16
ATOM     16  O   LIG A   1      -8.047   3.839 123.740  0.00  0.00    -0.389 OA
ATOM     17  H   LIG A   1      -8.471   4.062 122.897  0.00  0.00    +0.210 HD
ENDBRANCH  13  16
ENDBRANCH  10  13
TORSDOF 2
ENDMDL
MODEL 2
REMARK VINA RESULT:      -6.3      9.028      9.848
REMARK  Name = NuBBE_1278
REMARK  6 active torsions:
REMARK  status: ('A' for Active; 'I' for Inactive)
REMARK    1  A    between atoms: C_1  and  C_2
REMARK    2  A    between atoms: C_6  and  C_7
REMARK    3  A    between atoms: C_11  and  C_13
REMARK    4  A    between atoms: C_13  and  C_14
REMARK    5  A    between atoms: C_13  and  O_15
REMARK    6  A    between atoms: C_13  and  C_16
REMARK                            x       y       z     vdW  Elec       q    Type
REMARK                         _______ _______ _______ _____ _____    ______ ____
ROOT
ATOM      1  C   LIG A   1      -6.688   7.150 131.022  0.00  0.00    +0.039 C 
ATOM      2  C   LIG A   1      -7.710   6.154 131.493  0.00  0.00    -0.073 C 
ATOM      3  C   LIG A   1      -7.499   5.437 132.615  0.00  0.00    -0.027 C 
ATOM      4  C   LIG A   1      -8.430   4.380 133.137  0.00  0.00    +0.028 C 
ATOM      5  C   LIG A   1      -9.587   4.050 132.188  0.00  0.00    +0.011 C 
ATOM      6  C   LIG A   1     -10.125   5.297 131.448  0.00  0.00    -0.025 C 
ATOM      7  C   LIG A   1     -10.727   6.280 132.487  0.00  0.00    +0.012 C 
ATOM      8  C   LIG A   1      -8.950   5.916 130.633  0.00  0.00    +0.021 C 
ATOM      9  C   LIG A   1      -9.432   7.126 129.806  0.00  0.00    +0.014 C 
ATOM     10  C   LIG A   1     -10.579   6.753 128.831  0.00  0.00    +0.021 C 
ATOM     11  C   LIG A   1     -11.719   6.021 129.573  0.00  0.00    +0.007 C 
ATOM     12  C   LIG A   1     -11.227   4.872 130.456  0.00  0.00    +0.007 C 
ENDROOT
BRANCH  10  13
ATOM     13  C   LIG A   1     -11.083   7.986 128.009  0.00  0.00    +0.063 C 
ATOM     14  C   LIG A   1     -12.399   8.556 128.558  0.00  0.00    +0.041 C 
ATOM     15  C   LIG A   1     -11.292   7.633 126.529  0.00  0.00    +0.041 C 
BRANCH  13  16
ATOM     16  O   LIG A   1     -10.104   9.029 128.040  0.00  0.00    -0.389 OA
ATOM     17  H   LIG A   1      -9.913   9.244 128.967  0.00  0.00    +0.210 HD
ENDBRANCH  13  16
ENDBRANCH  10  13
TORSDOF 2
ENDMDL
MODEL 3
REMARK VINA RESULT:      -6.1      3.379      5.270
REMARK  Name = NuBBE_1278
REMARK  6 active torsions:
REMARK  status: ('A' for Active; 'I' for Inactive)
REMARK    1  A    between atoms: C_1  and  C_2
REMARK    2  A    between atoms: C_6  and  C_7
REMARK    3  A    between atoms: C_11  and  C_13
REMARK    4  A    between atoms: C_13  and  C_14
REMARK    5  A    between atoms: C_13  and  O_15
REMARK    6  A    between atoms: C_13  and  C_16
REMARK                            x       y       z     vdW  Elec       q    Type
REMARK                         _______ _______ _______ _____ _____    ______ ____
ROOT
ATOM      1  C   LIG A   1      -6.484   0.329 124.566  0.00  0.00    +0.039 C 
ATOM      2  C   LIG A   1      -7.424  -0.807 124.272  0.00  0.00    -0.073 C 
ATOM      3  C   LIG A   1      -7.732  -1.127 122.999  0.00  0.00    -0.027 C 
ATOM      4  C   LIG A   1      -8.701  -2.205 122.604  0.00  0.00    +0.028 C 
ATOM      5  C   LIG A   1      -9.459  -2.820 123.784  0.00  0.00    +0.011 C 
ATOM      6  C   LIG A   1      -8.580  -2.958 125.050  0.00  0.00    -0.025 C 
ATOM      7  C   LIG A   1      -7.423  -3.948 124.757  0.00  0.00    +0.012 C 
ATOM      8  C   LIG A   1      -8.079  -1.535 125.443  0.00  0.00    +0.021 C 
ATOM      9  C   LIG A   1      -7.255  -1.584 126.746  0.00  0.00    +0.014 C 
ATOM     10  C   LIG A   1      -8.060  -2.180 127.931  0.00  0.00    +0.021 C 
ATOM     11  C   LIG A   1      -8.684  -3.539 127.547  0.00  0.00    +0.007 C 
ATOM     12  C   LIG A   1      -9.434  -3.506 126.212  0.00  0.00    +0.007 C 
ENDROOT
BRANCH  10  13
ATOM     13  C   LIG A   1      -7.215  -2.250 129.247  0.00  0.00    +0.063 C 
ATOM     14  C   LIG A   1      -6.995  -3.693 129.723  0.00  0.00    +0.041 C 
ATOM     15  C   LIG A   1      -7.875  -1.462 130.387  0.00  0.00    +0.041 C 
BRANCH  13  16
ATOM     16  O   LIG A   1      -5.931  -1.655 129.036  0.00  0.00    -0.389 OA
ATOM     17  H   LIG A   1      -5.315  -2.011 129.697  0.00  0.00    +0.210 HD
ENDBRANCH  13  16
ENDBRANCH  10  13
TORSDOF 2
ENDMDL
MODEL 4
REMARK VINA RESULT:      -5.9      2.388      2.806
REMARK  Name = NuBBE_1278
REMARK  6 active torsions:
REMARK  status: ('A' for Active; 'I' for Inactive)
REMARK    1  A    between atoms: C_1  and  C_2
REMARK    2  A    between atoms: C_6  and  C_7
REMARK    3  A    between atoms: C_11  and  C_13
REMARK    4  A    between atoms: C_13  and  C_14
REMARK    5  A    between atoms: C_13  and  O_15
REMARK    6  A    between atoms: C_13  and  C_16
REMARK                            x       y       z     vdW  Elec       q    Type
REMARK                         _______ _______ _______ _____ _____    ______ ____
ROOT
ATOM      1  C   LIG A   1      -4.942  -2.835 123.888  0.00  0.00    +0.039 C 
ATOM      2  C   LIG A   1      -6.356  -2.762 124.393  0.00  0.00    -0.073 C 
ATOM      3  C   LIG A   1      -7.142  -3.857 124.381  0.00  0.00    -0.027 C 
ATOM      4  C   LIG A   1      -8.582  -3.875 124.809  0.00  0.00    +0.028 C 
ATOM      5  C   LIG A   1      -9.156  -2.487 125.111  0.00  0.00    +0.011 C 
ATOM      6  C   LIG A   1      -8.128  -1.554 125.795  0.00  0.00    -0.025 C 
ATOM      7  C   LIG A   1      -7.753  -2.143 127.179  0.00  0.00    +0.012 C 
ATOM      8  C   LIG A   1      -6.903  -1.410 124.841  0.00  0.00    +0.021 C 
ATOM      9  C   LIG A   1      -5.866  -0.429 125.426  0.00  0.00    +0.014 C 
ATOM     10  C   LIG A   1      -6.467   0.977 125.689  0.00  0.00    +0.021 C 
ATOM     11  C   LIG A   1      -7.759   0.877 126.528  0.00  0.00    +0.007 C 
ATOM     12  C   LIG A   1      -8.752  -0.157 125.991  0.00  0.00    +0.007 C 
ENDROOT
BRANCH  10  13
ATOM     13  C   LIG A   1      -5.419   1.965 126.302  0.00  0.00    +0.063 C 
ATOM     14  C   LIG A   1      -5.758   2.351 127.749  0.00  0.00    +0.041 C 
ATOM     15  C   LIG A   1      -5.302   3.253 125.475  0.00  0.00    +0.041 C 
BRANCH  13  16
ATOM     16  O   LIG A   1      -4.120   1.365 126.299  0.00  0.00    -0.389 OA
ATOM     17  H   LIG A   1      -3.507   1.960 125.837  0.00  0.00    +0.210 HD
ENDBRANCH  13  16
ENDBRANCH  10  13
TORSDOF 2
ENDMDL
MODEL 5
REMARK VINA RESULT:      -5.9      3.586      5.471
REMARK  Name = NuBBE_1278
REMARK  6 active torsions:
REMARK  status: ('A' for Active; 'I' for Inactive)
REMARK    1  A    between atoms: C_1  and  C_2
REMARK    2  A    between atoms: C_6  and  C_7
REMARK    3  A    between atoms: C_11  and  C_13
REMARK    4  A    between atoms: C_13  and  C_14
REMARK    5  A    between atoms: C_13  and  O_15
REMARK    6  A    between atoms: C_13  and  C_16
REMARK                            x       y       z     vdW  Elec       q    Type
REMARK                         _______ _______ _______ _____ _____    ______ ____
ROOT
ATOM      1  C   LIG A   1      -7.514  -3.364 129.329  0.00  0.00    +0.039 C 
ATOM      2  C   LIG A   1      -7.621  -1.885 129.081  0.00  0.00    -0.073 C 
ATOM      3  C   LIG A   1      -7.208  -1.005 130.015  0.00  0.00    -0.027 C 
ATOM      4  C   LIG A   1      -7.325   0.488 129.887  0.00  0.00    +0.028 C 
ATOM      5  C   LIG A   1      -8.118   0.944 128.659  0.00  0.00    +0.011 C 
ATOM      6  C   LIG A   1      -7.865   0.052 127.421  0.00  0.00    -0.025 C 
ATOM      7  C   LIG A   1      -6.376   0.174 127.005  0.00  0.00    +0.012 C 
ATOM      8  C   LIG A   1      -8.277  -1.406 127.789  0.00  0.00    +0.021 C 
ATOM      9  C   LIG A   1      -8.123  -2.343 126.573  0.00  0.00    +0.014 C 
ATOM     10  C   LIG A   1      -8.964  -1.874 125.357  0.00  0.00    +0.021 C 
ATOM     11  C   LIG A   1      -8.682  -0.391 125.030  0.00  0.00    +0.007 C 
ATOM     12  C   LIG A   1      -8.757   0.524 126.255  0.00  0.00    +0.007 C 
ENDROOT
BRANCH  10  13
ATOM     13  C   LIG A   1      -8.789  -2.813 124.117  0.00  0.00    +0.063 C 
ATOM     14  C   LIG A   1      -7.869  -4.006 124.414  0.00  0.00    +0.041 C 
ATOM     15  C   LIG A   1      -8.220  -2.056 122.908  0.00  0.00    +0.041 C 
BRANCH  13  16
ATOM     16  O   LIG A   1     -10.060  -3.327 123.709  0.00  0.00    -0.389 OA
ATOM     17  H   LIG A   1     -10.087  -4.276 123.911  0.00  0.00    +0.210 HD
ENDBRANCH  13  16
ENDBRANCH  10  13
TORSDOF 2
ENDMDL
MODEL 6
REMARK VINA RESULT:      -5.7      3.652      5.418
REMARK  Name = NuBBE_1278
REMARK  6 active torsions:
REMARK  status: ('A' for Active; 'I' for Inactive)
REMARK    1  A    between atoms: C_1  and  C_2
REMARK    2  A    between atoms: C_6  and  C_7
REMARK    3  A    between atoms: C_11  and  C_13
REMARK    4  A    between atoms: C_13  and  C_14
REMARK    5  A    between atoms: C_13  and  O_15
REMARK    6  A    between atoms: C_13  and  C_16
REMARK                            x       y       z     vdW  Elec       q    Type
REMARK                         _______ _______ _______ _____ _____    ______ ____
ROOT
ATOM      1  C   LIG A   1      -4.794  -3.791 123.978  0.00  0.00    +0.039 C 
ATOM      2  C   LIG A   1      -5.601  -2.523 124.032  0.00  0.00    -0.073 C 
ATOM      3  C   LIG A   1      -6.238  -2.072 122.933  0.00  0.00    -0.027 C 
ATOM      4  C   LIG A   1      -7.020  -0.791 122.870  0.00  0.00    +0.028 C 
ATOM      5  C   LIG A   1      -6.900   0.071 124.130  0.00  0.00    +0.011 C 
ATOM      6  C   LIG A   1      -6.848  -0.772 125.426  0.00  0.00    -0.025 C 
ATOM      7  C   LIG A   1      -8.189  -1.533 125.588  0.00  0.00    +0.012 C 
ATOM      8  C   LIG A   1      -5.615  -1.721 125.331  0.00  0.00    +0.021 C 
ATOM      9  C   LIG A   1      -5.455  -2.543 126.627  0.00  0.00    +0.014 C 
ATOM     10  C   LIG A   1      -5.301  -1.643 127.881  0.00  0.00    +0.021 C 
ATOM     11  C   LIG A   1      -6.435  -0.597 127.952  0.00  0.00    +0.007 C 
ATOM     12  C   LIG A   1      -6.645   0.160 126.639  0.00  0.00    +0.007 C 
ENDROOT
BRANCH  10  13
ATOM     13  C   LIG A   1      -5.160  -2.478 129.197  0.00  0.00    +0.063 C 
ATOM     14  C   LIG A   1      -3.982  -3.462 129.141  0.00  0.00    +0.041 C 
ATOM     15  C   LIG A   1      -6.438  -3.274 129.502  0.00  0.00    +0.041 C 
BRANCH  13  16
ATOM     16  O   LIG A   1      -4.953  -1.605 130.312  0.00  0.00    -0.389 OA
ATOM     17  H   LIG A   1      -5.583  -1.844 131.011  0.00  0.00    +0.210 HD
ENDBRANCH  13  16
ENDBRANCH  10  13
TORSDOF 2
ENDMDL
MODEL 7
REMARK VINA RESULT:      -5.7      3.378      5.364
REMARK  Name = NuBBE_1278
REMARK  6 active torsions:
REMARK  status: ('A' for Active; 'I' for Inactive)
REMARK    1  A    between atoms: C_1  and  C_2
REMARK    2  A    between atoms: C_6  and  C_7
REMARK    3  A    between atoms: C_11  and  C_13
REMARK    4  A    between atoms: C_13  and  C_14
REMARK    5  A    between atoms: C_13  and  O_15
REMARK    6  A    between atoms: C_13  and  C_16
REMARK                            x       y       z     vdW  Elec       q    Type
REMARK                         _______ _______ _______ _____ _____    ______ ____
ROOT
ATOM      1  C   LIG A   1      -9.358  -3.287 123.660  0.00  0.00    +0.039 C 
ATOM      2  C   LIG A   1      -9.020  -1.830 123.812  0.00  0.00    -0.073 C 
ATOM      3  C   LIG A   1      -9.370  -0.945 122.857  0.00  0.00    -0.027 C 
ATOM      4  C   LIG A   1      -9.029   0.518 122.887  0.00  0.00    +0.028 C 
ATOM      5  C   LIG A   1      -8.088   0.911 124.030  0.00  0.00    +0.011 C 
ATOM      6  C   LIG A   1      -8.373   0.128 125.333  0.00  0.00    -0.025 C 
ATOM      7  C   LIG A   1      -9.793   0.491 125.841  0.00  0.00    +0.012 C 
ATOM      8  C   LIG A   1      -8.206  -1.391 125.026  0.00  0.00    +0.021 C 
ATOM      9  C   LIG A   1      -8.401  -2.234 126.303  0.00  0.00    +0.014 C 
ATOM     10  C   LIG A   1      -7.412  -1.836 127.430  0.00  0.00    +0.021 C 
ATOM     11  C   LIG A   1      -7.450  -0.314 127.686  0.00  0.00    +0.007 C 
ATOM     12  C   LIG A   1      -7.336   0.519 126.406  0.00  0.00    +0.007 C 
ENDROOT
BRANCH  10  13
ATOM     13  C   LIG A   1      -7.627  -2.677 128.732  0.00  0.00    +0.063 C 
ATOM     14  C   LIG A   1      -8.723  -3.740 128.566  0.00  0.00    +0.041 C 
ATOM     15  C   LIG A   1      -7.996  -1.787 129.927  0.00  0.00    +0.041 C 
BRANCH  13  16
ATOM     16  O   LIG A   1      -6.414  -3.347 129.089  0.00  0.00    -0.389 OA
ATOM     17  H   LIG A   1      -5.793  -3.275 128.346  0.00  0.00    +0.210 HD
ENDBRANCH  13  16
ENDBRANCH  10  13
TORSDOF 2
ENDMDL
MODEL 8
REMARK VINA RESULT:      -5.7      7.320      9.231
REMARK  Name = NuBBE_1278
REMARK  6 active torsions:
REMARK  status: ('A' for Active; 'I' for Inactive)
REMARK    1  A    between atoms: C_1  and  C_2
REMARK    2  A    between atoms: C_6  and  C_7
REMARK    3  A    between atoms: C_11  and  C_13
REMARK    4  A    between atoms: C_13  and  C_14
REMARK    5  A    between atoms: C_13  and  O_15
REMARK    6  A    between atoms: C_13  and  C_16
REMARK                            x       y       z     vdW  Elec       q    Type
REMARK                         _______ _______ _______ _____ _____    ______ ____
ROOT
ATOM      1  C   LIG A   1      -7.923   3.965 127.903  0.00  0.00    +0.039 C 
ATOM      2  C   LIG A   1      -8.148   4.304 129.351  0.00  0.00    -0.073 C 
ATOM      3  C   LIG A   1      -7.303   3.849 130.298  0.00  0.00    -0.027 C 
ATOM      4  C   LIG A   1      -7.472   4.083 131.772  0.00  0.00    +0.028 C 
ATOM      5  C   LIG A   1      -8.799   4.752 132.145  0.00  0.00    +0.011 C 
ATOM      6  C   LIG A   1      -9.243   5.812 131.109  0.00  0.00    -0.025 C 
ATOM      7  C   LIG A   1      -8.206   6.965 131.088  0.00  0.00    +0.012 C 
ATOM      8  C   LIG A   1      -9.393   5.101 129.730  0.00  0.00    +0.021 C 
ATOM      9  C   LIG A   1      -9.909   6.085 128.659  0.00  0.00    +0.014 C 
ATOM     10  C   LIG A   1     -11.270   6.719 129.049  0.00  0.00    +0.021 C 
ATOM     11  C   LIG A   1     -11.209   7.330 130.466  0.00  0.00    +0.007 C 
ATOM     12  C   LIG A   1     -10.621   6.378 131.511  0.00  0.00    +0.007 C 
ENDROOT
BRANCH  10  13
ATOM     13  C   LIG A   1     -11.782   7.733 127.972  0.00  0.00    +0.063 C 
ATOM     14  C   LIG A   1     -13.269   7.536 127.643  0.00  0.00    +0.041 C 
ATOM     15  C   LIG A   1     -10.982   7.624 126.665  0.00  0.00    +0.041 C 
BRANCH  13  16
ATOM     16  O   LIG A   1     -11.608   9.074 128.440  0.00  0.00    -0.389 OA
ATOM     17  H   LIG A   1     -11.527   9.661 127.670  0.00  0.00    +0.210 HD
ENDBRANCH  13  16
ENDBRANCH  10  13
TORSDOF 2
ENDMDL
MODEL 9
REMARK VINA RESULT:      -5.6      2.003      5.085
REMARK  Name = NuBBE_1278
REMARK  6 active torsions:
REMARK  status: ('A' for Active; 'I' for Inactive)
REMARK    1  A    between atoms: C_1  and  C_2
REMARK    2  A    between atoms: C_6  and  C_7
REMARK    3  A    between atoms: C_11  and  C_13
REMARK    4  A    between atoms: C_13  and  C_14
REMARK    5  A    between atoms: C_13  and  O_15
REMARK    6  A    between atoms: C_13  and  C_16
REMARK                            x       y       z     vdW  Elec       q    Type
REMARK                         _______ _______ _______ _____ _____    ______ ____
ROOT
ATOM      1  C   LIG A   1      -4.849   1.033 126.315  0.00  0.00    +0.039 C 
ATOM      2  C   LIG A   1      -5.717   2.080 125.674  0.00  0.00    -0.073 C 
ATOM      3  C   LIG A   1      -5.313   3.366 125.626  0.00  0.00    -0.027 C 
ATOM      4  C   LIG A   1      -6.130   4.493 125.061  0.00  0.00    +0.028 C 
ATOM      5  C   LIG A   1      -7.559   4.093 124.681  0.00  0.00    +0.011 C 
ATOM      6  C   LIG A   1      -7.641   2.668 124.086  0.00  0.00    -0.025 C 
ATOM      7  C   LIG A   1      -6.847   2.629 122.754  0.00  0.00    +0.012 C 
ATOM      8  C   LIG A   1      -7.092   1.672 125.152  0.00  0.00    +0.021 C 
ATOM      9  C   LIG A   1      -7.214   0.216 124.656  0.00  0.00    +0.014 C 
ATOM     10  C   LIG A   1      -8.677  -0.170 124.313  0.00  0.00    +0.021 C 
ATOM     11  C   LIG A   1      -9.308   0.862 123.353  0.00  0.00    +0.007 C 
ATOM     12  C   LIG A   1      -9.116   2.310 123.808  0.00  0.00    +0.007 C 
ENDROOT
BRANCH  10  13
ATOM     13  C   LIG A   1      -8.795  -1.640 123.788  0.00  0.00    +0.063 C 
ATOM     14  C   LIG A   1      -8.866  -2.663 124.931  0.00  0.00    +0.041 C 
ATOM     15  C   LIG A   1      -7.615  -2.014 122.880  0.00  0.00    +0.041 C 
BRANCH  13  16
ATOM     16  O   LIG A   1      -9.977  -1.783 122.994  0.00  0.00    -0.389 OA
ATOM     17  H   LIG A   1     -10.054  -1.008 122.416  0.00  0.00    +0.210 HD
ENDBRANCH  13  16
ENDBRANCH  10  13
TORSDOF 2
ENDMDL
