MODEL 1
REMARK VINA RESULT:      -7.2      0.000      0.000
REMARK  Name = NuBBE_106
REMARK  12 active torsions:
REMARK  status: ('A' for Active; 'I' for Inactive)
REMARK    1  A    between atoms: C_4  and  O_13
REMARK    2  A    between atoms: C_8  and  C_9
REMARK    3  A    between atoms: C_9  and  O_10
REMARK    4  A    between atoms: O_10  and  C_11
REMARK    5  A    between atoms: O_13  and  C_14
REMARK    6  A    between atoms: C_17  and  C_25
REMARK    7  A    between atoms: C_19  and  O_24
REMARK    8  A    between atoms: C_21  and  O_23
REMARK    9  A    between atoms: C_25  and  O_26
REMARK   10  A    between atoms: C_27  and  O_29
REMARK   11  A    between atoms: C_32  and  O_37
REMARK   12  A    between atoms: C_34  and  C_36
REMARK                            x       y       z     vdW  Elec       q    Type
REMARK                         _______ _______ _______ _____ _____    ______ ____
ROOT
ATOM      1  C   LIG A   1      -9.631   3.220 130.451  0.00  0.00    +0.041 C 
ATOM      2  C   LIG A   1      -9.839   4.621 131.080  0.00  0.00    +0.071 C 
ATOM      3  C   LIG A   1      -9.754   5.712 130.013  0.00  0.00    +0.313 C 
ATOM      4  O   LIG A   1      -8.482   5.691 129.353  0.00  0.00    -0.470 OA
ATOM      5  C   LIG A   1      -8.112   4.451 128.901  0.00  0.00    +0.201 C 
ATOM      6  C   LIG A   1      -8.636   3.284 129.310  0.00  0.00    +0.074 C 
ATOM      7  C   LIG A   1      -9.139   2.347 131.632  0.00  0.00    +0.040 C 
ATOM      8  C   LIG A   1      -8.902   3.295 132.814  0.00  0.00    +0.118 C 
ATOM      9  C   LIG A   1      -8.757   4.677 132.175  0.00  0.00    +0.024 C 
ATOM     10  C   LIG A   1      -8.917   5.841 133.142  0.00  0.00    +0.010 C 
ENDROOT
BRANCH   6  11
ATOM     11  C   LIG A   1      -8.279   2.037 128.593  0.00  0.00    +0.338 C 
ATOM     12  O   LIG A   1      -7.391   1.275 128.966  0.00  0.00    -0.245 OA
BRANCH  11  13
ATOM     13  O   LIG A   1      -9.044   1.890 127.488  0.00  0.00    -0.465 OA
ATOM     14  C   LIG A   1      -8.697   0.823 126.607  0.00  0.00    +0.280 C 
ENDBRANCH  11  13
ENDBRANCH   6  11
BRANCH   8  15
ATOM     15  O   LIG A   1     -10.033   3.270 133.679  0.00  0.00    -0.392 OA
ATOM     16  H   LIG A   1     -10.631   2.572 133.360  0.00  0.00    +0.210 HD
ENDBRANCH   8  15
BRANCH   3  17
ATOM     17  O   LIG A   1     -10.863   5.505 129.124  0.00  0.00    -0.310 OA
BRANCH  17  18
ATOM     18  C   LIG A   1     -12.038   6.218 129.491  0.00  0.00    +0.286 C 
ATOM     19  O   LIG A   1     -12.945   6.368 128.393  0.00  0.00    -0.340 OA
ATOM     20  C   LIG A   1     -12.600   7.353 127.410  0.00  0.00    +0.178 C 
ATOM     21  C   LIG A   1     -12.350   8.729 128.052  0.00  0.00    +0.177 C 
ATOM     22  C   LIG A   1     -11.268   8.647 129.133  0.00  0.00    +0.179 C 
ATOM     23  C   LIG A   1     -11.647   7.566 130.162  0.00  0.00    +0.201 C 
BRANCH  22  24
ATOM     24  O   LIG A   1      -9.992   8.413 128.539  0.00  0.00    -0.386 OA
ATOM     25  H   LIG A   1      -9.505   7.800 129.117  0.00  0.00    +0.210 HD
ENDBRANCH  22  24
BRANCH  21  26
ATOM     26  O   LIG A   1     -13.571   9.188 128.678  0.00  0.00    -0.387 OA
ATOM     27  H   LIG A   1     -14.265   9.154 127.994  0.00  0.00    +0.210 HD
ENDBRANCH  21  26
BRANCH  23  28
ATOM     28  O   LIG A   1     -12.734   8.050 130.977  0.00  0.00    -0.384 OA
ATOM     29  H   LIG A   1     -13.552   7.935 130.441  0.00  0.00    +0.210 HD
ENDBRANCH  23  28
BRANCH  20  30
ATOM     30  C   LIG A   1     -11.491   6.890 126.451  0.00  0.00    +0.190 C 
BRANCH  30  31
ATOM     31  O   LIG A   1     -10.970   7.993 125.716  0.00  0.00    -0.392 OA
ATOM     32  H   LIG A   1     -10.028   7.801 125.559  0.00  0.00    +0.209 HD
ENDBRANCH  30  31
ENDBRANCH  20  30
ENDBRANCH  17  18
ENDBRANCH   3  17
TORSDOF 10
ENDMDL
MODEL 2
REMARK VINA RESULT:      -7.1      5.352      8.710
REMARK  Name = NuBBE_106
REMARK  12 active torsions:
REMARK  status: ('A' for Active; 'I' for Inactive)
REMARK    1  A    between atoms: C_4  and  O_13
REMARK    2  A    between atoms: C_8  and  C_9
REMARK    3  A    between atoms: C_9  and  O_10
REMARK    4  A    between atoms: O_10  and  C_11
REMARK    5  A    between atoms: O_13  and  C_14
REMARK    6  A    between atoms: C_17  and  C_25
REMARK    7  A    between atoms: C_19  and  O_24
REMARK    8  A    between atoms: C_21  and  O_23
REMARK    9  A    between atoms: C_25  and  O_26
REMARK   10  A    between atoms: C_27  and  O_29
REMARK   11  A    between atoms: C_32  and  O_37
REMARK   12  A    between atoms: C_34  and  C_36
REMARK                            x       y       z     vdW  Elec       q    Type
REMARK                         _______ _______ _______ _____ _____    ______ ____
ROOT
ATOM      1  C   LIG A   1      -5.928   2.581 125.193  0.00  0.00    +0.041 C 
ATOM      2  C   LIG A   1      -6.823   2.120 126.371  0.00  0.00    +0.071 C 
ATOM      3  C   LIG A   1      -8.194   1.669 125.867  0.00  0.00    +0.313 C 
ATOM      4  O   LIG A   1      -8.863   2.731 125.173  0.00  0.00    -0.470 OA
ATOM      5  C   LIG A   1      -8.095   3.335 124.211  0.00  0.00    +0.201 C 
ATOM      6  C   LIG A   1      -6.756   3.259 124.121  0.00  0.00    +0.074 C 
ATOM      7  C   LIG A   1      -4.899   3.532 125.852  0.00  0.00    +0.040 C 
ATOM      8  C   LIG A   1      -5.349   3.730 127.306  0.00  0.00    +0.118 C 
ATOM      9  C   LIG A   1      -6.828   3.342 127.307  0.00  0.00    +0.024 C 
ATOM     10  C   LIG A   1      -7.407   3.063 128.686  0.00  0.00    +0.010 C 
ENDROOT
BRANCH   6  11
ATOM     11  C   LIG A   1      -6.079   3.799 122.919  0.00  0.00    +0.338 C 
ATOM     12  O   LIG A   1      -5.356   4.792 122.940  0.00  0.00    -0.245 OA
BRANCH  11  13
ATOM     13  O   LIG A   1      -6.392   3.063 121.828  0.00  0.00    -0.465 OA
ATOM     14  C   LIG A   1      -6.652   3.784 120.624  0.00  0.00    +0.280 C 
ENDBRANCH  11  13
ENDBRANCH   6  11
BRANCH   8  15
ATOM     15  O   LIG A   1      -4.611   2.856 128.155  0.00  0.00    -0.392 OA
ATOM     16  H   LIG A   1      -3.761   3.286 128.351  0.00  0.00    +0.210 HD
ENDBRANCH   8  15
BRANCH   3  17
ATOM     17  O   LIG A   1      -7.972   0.506 125.054  0.00  0.00    -0.310 OA
BRANCH  17  18
ATOM     18  C   LIG A   1      -9.169  -0.122 124.608  0.00  0.00    +0.286 C 
ATOM     19  O   LIG A   1      -9.544  -1.224 125.442  0.00  0.00    -0.340 OA
ATOM     20  C   LIG A   1      -8.792  -2.434 125.277  0.00  0.00    +0.178 C 
ATOM     21  C   LIG A   1      -8.776  -2.893 123.808  0.00  0.00    +0.177 C 
ATOM     22  C   LIG A   1      -8.232  -1.793 122.891  0.00  0.00    +0.179 C 
ATOM     23  C   LIG A   1      -9.036  -0.498 123.104  0.00  0.00    +0.201 C 
BRANCH  22  24
ATOM     24  O   LIG A   1      -6.834  -1.612 123.112  0.00  0.00    -0.386 OA
ATOM     25  H   LIG A   1      -6.685  -1.602 124.073  0.00  0.00    +0.210 HD
ENDBRANCH  22  24
BRANCH  21  26
ATOM     26  O   LIG A   1     -10.128  -3.192 123.391  0.00  0.00    -0.387 OA
ATOM     27  H   LIG A   1     -10.501  -2.364 123.037  0.00  0.00    +0.210 HD
ENDBRANCH  21  26
BRANCH  23  28
ATOM     28  O   LIG A   1     -10.343  -0.650 122.513  0.00  0.00    -0.384 OA
ATOM     29  H   LIG A   1     -10.829  -1.291 123.081  0.00  0.00    +0.210 HD
ENDBRANCH  23  28
BRANCH  20  30
ATOM     30  C   LIG A   1      -7.407  -2.383 125.940  0.00  0.00    +0.190 C 
BRANCH  30  31
ATOM     31  O   LIG A   1      -7.459  -1.644 127.157  0.00  0.00    -0.392 OA
ATOM     32  H   LIG A   1      -6.802  -0.930 127.075  0.00  0.00    +0.209 HD
ENDBRANCH  30  31
ENDBRANCH  20  30
ENDBRANCH  17  18
ENDBRANCH   3  17
TORSDOF 10
ENDMDL
MODEL 3
REMARK VINA RESULT:      -7.0      0.935      2.374
REMARK  Name = NuBBE_106
REMARK  12 active torsions:
REMARK  status: ('A' for Active; 'I' for Inactive)
REMARK    1  A    between atoms: C_4  and  O_13
REMARK    2  A    between atoms: C_8  and  C_9
REMARK    3  A    between atoms: C_9  and  O_10
REMARK    4  A    between atoms: O_10  and  C_11
REMARK    5  A    between atoms: O_13  and  C_14
REMARK    6  A    between atoms: C_17  and  C_25
REMARK    7  A    between atoms: C_19  and  O_24
REMARK    8  A    between atoms: C_21  and  O_23
REMARK    9  A    between atoms: C_25  and  O_26
REMARK   10  A    between atoms: C_27  and  O_29
REMARK   11  A    between atoms: C_32  and  O_37
REMARK   12  A    between atoms: C_34  and  C_36
REMARK                            x       y       z     vdW  Elec       q    Type
REMARK                         _______ _______ _______ _____ _____    ______ ____
ROOT
ATOM      1  C   LIG A   1      -9.436   3.018 130.131  0.00  0.00    +0.041 C 
ATOM      2  C   LIG A   1      -9.263   4.368 130.872  0.00  0.00    +0.071 C 
ATOM      3  C   LIG A   1      -8.861   5.475 129.897  0.00  0.00    +0.313 C 
ATOM      4  O   LIG A   1      -7.631   5.156 129.233  0.00  0.00    -0.470 OA
ATOM      5  C   LIG A   1      -7.607   3.902 128.681  0.00  0.00    +0.201 C 
ATOM      6  C   LIG A   1      -8.440   2.895 128.996  0.00  0.00    +0.074 C 
ATOM      7  C   LIG A   1      -9.226   1.953 131.235  0.00  0.00    +0.040 C 
ATOM      8  C   LIG A   1      -8.760   2.703 132.490  0.00  0.00    +0.118 C 
ATOM      9  C   LIG A   1      -8.229   4.038 131.964  0.00  0.00    +0.024 C 
ATOM     10  C   LIG A   1      -8.082   5.121 133.023  0.00  0.00    +0.010 C 
ENDROOT
BRANCH   6  11
ATOM     11  C   LIG A   1      -8.425   1.659 128.179  0.00  0.00    +0.338 C 
ATOM     12  O   LIG A   1      -7.774   0.661 128.477  0.00  0.00    -0.245 OA
BRANCH  11  13
ATOM     13  O   LIG A   1      -9.197   1.808 127.079  0.00  0.00    -0.465 OA
ATOM     14  C   LIG A   1      -8.557   1.619 125.817  0.00  0.00    +0.280 C 
ENDBRANCH  11  13
ENDBRANCH   6  11
BRANCH   8  15
ATOM     15  O   LIG A   1      -9.871   2.922 133.353  0.00  0.00    -0.392 OA
ATOM     16  H   LIG A   1      -9.567   3.482 134.088  0.00  0.00    +0.210 HD
ENDBRANCH   8  15
BRANCH   3  17
ATOM     17  O   LIG A   1      -9.967   5.651 128.996  0.00  0.00    -0.310 OA
BRANCH  17  18
ATOM     18  C   LIG A   1     -10.081   6.971 128.476  0.00  0.00    +0.286 C 
ATOM     19  O   LIG A   1     -10.264   7.945 129.510  0.00  0.00    -0.340 OA
ATOM     20  C   LIG A   1     -11.571   8.015 130.097  0.00  0.00    +0.178 C 
ATOM     21  C   LIG A   1     -12.662   8.198 129.029  0.00  0.00    +0.177 C 
ATOM     22  C   LIG A   1     -12.603   7.083 127.980  0.00  0.00    +0.179 C 
ATOM     23  C   LIG A   1     -11.186   7.010 127.382  0.00  0.00    +0.201 C 
BRANCH  22  24
ATOM     24  O   LIG A   1     -13.019   5.843 128.552  0.00  0.00    -0.386 OA
ATOM     25  H   LIG A   1     -13.876   5.608 128.156  0.00  0.00    +0.210 HD
ENDBRANCH  22  24
BRANCH  21  26
ATOM     26  O   LIG A   1     -12.453   9.458 128.350  0.00  0.00    -0.387 OA
ATOM     27  H   LIG A   1     -11.807   9.959 128.883  0.00  0.00    +0.210 HD
ENDBRANCH  21  26
BRANCH  23  28
ATOM     28  O   LIG A   1     -10.983   8.141 126.511  0.00  0.00    -0.384 OA
ATOM     29  H   LIG A   1     -11.858   8.335 126.104  0.00  0.00    +0.210 HD
ENDBRANCH  23  28
BRANCH  20  30
ATOM     30  C   LIG A   1     -11.847   6.880 131.097  0.00  0.00    +0.190 C 
BRANCH  30  31
ATOM     31  O   LIG A   1     -13.192   6.936 131.563  0.00  0.00    -0.392 OA
ATOM     32  H   LIG A   1     -13.453   7.873 131.545  0.00  0.00    +0.209 HD
ENDBRANCH  30  31
ENDBRANCH  20  30
ENDBRANCH  17  18
ENDBRANCH   3  17
TORSDOF 10
ENDMDL
MODEL 4
REMARK VINA RESULT:      -6.9      1.629      2.083
REMARK  Name = NuBBE_106
REMARK  12 active torsions:
REMARK  status: ('A' for Active; 'I' for Inactive)
REMARK    1  A    between atoms: C_4  and  O_13
REMARK    2  A    between atoms: C_8  and  C_9
REMARK    3  A    between atoms: C_9  and  O_10
REMARK    4  A    between atoms: O_10  and  C_11
REMARK    5  A    between atoms: O_13  and  C_14
REMARK    6  A    between atoms: C_17  and  C_25
REMARK    7  A    between atoms: C_19  and  O_24
REMARK    8  A    between atoms: C_21  and  O_23
REMARK    9  A    between atoms: C_25  and  O_26
REMARK   10  A    between atoms: C_27  and  O_29
REMARK   11  A    between atoms: C_32  and  O_37
REMARK   12  A    between atoms: C_34  and  C_36
REMARK                            x       y       z     vdW  Elec       q    Type
REMARK                         _______ _______ _______ _____ _____    ______ ____
ROOT
ATOM      1  C   LIG A   1      -8.827   2.133 129.171  0.00  0.00    +0.041 C 
ATOM      2  C   LIG A   1      -9.245   2.775 130.518  0.00  0.00    +0.071 C 
ATOM      3  C   LIG A   1      -9.268   4.300 130.408  0.00  0.00    +0.313 C 
ATOM      4  O   LIG A   1      -7.980   4.810 130.037  0.00  0.00    -0.470 OA
ATOM      5  C   LIG A   1      -7.431   4.189 128.946  0.00  0.00    +0.201 C 
ATOM      6  C   LIG A   1      -7.808   2.996 128.456  0.00  0.00    +0.074 C 
ATOM      7  C   LIG A   1      -8.267   0.746 129.573  0.00  0.00    +0.040 C 
ATOM      8  C   LIG A   1      -8.203   0.723 131.106  0.00  0.00    +0.118 C 
ATOM      9  C   LIG A   1      -8.222   2.197 131.514  0.00  0.00    +0.024 C 
ATOM     10  C   LIG A   1      -8.573   2.444 132.973  0.00  0.00    +0.010 C 
ENDROOT
BRANCH   6  11
ATOM     11  C   LIG A   1      -7.261   2.540 127.157  0.00  0.00    +0.338 C 
ATOM     12  O   LIG A   1      -6.098   2.172 127.006  0.00  0.00    -0.245 OA
BRANCH  11  13
ATOM     13  O   LIG A   1      -8.205   2.612 126.192  0.00  0.00    -0.465 OA
ATOM     14  C   LIG A   1      -8.101   3.700 125.274  0.00  0.00    +0.280 C 
ENDBRANCH  11  13
ENDBRANCH   6  11
BRANCH   8  15
ATOM     15  O   LIG A   1      -9.352   0.056 131.619  0.00  0.00    -0.392 OA
ATOM     16  H   LIG A   1      -9.628   0.525 132.426  0.00  0.00    +0.210 HD
ENDBRANCH   8  15
BRANCH   3  17
ATOM     17  O   LIG A   1     -10.305   4.629 129.470  0.00  0.00    -0.310 OA
BRANCH  17  18
ATOM     18  C   LIG A   1     -11.461   5.205 130.067  0.00  0.00    +0.286 C 
ATOM     19  O   LIG A   1     -12.367   5.733 129.091  0.00  0.00    -0.340 OA
ATOM     20  C   LIG A   1     -11.999   6.982 128.490  0.00  0.00    +0.178 C 
ATOM     21  C   LIG A   1     -11.714   8.059 129.551  0.00  0.00    +0.177 C 
ATOM     22  C   LIG A   1     -10.631   7.596 130.531  0.00  0.00    +0.179 C 
ATOM     23  C   LIG A   1     -11.034   6.242 131.145  0.00  0.00    +0.201 C 
BRANCH  22  24
ATOM     24  O   LIG A   1      -9.362   7.544 129.879  0.00  0.00    -0.386 OA
ATOM     25  H   LIG A   1      -8.731   7.129 130.493  0.00  0.00    +0.210 HD
ENDBRANCH  22  24
BRANCH  21  26
ATOM     26  O   LIG A   1     -12.921   8.310 130.308  0.00  0.00    -0.387 OA
ATOM     27  H   LIG A   1     -12.812   9.185 130.724  0.00  0.00    +0.210 HD
ENDBRANCH  21  26
BRANCH  23  28
ATOM     28  O   LIG A   1     -12.107   6.451 132.086  0.00  0.00    -0.384 OA
ATOM     29  H   LIG A   1     -12.463   5.559 132.300  0.00  0.00    +0.210 HD
ENDBRANCH  23  28
BRANCH  20  30
ATOM     30  C   LIG A   1     -10.905   6.841 127.420  0.00  0.00    +0.190 C 
BRANCH  30  31
ATOM     31  O   LIG A   1     -11.476   6.827 126.115  0.00  0.00    -0.392 OA
ATOM     32  H   LIG A   1     -12.390   7.150 126.209  0.00  0.00    +0.209 HD
ENDBRANCH  30  31
ENDBRANCH  20  30
ENDBRANCH  17  18
ENDBRANCH   3  17
TORSDOF 10
ENDMDL
MODEL 5
REMARK VINA RESULT:      -6.8      4.749      7.420
REMARK  Name = NuBBE_106
REMARK  12 active torsions:
REMARK  status: ('A' for Active; 'I' for Inactive)
REMARK    1  A    between atoms: C_4  and  O_13
REMARK    2  A    between atoms: C_8  and  C_9
REMARK    3  A    between atoms: C_9  and  O_10
REMARK    4  A    between atoms: O_10  and  C_11
REMARK    5  A    between atoms: O_13  and  C_14
REMARK    6  A    between atoms: C_17  and  C_25
REMARK    7  A    between atoms: C_19  and  O_24
REMARK    8  A    between atoms: C_21  and  O_23
REMARK    9  A    between atoms: C_25  and  O_26
REMARK   10  A    between atoms: C_27  and  O_29
REMARK   11  A    between atoms: C_32  and  O_37
REMARK   12  A    between atoms: C_34  and  C_36
REMARK                            x       y       z     vdW  Elec       q    Type
REMARK                         _______ _______ _______ _____ _____    ______ ____
ROOT
ATOM      1  C   LIG A   1      -7.603  -1.914 125.089  0.00  0.00    +0.041 C 
ATOM      2  C   LIG A   1      -7.870  -1.326 126.497  0.00  0.00    +0.071 C 
ATOM      3  C   LIG A   1      -7.017  -0.080 126.735  0.00  0.00    +0.313 C 
ATOM      4  O   LIG A   1      -5.620  -0.381 126.622  0.00  0.00    -0.470 OA
ATOM      5  C   LIG A   1      -5.290  -1.063 125.479  0.00  0.00    +0.201 C 
ATOM      6  C   LIG A   1      -6.151  -1.732 124.695  0.00  0.00    +0.074 C 
ATOM      7  C   LIG A   1      -8.010  -3.403 125.219  0.00  0.00    +0.040 C 
ATOM      8  C   LIG A   1      -8.301  -3.653 126.704  0.00  0.00    +0.118 C 
ATOM      9  C   LIG A   1      -7.584  -2.515 127.433  0.00  0.00    +0.024 C 
ATOM     10  C   LIG A   1      -8.041  -2.296 128.867  0.00  0.00    +0.010 C 
ENDROOT
BRANCH   6  11
ATOM     11  C   LIG A   1      -5.687  -2.255 123.388  0.00  0.00    +0.338 C 
ATOM     12  O   LIG A   1      -6.294  -2.077 122.335  0.00  0.00    -0.245 OA
BRANCH  11  13
ATOM     13  O   LIG A   1      -4.539  -2.955 123.538  0.00  0.00    -0.465 OA
ATOM     14  C   LIG A   1      -4.669  -4.363 123.732  0.00  0.00    +0.280 C 
ENDBRANCH  11  13
ENDBRANCH   6  11
BRANCH   8  15
ATOM     15  O   LIG A   1      -9.704  -3.576 126.934  0.00  0.00    -0.392 OA
ATOM     16  H   LIG A   1     -10.140  -4.158 126.288  0.00  0.00    +0.210 HD
ENDBRANCH   8  15
BRANCH   3  17
ATOM     17  O   LIG A   1      -7.466   0.911 125.796  0.00  0.00    -0.310 OA
BRANCH  17  18
ATOM     18  C   LIG A   1      -8.376   1.856 126.346  0.00  0.00    +0.286 C 
ATOM     19  O   LIG A   1      -9.048   2.612 125.333  0.00  0.00    -0.340 OA
ATOM     20  C   LIG A   1      -8.285   3.648 124.698  0.00  0.00    +0.178 C 
ATOM     21  C   LIG A   1      -7.675   4.613 125.730  0.00  0.00    +0.177 C 
ATOM     22  C   LIG A   1      -6.814   3.860 126.749  0.00  0.00    +0.179 C 
ATOM     23  C   LIG A   1      -7.645   2.738 127.399  0.00  0.00    +0.201 C 
BRANCH  22  24
ATOM     24  O   LIG A   1      -5.625   3.371 126.130  0.00  0.00    -0.386 OA
ATOM     25  H   LIG A   1      -5.831   2.506 125.737  0.00  0.00    +0.210 HD
ENDBRANCH  22  24
BRANCH  21  26
ATOM     26  O   LIG A   1      -8.741   5.274 126.449  0.00  0.00    -0.387 OA
ATOM     27  H   LIG A   1      -8.335   5.689 127.232  0.00  0.00    +0.210 HD
ENDBRANCH  21  26
BRANCH  23  28
ATOM     28  O   LIG A   1      -8.601   3.323 128.307  0.00  0.00    -0.384 OA
ATOM     29  H   LIG A   1      -9.423   3.468 127.785  0.00  0.00    +0.210 HD
ENDBRANCH  23  28
BRANCH  20  30
ATOM     30  C   LIG A   1      -7.286   3.115 123.659  0.00  0.00    +0.190 C 
BRANCH  30  31
ATOM     31  O   LIG A   1      -6.396   4.146 123.242  0.00  0.00    -0.392 OA
ATOM     32  H   LIG A   1      -6.894   4.709 122.624  0.00  0.00    +0.209 HD
ENDBRANCH  30  31
ENDBRANCH  20  30
ENDBRANCH  17  18
ENDBRANCH   3  17
TORSDOF 10
ENDMDL
MODEL 6
REMARK VINA RESULT:      -6.7      1.916      3.699
REMARK  Name = NuBBE_106
REMARK  12 active torsions:
REMARK  status: ('A' for Active; 'I' for Inactive)
REMARK    1  A    between atoms: C_4  and  O_13
REMARK    2  A    between atoms: C_8  and  C_9
REMARK    3  A    between atoms: C_9  and  O_10
REMARK    4  A    between atoms: O_10  and  C_11
REMARK    5  A    between atoms: O_13  and  C_14
REMARK    6  A    between atoms: C_17  and  C_25
REMARK    7  A    between atoms: C_19  and  O_24
REMARK    8  A    between atoms: C_21  and  O_23
REMARK    9  A    between atoms: C_25  and  O_26
REMARK   10  A    between atoms: C_27  and  O_29
REMARK   11  A    between atoms: C_32  and  O_37
REMARK   12  A    between atoms: C_34  and  C_36
REMARK                            x       y       z     vdW  Elec       q    Type
REMARK                         _______ _______ _______ _____ _____    ______ ____
ROOT
ATOM      1  C   LIG A   1      -8.371   2.061 127.708  0.00  0.00    +0.041 C 
ATOM      2  C   LIG A   1      -7.954   2.490 129.137  0.00  0.00    +0.071 C 
ATOM      3  C   LIG A   1      -7.829   4.010 129.233  0.00  0.00    +0.313 C 
ATOM      4  O   LIG A   1      -6.857   4.507 128.303  0.00  0.00    -0.470 OA
ATOM      5  C   LIG A   1      -7.028   4.050 127.023  0.00  0.00    +0.201 C 
ATOM      6  C   LIG A   1      -7.757   2.977 126.670  0.00  0.00    +0.074 C 
ATOM      7  C   LIG A   1      -7.873   0.599 127.593  0.00  0.00    +0.040 C 
ATOM      8  C   LIG A   1      -7.040   0.316 128.850  0.00  0.00    +0.118 C 
ATOM      9  C   LIG A   1      -6.653   1.700 129.374  0.00  0.00    +0.024 C 
ATOM     10  C   LIG A   1      -6.174   1.718 130.817  0.00  0.00    +0.010 C 
ENDROOT
BRANCH   6  11
ATOM     11  C   LIG A   1      -8.015   2.716 125.234  0.00  0.00    +0.338 C 
ATOM     12  O   LIG A   1      -7.122   2.597 124.398  0.00  0.00    -0.245 OA
BRANCH  11  13
ATOM     13  O   LIG A   1      -9.344   2.657 124.994  0.00  0.00    -0.465 OA
ATOM     14  C   LIG A   1      -9.792   1.616 124.126  0.00  0.00    +0.280 C 
ENDBRANCH  11  13
ENDBRANCH   6  11
BRANCH   8  15
ATOM     15  O   LIG A   1      -7.842  -0.365 129.809  0.00  0.00    -0.392 OA
ATOM     16  H   LIG A   1      -8.433   0.291 130.217  0.00  0.00    +0.210 HD
ENDBRANCH   8  15
BRANCH   3  17
ATOM     17  O   LIG A   1      -9.145   4.546 129.023  0.00  0.00    -0.310 OA
BRANCH  17  18
ATOM     18  C   LIG A   1     -10.049   4.288 130.091  0.00  0.00    +0.286 C 
ATOM     19  O   LIG A   1     -11.384   4.705 129.782  0.00  0.00    -0.340 OA
ATOM     20  C   LIG A   1     -11.642   6.114 129.844  0.00  0.00    +0.178 C 
ATOM     21  C   LIG A   1     -11.228   6.706 131.203  0.00  0.00    +0.177 C 
ATOM     22  C   LIG A   1      -9.754   6.416 131.506  0.00  0.00    +0.179 C 
ATOM     23  C   LIG A   1      -9.495   4.901 131.409  0.00  0.00    +0.201 C 
BRANCH  22  24
ATOM     24  O   LIG A   1      -8.912   7.172 130.637  0.00  0.00    -0.386 OA
ATOM     25  H   LIG A   1      -8.335   6.545 130.166  0.00  0.00    +0.210 HD
ENDBRANCH  22  24
BRANCH  21  26
ATOM     26  O   LIG A   1     -12.025   6.099 132.246  0.00  0.00    -0.387 OA
ATOM     27  H   LIG A   1     -11.937   6.668 133.032  0.00  0.00    +0.210 HD
ENDBRANCH  21  26
BRANCH  23  28
ATOM     28  O   LIG A   1     -10.087   4.246 132.549  0.00  0.00    -0.384 OA
ATOM     29  H   LIG A   1     -10.620   3.501 132.192  0.00  0.00    +0.210 HD
ENDBRANCH  23  28
BRANCH  20  30
ATOM     30  C   LIG A   1     -11.104   6.883 128.627  0.00  0.00    +0.190 C 
BRANCH  30  31
ATOM     31  O   LIG A   1     -11.088   8.284 128.884  0.00  0.00    -0.392 OA
ATOM     32  H   LIG A   1     -10.610   8.407 129.723  0.00  0.00    +0.209 HD
ENDBRANCH  30  31
ENDBRANCH  20  30
ENDBRANCH  17  18
ENDBRANCH   3  17
TORSDOF 10
ENDMDL
MODEL 7
REMARK VINA RESULT:      -6.7      4.788      7.817
REMARK  Name = NuBBE_106
REMARK  12 active torsions:
REMARK  status: ('A' for Active; 'I' for Inactive)
REMARK    1  A    between atoms: C_4  and  O_13
REMARK    2  A    between atoms: C_8  and  C_9
REMARK    3  A    between atoms: C_9  and  O_10
REMARK    4  A    between atoms: O_10  and  C_11
REMARK    5  A    between atoms: O_13  and  C_14
REMARK    6  A    between atoms: C_17  and  C_25
REMARK    7  A    between atoms: C_19  and  O_24
REMARK    8  A    between atoms: C_21  and  O_23
REMARK    9  A    between atoms: C_25  and  O_26
REMARK   10  A    between atoms: C_27  and  O_29
REMARK   11  A    between atoms: C_32  and  O_37
REMARK   12  A    between atoms: C_34  and  C_36
REMARK                            x       y       z     vdW  Elec       q    Type
REMARK                         _______ _______ _______ _____ _____    ______ ____
ROOT
ATOM      1  C   LIG A   1      -6.022  -1.541 125.700  0.00  0.00    +0.041 C 
ATOM      2  C   LIG A   1      -7.015  -1.020 124.632  0.00  0.00    +0.071 C 
ATOM      3  C   LIG A   1      -8.115  -0.177 125.280  0.00  0.00    +0.313 C 
ATOM      4  O   LIG A   1      -8.844  -0.939 126.251  0.00  0.00    -0.470 OA
ATOM      5  C   LIG A   1      -8.049  -1.593 127.155  0.00  0.00    +0.201 C 
ATOM      6  C   LIG A   1      -6.738  -1.848 126.999  0.00  0.00    +0.074 C 
ATOM      7  C   LIG A   1      -5.393  -2.797 125.048  0.00  0.00    +0.040 C 
ATOM      8  C   LIG A   1      -6.168  -3.055 123.749  0.00  0.00    +0.118 C 
ATOM      9  C   LIG A   1      -7.490  -2.308 123.936  0.00  0.00    +0.024 C 
ATOM     10  C   LIG A   1      -8.266  -2.066 122.650  0.00  0.00    +0.010 C 
ENDROOT
BRANCH   6  11
ATOM     11  C   LIG A   1      -5.963  -2.386 128.142  0.00  0.00    +0.338 C 
ATOM     12  O   LIG A   1      -4.774  -2.139 128.327  0.00  0.00    -0.245 OA
BRANCH  11  13
ATOM     13  O   LIG A   1      -6.741  -3.185 128.908  0.00  0.00    -0.465 OA
ATOM     14  C   LIG A   1      -6.128  -3.757 130.062  0.00  0.00    +0.280 C 
ENDBRANCH  11  13
ENDBRANCH   6  11
BRANCH   8  15
ATOM     15  O   LIG A   1      -5.447  -2.510 122.648  0.00  0.00    -0.392 OA
ATOM     16  H   LIG A   1      -5.887  -2.807 121.833  0.00  0.00    +0.210 HD
ENDBRANCH   8  15
BRANCH   3  17
ATOM     17  O   LIG A   1      -7.473   0.984 125.830  0.00  0.00    -0.310 OA
BRANCH  17  18
ATOM     18  C   LIG A   1      -8.380   1.962 126.328  0.00  0.00    +0.286 C 
ATOM     19  O   LIG A   1      -9.094   2.622 125.278  0.00  0.00    -0.340 OA
ATOM     20  C   LIG A   1      -8.366   3.610 124.535  0.00  0.00    +0.178 C 
ATOM     21  C   LIG A   1      -7.737   4.665 125.462  0.00  0.00    +0.177 C 
ATOM     22  C   LIG A   1      -6.835   4.011 126.513  0.00  0.00    +0.179 C 
ATOM     23  C   LIG A   1      -7.630   2.937 127.280  0.00  0.00    +0.201 C 
BRANCH  22  24
ATOM     24  O   LIG A   1      -5.659   3.486 125.898  0.00  0.00    -0.386 OA
ATOM     25  H   LIG A   1      -5.033   3.256 126.606  0.00  0.00    +0.210 HD
ENDBRANCH  22  24
BRANCH  21  26
ATOM     26  O   LIG A   1      -8.791   5.372 126.157  0.00  0.00    -0.387 OA
ATOM     27  H   LIG A   1      -8.814   5.016 127.065  0.00  0.00    +0.210 HD
ENDBRANCH  21  26
BRANCH  23  28
ATOM     28  O   LIG A   1      -8.565   3.585 128.166  0.00  0.00    -0.384 OA
ATOM     29  H   LIG A   1      -8.052   3.843 128.965  0.00  0.00    +0.210 HD
ENDBRANCH  23  28
BRANCH  20  30
ATOM     30  C   LIG A   1      -7.392   3.004 123.512  0.00  0.00    +0.190 C 
BRANCH  30  31
ATOM     31  O   LIG A   1      -6.531   4.006 122.981  0.00  0.00    -0.392 OA
ATOM     32  H   LIG A   1      -5.627   3.647 123.022  0.00  0.00    +0.209 HD
ENDBRANCH  30  31
ENDBRANCH  20  30
ENDBRANCH  17  18
ENDBRANCH   3  17
TORSDOF 10
ENDMDL
MODEL 8
REMARK VINA RESULT:      -6.7      5.491      8.352
REMARK  Name = NuBBE_106
REMARK  12 active torsions:
REMARK  status: ('A' for Active; 'I' for Inactive)
REMARK    1  A    between atoms: C_4  and  O_13
REMARK    2  A    between atoms: C_8  and  C_9
REMARK    3  A    between atoms: C_9  and  O_10
REMARK    4  A    between atoms: O_10  and  C_11
REMARK    5  A    between atoms: O_13  and  C_14
REMARK    6  A    between atoms: C_17  and  C_25
REMARK    7  A    between atoms: C_19  and  O_24
REMARK    8  A    between atoms: C_21  and  O_23
REMARK    9  A    between atoms: C_25  and  O_26
REMARK   10  A    between atoms: C_27  and  O_29
REMARK   11  A    between atoms: C_32  and  O_37
REMARK   12  A    between atoms: C_34  and  C_36
REMARK                            x       y       z     vdW  Elec       q    Type
REMARK                         _______ _______ _______ _____ _____    ______ ____
ROOT
ATOM      1  C   LIG A   1      -6.126  -1.374 125.561  0.00  0.00    +0.041 C 
ATOM      2  C   LIG A   1      -7.161  -0.950 124.490  0.00  0.00    +0.071 C 
ATOM      3  C   LIG A   1      -8.289  -0.131 125.120  0.00  0.00    +0.313 C 
ATOM      4  O   LIG A   1      -8.964  -0.882 126.138  0.00  0.00    -0.470 OA
ATOM      5  C   LIG A   1      -8.122  -1.455 127.055  0.00  0.00    +0.201 C 
ATOM      6  C   LIG A   1      -6.804  -1.654 126.886  0.00  0.00    +0.074 C 
ATOM      7  C   LIG A   1      -5.448  -2.627 124.954  0.00  0.00    +0.040 C 
ATOM      8  C   LIG A   1      -6.232  -2.981 123.683  0.00  0.00    +0.118 C 
ATOM      9  C   LIG A   1      -7.585  -2.290 123.861  0.00  0.00    +0.024 C 
ATOM     10  C   LIG A   1      -8.394  -2.144 122.581  0.00  0.00    +0.010 C 
ENDROOT
BRANCH   6  11
ATOM     11  C   LIG A   1      -5.985  -2.103 128.036  0.00  0.00    +0.338 C 
ATOM     12  O   LIG A   1      -4.870  -1.652 128.287  0.00  0.00    -0.245 OA
BRANCH  11  13
ATOM     13  O   LIG A   1      -6.628  -3.070 128.728  0.00  0.00    -0.465 OA
ATOM     14  C   LIG A   1      -6.244  -3.245 130.092  0.00  0.00    +0.280 C 
ENDBRANCH  11  13
ENDBRANCH   6  11
BRANCH   8  15
ATOM     15  O   LIG A   1      -5.557  -2.453 122.545  0.00  0.00    -0.392 OA
ATOM     16  H   LIG A   1      -5.297  -1.540 122.756  0.00  0.00    +0.210 HD
ENDBRANCH   8  15
BRANCH   3  17
ATOM     17  O   LIG A   1      -7.695   1.083 125.605  0.00  0.00    -0.310 OA
BRANCH  17  18
ATOM     18  C   LIG A   1      -7.318   1.991 124.577  0.00  0.00    +0.286 C 
ATOM     19  O   LIG A   1      -5.930   2.336 124.642  0.00  0.00    -0.340 OA
ATOM     20  C   LIG A   1      -5.551   3.267 125.665  0.00  0.00    +0.178 C 
ATOM     21  C   LIG A   1      -6.391   4.555 125.597  0.00  0.00    +0.177 C 
ATOM     22  C   LIG A   1      -7.888   4.244 125.682  0.00  0.00    +0.179 C 
ATOM     23  C   LIG A   1      -8.266   3.224 124.591  0.00  0.00    +0.201 C 
BRANCH  22  24
ATOM     24  O   LIG A   1      -8.227   3.793 126.992  0.00  0.00    -0.386 OA
ATOM     25  H   LIG A   1      -9.171   3.556 126.989  0.00  0.00    +0.210 HD
ENDBRANCH  22  24
BRANCH  21  26
ATOM     26  O   LIG A   1      -6.143   5.215 124.334  0.00  0.00    -0.387 OA
ATOM     27  H   LIG A   1      -6.180   4.524 123.646  0.00  0.00    +0.210 HD
ENDBRANCH  21  26
BRANCH  23  28
ATOM     28  O   LIG A   1      -8.250   3.879 123.306  0.00  0.00    -0.384 OA
ATOM     29  H   LIG A   1      -9.179   3.868 122.980  0.00  0.00    +0.210 HD
ENDBRANCH  23  28
BRANCH  20  30
ATOM     30  C   LIG A   1      -5.475   2.633 127.063  0.00  0.00    +0.190 C 
BRANCH  30  31
ATOM     31  O   LIG A   1      -4.811   1.374 127.009  0.00  0.00    -0.392 OA
ATOM     32  H   LIG A   1      -5.390   0.736 127.462  0.00  0.00    +0.209 HD
ENDBRANCH  30  31
ENDBRANCH  20  30
ENDBRANCH  17  18
ENDBRANCH   3  17
TORSDOF 10
ENDMDL
MODEL 9
REMARK VINA RESULT:      -6.7      1.728      5.906
REMARK  Name = NuBBE_106
REMARK  12 active torsions:
REMARK  status: ('A' for Active; 'I' for Inactive)
REMARK    1  A    between atoms: C_4  and  O_13
REMARK    2  A    between atoms: C_8  and  C_9
REMARK    3  A    between atoms: C_9  and  O_10
REMARK    4  A    between atoms: O_10  and  C_11
REMARK    5  A    between atoms: O_13  and  C_14
REMARK    6  A    between atoms: C_17  and  C_25
REMARK    7  A    between atoms: C_19  and  O_24
REMARK    8  A    between atoms: C_21  and  O_23
REMARK    9  A    between atoms: C_25  and  O_26
REMARK   10  A    between atoms: C_27  and  O_29
REMARK   11  A    between atoms: C_32  and  O_37
REMARK   12  A    between atoms: C_34  and  C_36
REMARK                            x       y       z     vdW  Elec       q    Type
REMARK                         _______ _______ _______ _____ _____    ______ ____
ROOT
ATOM      1  C   LIG A   1      -8.989   5.682 130.414  0.00  0.00    +0.041 C 
ATOM      2  C   LIG A   1      -8.937   4.284 131.080  0.00  0.00    +0.071 C 
ATOM      3  C   LIG A   1      -9.793   3.282 130.305  0.00  0.00    +0.313 C 
ATOM      4  O   LIG A   1     -11.160   3.710 130.244  0.00  0.00    -0.470 OA
ATOM      5  C   LIG A   1     -11.318   5.006 129.827  0.00  0.00    +0.201 C 
ATOM      6  C   LIG A   1     -10.356   5.944 129.816  0.00  0.00    +0.074 C 
ATOM      7  C   LIG A   1      -8.635   6.659 131.562  0.00  0.00    +0.040 C 
ATOM      8  C   LIG A   1      -8.588   5.828 132.851  0.00  0.00    +0.118 C 
ATOM      9  C   LIG A   1      -9.390   4.568 132.525  0.00  0.00    +0.024 C 
ATOM     10  C   LIG A   1      -9.162   3.408 133.482  0.00  0.00    +0.010 C 
ENDROOT
BRANCH   6  11
ATOM     11  C   LIG A   1     -10.618   7.244 129.154  0.00  0.00    +0.338 C 
ATOM     12  O   LIG A   1     -11.289   8.138 129.664  0.00  0.00    -0.245 OA
BRANCH  11  13
ATOM     13  O   LIG A   1     -10.040   7.279 127.932  0.00  0.00    -0.465 OA
ATOM     14  C   LIG A   1     -10.862   7.710 126.848  0.00  0.00    +0.280 C 
ENDBRANCH  11  13
ENDBRANCH   6  11
BRANCH   8  15
ATOM     15  O   LIG A   1      -7.238   5.488 133.148  0.00  0.00    -0.392 OA
ATOM     16  H   LIG A   1      -6.724   5.579 132.327  0.00  0.00    +0.210 HD
ENDBRANCH   8  15
BRANCH   3  17
ATOM     17  O   LIG A   1      -9.184   3.132 129.013  0.00  0.00    -0.310 OA
BRANCH  17  18
ATOM     18  C   LIG A   1      -7.903   2.513 129.049  0.00  0.00    +0.286 C 
ATOM     19  O   LIG A   1      -6.930   3.242 128.291  0.00  0.00    -0.340 OA
ATOM     20  C   LIG A   1      -7.003   3.111 126.865  0.00  0.00    +0.178 C 
ATOM     21  C   LIG A   1      -6.983   1.636 126.430  0.00  0.00    +0.177 C 
ATOM     22  C   LIG A   1      -8.112   0.846 127.101  0.00  0.00    +0.179 C 
ATOM     23  C   LIG A   1      -8.028   1.021 128.629  0.00  0.00    +0.201 C 
BRANCH  22  24
ATOM     24  O   LIG A   1      -9.376   1.245 126.573  0.00  0.00    -0.386 OA
ATOM     25  H   LIG A   1      -9.957   0.465 126.578  0.00  0.00    +0.210 HD
ENDBRANCH  22  24
BRANCH  21  26
ATOM     26  O   LIG A   1      -5.726   1.042 126.830  0.00  0.00    -0.387 OA
ATOM     27  H   LIG A   1      -5.136   1.091 126.055  0.00  0.00    +0.210 HD
ENDBRANCH  21  26
BRANCH  23  28
ATOM     28  O   LIG A   1      -6.905   0.268 129.129  0.00  0.00    -0.384 OA
ATOM     29  H   LIG A   1      -6.630  -0.333 128.400  0.00  0.00    +0.210 HD
ENDBRANCH  23  28
BRANCH  20  30
ATOM     30  C   LIG A   1      -8.135   3.942 126.238  0.00  0.00    +0.190 C 
BRANCH  30  31
ATOM     31  O   LIG A   1      -8.378   5.119 127.002  0.00  0.00    -0.392 OA
ATOM     32  H   LIG A   1      -7.703   5.138 127.704  0.00  0.00    +0.209 HD
ENDBRANCH  30  31
ENDBRANCH  20  30
ENDBRANCH  17  18
ENDBRANCH   3  17
TORSDOF 10
ENDMDL
