MODEL 1
REMARK VINA RESULT:      -5.3      0.000      0.000
REMARK  Name = NuBBE_1171
REMARK  4 active torsions:
REMARK  status: ('A' for Active; 'I' for Inactive)
REMARK    1  A    between atoms: N_3  and  C_4
REMARK    2  A    between atoms: C_7  and  O_8
REMARK    3  A    between atoms: O_8  and  C_9
REMARK    4  A    between atoms: C_10  and  C_11
REMARK                            x       y       z     vdW  Elec       q    Type
REMARK                         _______ _______ _______ _____ _____    ______ ____
ROOT
ATOM      1  O   LIG A   1      -9.813   6.045 128.475  0.00  0.00    -0.266 OA
ATOM      2  C   LIG A   1     -10.700   6.680 129.044  0.00  0.00    +0.272 A 
ATOM      3  N   LIG A   1     -11.015   6.501 130.392  0.00  0.00    -0.317 N 
ATOM      4  C   LIG A   1     -10.277   5.521 131.178  0.00  0.00    +0.152 C 
ATOM      5  C   LIG A   1     -12.019   7.213 131.009  0.00  0.00    +0.092 A 
ATOM      6  C   LIG A   1     -12.732   8.117 130.335  0.00  0.00    +0.065 A 
ATOM      7  C   LIG A   1     -12.480   8.383 128.932  0.00  0.00    +0.144 A 
ATOM      8  C   LIG A   1     -11.503   7.703 128.287  0.00  0.00    +0.157 A 
ENDROOT
BRANCH   7   9
ATOM      9  O   LIG A   1     -13.345   9.349 128.484  0.00  0.00    -0.494 OA
ATOM     10  C   LIG A   1     -13.550  10.567 129.185  0.00  0.00    +0.277 C 
ENDBRANCH   7   9
BRANCH   8  11
ATOM     11  C   LIG A   1     -11.158   7.871 126.921  0.00  0.00    +0.108 C 
ATOM     12  N   LIG A   1     -10.889   7.962 125.794  0.00  0.00    -0.191 NA
ENDBRANCH   8  11
TORSDOF 2
ENDMDL
MODEL 2
REMARK VINA RESULT:      -4.9      1.365      1.460
REMARK  Name = NuBBE_1171
REMARK  4 active torsions:
REMARK  status: ('A' for Active; 'I' for Inactive)
REMARK    1  A    between atoms: N_3  and  C_4
REMARK    2  A    between atoms: C_7  and  O_8
REMARK    3  A    between atoms: O_8  and  C_9
REMARK    4  A    between atoms: C_10  and  C_11
REMARK                            x       y       z     vdW  Elec       q    Type
REMARK                         _______ _______ _______ _____ _____    ______ ____
ROOT
ATOM      1  O   LIG A   1      -8.765   6.046 129.687  0.00  0.00    -0.266 OA
ATOM      2  C   LIG A   1      -9.899   6.358 130.047  0.00  0.00    +0.272 A 
ATOM      3  N   LIG A   1     -10.309   6.320 131.380  0.00  0.00    -0.317 N 
ATOM      4  C   LIG A   1      -9.369   5.890 132.408  0.00  0.00    +0.152 C 
ATOM      5  C   LIG A   1     -11.586   6.662 131.764  0.00  0.00    +0.092 A 
ATOM      6  C   LIG A   1     -12.489   7.055 130.864  0.00  0.00    +0.065 A 
ATOM      7  C   LIG A   1     -12.163   7.136 129.453  0.00  0.00    +0.144 A 
ATOM      8  C   LIG A   1     -10.919   6.805 129.034  0.00  0.00    +0.157 A 
ENDROOT
BRANCH   7   9
ATOM      9  O   LIG A   1     -13.261   7.564 128.751  0.00  0.00    -0.494 OA
ATOM     10  C   LIG A   1     -13.438   8.922 128.376  0.00  0.00    +0.277 C 
ENDBRANCH   7   9
BRANCH   8  11
ATOM     11  C   LIG A   1     -10.475   6.843 127.687  0.00  0.00    +0.108 C 
ATOM     12  N   LIG A   1     -10.151   6.847 126.571  0.00  0.00    -0.191 NA
ENDBRANCH   8  11
TORSDOF 2
ENDMDL
MODEL 3
REMARK VINA RESULT:      -4.9      2.212      4.363
REMARK  Name = NuBBE_1171
REMARK  4 active torsions:
REMARK  status: ('A' for Active; 'I' for Inactive)
REMARK    1  A    between atoms: N_3  and  C_4
REMARK    2  A    between atoms: C_7  and  O_8
REMARK    3  A    between atoms: O_8  and  C_9
REMARK    4  A    between atoms: C_10  and  C_11
REMARK                            x       y       z     vdW  Elec       q    Type
REMARK                         _______ _______ _______ _____ _____    ______ ____
ROOT
ATOM      1  O   LIG A   1      -9.807   8.272 128.668  0.00  0.00    -0.266 OA
ATOM      2  C   LIG A   1     -10.462   7.713 129.548  0.00  0.00    +0.272 A 
ATOM      3  N   LIG A   1     -11.857   7.689 129.556  0.00  0.00    -0.317 N 
ATOM      4  C   LIG A   1     -12.592   8.353 128.487  0.00  0.00    +0.152 C 
ATOM      5  C   LIG A   1     -12.572   7.068 130.554  0.00  0.00    +0.092 A 
ATOM      6  C   LIG A   1     -11.950   6.451 131.561  0.00  0.00    +0.065 A 
ATOM      7  C   LIG A   1     -10.503   6.412 131.643  0.00  0.00    +0.144 A 
ATOM      8  C   LIG A   1      -9.763   7.013 130.682  0.00  0.00    +0.157 A 
ENDROOT
BRANCH   7   9
ATOM      9  O   LIG A   1     -10.124   5.721 132.765  0.00  0.00    -0.494 OA
ATOM     10  C   LIG A   1      -9.438   4.480 132.696  0.00  0.00    +0.277 C 
ENDBRANCH   7   9
BRANCH   8  11
ATOM     11  C   LIG A   1      -8.344   7.045 130.646  0.00  0.00    +0.108 C 
ATOM     12  N   LIG A   1      -7.182   7.032 130.646  0.00  0.00    -0.191 NA
ENDBRANCH   8  11
TORSDOF 2
ENDMDL
MODEL 4
REMARK VINA RESULT:      -4.8      1.295      3.586
REMARK  Name = NuBBE_1171
REMARK  4 active torsions:
REMARK  status: ('A' for Active; 'I' for Inactive)
REMARK    1  A    between atoms: N_3  and  C_4
REMARK    2  A    between atoms: C_7  and  O_8
REMARK    3  A    between atoms: O_8  and  C_9
REMARK    4  A    between atoms: C_10  and  C_11
REMARK                            x       y       z     vdW  Elec       q    Type
REMARK                         _______ _______ _______ _____ _____    ______ ____
ROOT
ATOM      1  O   LIG A   1     -12.746   8.587 128.763  0.00  0.00    -0.266 OA
ATOM      2  C   LIG A   1     -11.960   7.758 129.219  0.00  0.00    +0.272 A 
ATOM      3  N   LIG A   1     -12.000   7.323 130.544  0.00  0.00    -0.317 N 
ATOM      4  C   LIG A   1     -13.007   7.864 131.447  0.00  0.00    +0.152 C 
ATOM      5  C   LIG A   1     -11.104   6.402 131.039  0.00  0.00    +0.092 A 
ATOM      6  C   LIG A   1     -10.157   5.879 130.258  0.00  0.00    +0.065 A 
ATOM      7  C   LIG A   1     -10.033   6.259 128.865  0.00  0.00    +0.144 A 
ATOM      8  C   LIG A   1     -10.892   7.164 128.339  0.00  0.00    +0.157 A 
ENDROOT
BRANCH   7   9
ATOM      9  O   LIG A   1      -8.987   5.580 128.294  0.00  0.00    -0.494 OA
ATOM     10  C   LIG A   1      -8.317   4.521 128.960  0.00  0.00    +0.277 C 
ENDBRANCH   7   9
BRANCH   8  11
ATOM     11  C   LIG A   1     -10.878   7.617 126.995  0.00  0.00    +0.108 C 
ATOM     12  N   LIG A   1     -10.882   7.944 125.879  0.00  0.00    -0.191 NA
ENDBRANCH   8  11
TORSDOF 2
ENDMDL
MODEL 5
REMARK VINA RESULT:      -4.7      1.956      3.734
REMARK  Name = NuBBE_1171
REMARK  4 active torsions:
REMARK  status: ('A' for Active; 'I' for Inactive)
REMARK    1  A    between atoms: N_3  and  C_4
REMARK    2  A    between atoms: C_7  and  O_8
REMARK    3  A    between atoms: O_8  and  C_9
REMARK    4  A    between atoms: C_10  and  C_11
REMARK                            x       y       z     vdW  Elec       q    Type
REMARK                         _______ _______ _______ _____ _____    ______ ____
ROOT
ATOM      1  O   LIG A   1     -11.312   8.596 127.833  0.00  0.00    -0.266 OA
ATOM      2  C   LIG A   1     -11.686   8.236 128.949  0.00  0.00    +0.272 A 
ATOM      3  N   LIG A   1     -12.700   8.885 129.654  0.00  0.00    -0.317 N 
ATOM      4  C   LIG A   1     -13.357  10.044 129.065  0.00  0.00    +0.152 C 
ATOM      5  C   LIG A   1     -13.098   8.474 130.907  0.00  0.00    +0.092 A 
ATOM      6  C   LIG A   1     -12.526   7.423 131.497  0.00  0.00    +0.065 A 
ATOM      7  C   LIG A   1     -11.467   6.676 130.847  0.00  0.00    +0.144 A 
ATOM      8  C   LIG A   1     -11.045   7.049 129.616  0.00  0.00    +0.157 A 
ENDROOT
BRANCH   7   9
ATOM      9  O   LIG A   1     -11.057   5.653 131.662  0.00  0.00    -0.494 OA
ATOM     10  C   LIG A   1      -9.975   5.794 132.571  0.00  0.00    +0.277 C 
ENDBRANCH   7   9
BRANCH   8  11
ATOM     11  C   LIG A   1     -10.022   6.403 128.874  0.00  0.00    +0.108 C 
ATOM     12  N   LIG A   1      -9.217   5.844 128.248  0.00  0.00    -0.191 NA
ENDBRANCH   8  11
TORSDOF 2
ENDMDL
MODEL 6
REMARK VINA RESULT:      -4.6      1.751      4.669
REMARK  Name = NuBBE_1171
REMARK  4 active torsions:
REMARK  status: ('A' for Active; 'I' for Inactive)
REMARK    1  A    between atoms: N_3  and  C_4
REMARK    2  A    between atoms: C_7  and  O_8
REMARK    3  A    between atoms: O_8  and  C_9
REMARK    4  A    between atoms: C_10  and  C_11
REMARK                            x       y       z     vdW  Elec       q    Type
REMARK                         _______ _______ _______ _____ _____    ______ ____
ROOT
ATOM      1  O   LIG A   1     -12.850   8.170 130.887  0.00  0.00    -0.266 OA
ATOM      2  C   LIG A   1     -12.091   7.914 129.953  0.00  0.00    +0.272 A 
ATOM      3  N   LIG A   1     -12.309   8.371 128.652  0.00  0.00    -0.317 N 
ATOM      4  C   LIG A   1     -13.483   9.184 128.364  0.00  0.00    +0.152 C 
ATOM      5  C   LIG A   1     -11.454   8.065 127.617  0.00  0.00    +0.092 A 
ATOM      6  C   LIG A   1     -10.368   7.318 127.823  0.00  0.00    +0.065 A 
ATOM      7  C   LIG A   1     -10.047   6.800 129.138  0.00  0.00    +0.144 A 
ATOM      8  C   LIG A   1     -10.863   7.075 130.183  0.00  0.00    +0.157 A 
ENDROOT
BRANCH   7   9
ATOM      9  O   LIG A   1      -8.887   6.070 129.075  0.00  0.00    -0.494 OA
ATOM     10  C   LIG A   1      -8.871   4.658 129.223  0.00  0.00    +0.277 C 
ENDBRANCH   7   9
BRANCH   8  11
ATOM     11  C   LIG A   1     -10.660   6.630 131.515  0.00  0.00    +0.108 C 
ATOM     12  N   LIG A   1     -10.459   6.236 132.590  0.00  0.00    -0.191 NA
ENDBRANCH   8  11
TORSDOF 2
ENDMDL
MODEL 7
REMARK VINA RESULT:      -4.5      8.833     10.034
REMARK  Name = NuBBE_1171
REMARK  4 active torsions:
REMARK  status: ('A' for Active; 'I' for Inactive)
REMARK    1  A    between atoms: N_3  and  C_4
REMARK    2  A    between atoms: C_7  and  O_8
REMARK    3  A    between atoms: O_8  and  C_9
REMARK    4  A    between atoms: C_10  and  C_11
REMARK                            x       y       z     vdW  Elec       q    Type
REMARK                         _______ _______ _______ _____ _____    ______ ____
ROOT
ATOM      1  O   LIG A   1      -4.792   4.388 121.960  0.00  0.00    -0.266 OA
ATOM      2  C   LIG A   1      -5.957   4.091 121.699  0.00  0.00    +0.272 A 
ATOM      3  N   LIG A   1      -6.547   4.353 120.461  0.00  0.00    -0.317 N 
ATOM      4  C   LIG A   1      -5.768   5.009 119.419  0.00  0.00    +0.152 C 
ATOM      5  C   LIG A   1      -7.856   4.023 120.190  0.00  0.00    +0.092 A 
ATOM      6  C   LIG A   1      -8.617   3.427 121.110  0.00  0.00    +0.065 A 
ATOM      7  C   LIG A   1      -8.099   3.106 122.425  0.00  0.00    +0.144 A 
ATOM      8  C   LIG A   1      -6.817   3.416 122.733  0.00  0.00    +0.157 A 
ENDROOT
BRANCH   7   9
ATOM      9  O   LIG A   1      -9.079   2.502 123.171  0.00  0.00    -0.494 OA
ATOM     10  C   LIG A   1      -9.690   1.283 122.776  0.00  0.00    +0.277 C 
ENDBRANCH   7   9
BRANCH   8  11
ATOM     11  C   LIG A   1      -6.192   3.154 123.980  0.00  0.00    +0.108 C 
ATOM     12  N   LIG A   1      -5.715   2.966 125.023  0.00  0.00    -0.191 NA
ENDBRANCH   8  11
TORSDOF 2
ENDMDL
MODEL 8
REMARK VINA RESULT:      -4.3      9.818     11.105
REMARK  Name = NuBBE_1171
REMARK  4 active torsions:
REMARK  status: ('A' for Active; 'I' for Inactive)
REMARK    1  A    between atoms: N_3  and  C_4
REMARK    2  A    between atoms: C_7  and  O_8
REMARK    3  A    between atoms: O_8  and  C_9
REMARK    4  A    between atoms: C_10  and  C_11
REMARK                            x       y       z     vdW  Elec       q    Type
REMARK                         _______ _______ _______ _____ _____    ______ ____
ROOT
ATOM      1  O   LIG A   1      -9.902  -2.743 123.550  0.00  0.00    -0.266 OA
ATOM      2  C   LIG A   1      -8.810  -2.201 123.721  0.00  0.00    +0.272 A 
ATOM      3  N   LIG A   1      -7.710  -2.868 124.262  0.00  0.00    -0.317 N 
ATOM      4  C   LIG A   1      -7.838  -4.266 124.652  0.00  0.00    +0.152 C 
ATOM      5  C   LIG A   1      -6.499  -2.242 124.456  0.00  0.00    +0.092 A 
ATOM      6  C   LIG A   1      -6.328  -0.962 124.123  0.00  0.00    +0.065 A 
ATOM      7  C   LIG A   1      -7.406  -0.181 123.548  0.00  0.00    +0.144 A 
ATOM      8  C   LIG A   1      -8.614  -0.758 123.343  0.00  0.00    +0.157 A 
ENDROOT
BRANCH   7   9
ATOM      9  O   LIG A   1      -6.969   1.095 123.300  0.00  0.00    -0.494 OA
ATOM     10  C   LIG A   1      -6.723   2.028 124.342  0.00  0.00    +0.277 C 
ENDBRANCH   7   9
BRANCH   8  11
ATOM     11  C   LIG A   1      -9.745  -0.106 122.788  0.00  0.00    +0.108 C 
ATOM     12  N   LIG A   1     -10.691   0.433 122.379  0.00  0.00    -0.191 NA
ENDBRANCH   8  11
TORSDOF 2
ENDMDL
MODEL 9
REMARK VINA RESULT:      -4.3      9.650     11.424
REMARK  Name = NuBBE_1171
REMARK  4 active torsions:
REMARK  status: ('A' for Active; 'I' for Inactive)
REMARK    1  A    between atoms: N_3  and  C_4
REMARK    2  A    between atoms: C_7  and  O_8
REMARK    3  A    between atoms: O_8  and  C_9
REMARK    4  A    between atoms: C_10  and  C_11
REMARK                            x       y       z     vdW  Elec       q    Type
REMARK                         _______ _______ _______ _____ _____    ______ ____
ROOT
ATOM      1  O   LIG A   1     -10.365  -0.196 122.627  0.00  0.00    -0.266 OA
ATOM      2  C   LIG A   1      -9.241  -0.155 123.127  0.00  0.00    +0.272 A 
ATOM      3  N   LIG A   1      -8.524   1.032 123.284  0.00  0.00    -0.317 N 
ATOM      4  C   LIG A   1      -9.112   2.290 122.840  0.00  0.00    +0.152 C 
ATOM      5  C   LIG A   1      -7.263   1.058 123.836  0.00  0.00    +0.092 A 
ATOM      6  C   LIG A   1      -6.675  -0.065 124.252  0.00  0.00    +0.065 A 
ATOM      7  C   LIG A   1      -7.336  -1.350 124.140  0.00  0.00    +0.144 A 
ATOM      8  C   LIG A   1      -8.576  -1.419 123.601  0.00  0.00    +0.157 A 
ENDROOT
BRANCH   7   9
ATOM      9  O   LIG A   1      -6.520  -2.333 124.638  0.00  0.00    -0.494 OA
ATOM     10  C   LIG A   1      -5.213  -2.562 124.133  0.00  0.00    +0.277 C 
ENDBRANCH   7   9
BRANCH   8  11
ATOM     11  C   LIG A   1      -9.329  -2.611 123.437  0.00  0.00    +0.108 C 
ATOM     12  N   LIG A   1      -9.981  -3.568 123.330  0.00  0.00    -0.191 NA
ENDBRANCH   8  11
TORSDOF 2
ENDMDL
