MODEL 1
REMARK VINA RESULT:      -7.5      0.000      0.000
REMARK  Name = NuBBE_118
REMARK  18 active torsions:
REMARK  status: ('A' for Active; 'I' for Inactive)
REMARK    1  A    between atoms: C_1  and  O_2
REMARK    2  A    between atoms: O_2  and  C_3
REMARK    3  A    between atoms: C_5  and  O_6
REMARK    4  A    between atoms: O_6  and  C_7
REMARK    5  A    between atoms: C_10  and  C_21
REMARK    6  A    between atoms: C_12  and  O_20
REMARK    7  A    between atoms: C_14  and  O_19
REMARK    8  A    between atoms: C_16  and  O_18
REMARK    9  A    between atoms: C_21  and  O_22
REMARK   10  A    between atoms: O_22  and  C_23
REMARK   11  A    between atoms: C_27  and  C_28
REMARK   12  A    between atoms: C_27  and  O_33
REMARK   13  A    between atoms: C_28  and  O_29
REMARK   14  A    between atoms: C_30  and  O_32
REMARK   15  A    between atoms: C_35  and  O_36
REMARK   16  A    between atoms: O_36  and  C_37
REMARK   17  A    between atoms: C_38  and  O_39
REMARK   18  A    between atoms: O_39  and  C_40
REMARK                            x       y       z     vdW  Elec       q    Type
REMARK                         _______ _______ _______ _____ _____    ______ ____
ROOT
ATOM      1  C   LIG A   1      -8.780   2.005 129.629  0.00  0.00    +0.339 C 
ATOM      2  O   LIG A   1      -9.181   3.378 129.620  0.00  0.00    -0.331 OA
ATOM      3  C   LIG A   1      -9.964   3.784 130.746  0.00  0.00    +0.179 C 
ATOM      4  C   LIG A   1      -9.162   3.555 132.035  0.00  0.00    +0.177 C 
ATOM      5  C   LIG A   1      -8.841   2.062 132.137  0.00  0.00    +0.180 C 
ATOM      6  C   LIG A   1      -8.048   1.604 130.918  0.00  0.00    +0.214 C 
ENDROOT
BRANCH   6   7
ATOM      7  O   LIG A   1      -7.885   0.175 130.987  0.00  0.00    -0.383 OA
ATOM      8  H   LIG A   1      -7.911  -0.133 130.060  0.00  0.00    +0.210 HD
ENDBRANCH   6   7
BRANCH   5   9
ATOM      9  O   LIG A   1      -8.073   1.795 133.321  0.00  0.00    -0.386 OA
ATOM     10  H   LIG A   1      -8.733   1.548 133.999  0.00  0.00    +0.210 HD
ENDBRANCH   5   9
BRANCH   4  11
ATOM     11  O   LIG A   1      -9.887   3.932 133.208  0.00  0.00    -0.387 OA
ATOM     12  H   LIG A   1     -10.229   4.831 133.051  0.00  0.00    +0.210 HD
ENDBRANCH   4  11
BRANCH   1  13
ATOM     13  O   LIG A   1      -7.857   1.783 128.562  0.00  0.00    -0.461 OA
BRANCH  13  16
ATOM     14  C   LIG A   1      -8.183  -1.356 126.757  0.00  0.00    +0.169 A 
ATOM     15  C   LIG A   1      -7.793  -0.381 127.677  0.00  0.00    +0.095 A 
ATOM     16  C   LIG A   1      -8.261   0.933 127.566  0.00  0.00    +0.131 A 
ATOM     17  C   LIG A   1      -9.110   1.262 126.509  0.00  0.00    +0.095 A 
ATOM     18  C   LIG A   1      -9.511   0.309 125.567  0.00  0.00    +0.169 A 
ATOM     19  C   LIG A   1      -9.011  -1.003 125.667  0.00  0.00    +0.204 A 
BRANCH  14  21
ATOM     20  C   LIG A   1      -8.566  -3.468 127.810  0.00  0.00    +0.277 C 
ATOM     21  O   LIG A   1      -7.843  -2.683 126.870  0.00  0.00    -0.491 OA
ENDBRANCH  14  21
BRANCH  18  22
ATOM     22  O   LIG A   1     -10.369   0.852 124.654  0.00  0.00    -0.491 OA
ATOM     23  C   LIG A   1      -9.843   1.643 123.608  0.00  0.00    +0.277 C 
ENDBRANCH  18  22
BRANCH  19  24
ATOM     24  O   LIG A   1      -9.400  -1.922 124.727  0.00  0.00    -0.488 OA
ATOM     25  C   LIG A   1      -8.602  -1.936 123.545  0.00  0.00    +0.277 C 
ENDBRANCH  19  24
ENDBRANCH  13  16
ENDBRANCH   1  13
BRANCH   3  26
ATOM     26  C   LIG A   1     -10.358   5.259 130.551  0.00  0.00    +0.197 C 
BRANCH  26  27
ATOM     27  O   LIG A   1     -11.023   5.422 129.294  0.00  0.00    -0.346 OA
BRANCH  27  28
ATOM     28  C   LIG A   1     -12.235   6.168 129.407  0.00  0.00    +0.282 C 
ATOM     29  O   LIG A   1     -12.930   6.266 128.149  0.00  0.00    -0.346 OA
ATOM     30  C   LIG A   1     -13.193   7.657 127.907  0.00  0.00    +0.203 C 
ATOM     31  C   LIG A   1     -12.057   8.417 128.579  0.00  0.00    +0.142 C 
ATOM     32  C   LIG A   1     -11.888   7.596 129.856  0.00  0.00    +0.206 C 
BRANCH  32  33
ATOM     33  O   LIG A   1     -12.838   8.050 130.842  0.00  0.00    -0.384 OA
ATOM     34  H   LIG A   1     -12.586   7.582 131.668  0.00  0.00    +0.210 HD
ENDBRANCH  32  33
BRANCH  31  35
ATOM     35  O   LIG A   1     -12.438   9.756 128.940  0.00  0.00    -0.381 OA
ATOM     36  H   LIG A   1     -13.246   9.689 129.483  0.00  0.00    +0.210 HD
ENDBRANCH  31  35
BRANCH  31  37
ATOM     37  C   LIG A   1     -10.792   8.412 127.699  0.00  0.00    +0.195 C 
BRANCH  37  38
ATOM     38  O   LIG A   1     -11.095   7.811 126.437  0.00  0.00    -0.392 OA
ATOM     39  H   LIG A   1     -10.270   7.408 126.108  0.00  0.00    +0.209 HD
ENDBRANCH  37  38
ENDBRANCH  31  37
ENDBRANCH  27  28
ENDBRANCH  26  27
ENDBRANCH   3  26
TORSDOF 15
ENDMDL
MODEL 2
REMARK VINA RESULT:      -7.4      0.423      2.257
REMARK  Name = NuBBE_118
REMARK  18 active torsions:
REMARK  status: ('A' for Active; 'I' for Inactive)
REMARK    1  A    between atoms: C_1  and  O_2
REMARK    2  A    between atoms: O_2  and  C_3
REMARK    3  A    between atoms: C_5  and  O_6
REMARK    4  A    between atoms: O_6  and  C_7
REMARK    5  A    between atoms: C_10  and  C_21
REMARK    6  A    between atoms: C_12  and  O_20
REMARK    7  A    between atoms: C_14  and  O_19
REMARK    8  A    between atoms: C_16  and  O_18
REMARK    9  A    between atoms: C_21  and  O_22
REMARK   10  A    between atoms: O_22  and  C_23
REMARK   11  A    between atoms: C_27  and  C_28
REMARK   12  A    between atoms: C_27  and  O_33
REMARK   13  A    between atoms: C_28  and  O_29
REMARK   14  A    between atoms: C_30  and  O_32
REMARK   15  A    between atoms: C_35  and  O_36
REMARK   16  A    between atoms: O_36  and  C_37
REMARK   17  A    between atoms: C_38  and  O_39
REMARK   18  A    between atoms: O_39  and  C_40
REMARK                            x       y       z     vdW  Elec       q    Type
REMARK                         _______ _______ _______ _____ _____    ______ ____
ROOT
ATOM      1  C   LIG A   1      -8.693   1.817 129.854  0.00  0.00    +0.339 C 
ATOM      2  O   LIG A   1      -9.183   3.160 129.824  0.00  0.00    -0.331 OA
ATOM      3  C   LIG A   1      -9.929   3.554 130.979  0.00  0.00    +0.179 C 
ATOM      4  C   LIG A   1      -9.046   3.422 132.227  0.00  0.00    +0.177 C 
ATOM      5  C   LIG A   1      -8.623   1.958 132.358  0.00  0.00    +0.180 C 
ATOM      6  C   LIG A   1      -7.868   1.509 131.112  0.00  0.00    +0.214 C 
ENDROOT
BRANCH   6   7
ATOM      7  O   LIG A   1      -7.608   0.096 131.216  0.00  0.00    -0.383 OA
ATOM      8  H   LIG A   1      -6.974   0.004 131.954  0.00  0.00    +0.210 HD
ENDBRANCH   6   7
BRANCH   5   9
ATOM      9  O   LIG A   1      -7.776   1.782 133.505  0.00  0.00    -0.386 OA
ATOM     10  H   LIG A   1      -7.820   0.826 133.706  0.00  0.00    +0.210 HD
ENDBRANCH   5   9
BRANCH   4  11
ATOM     11  O   LIG A   1      -9.730   3.793 133.427  0.00  0.00    -0.387 OA
ATOM     12  H   LIG A   1      -9.152   4.419 133.900  0.00  0.00    +0.210 HD
ENDBRANCH   4  11
BRANCH   1  13
ATOM     13  O   LIG A   1      -7.816   1.618 128.744  0.00  0.00    -0.461 OA
BRANCH  13  16
ATOM     14  C   LIG A   1      -9.441   0.435 125.714  0.00  0.00    +0.169 A 
ATOM     15  C   LIG A   1      -9.015   1.242 126.771  0.00  0.00    +0.095 A 
ATOM     16  C   LIG A   1      -8.220   0.715 127.795  0.00  0.00    +0.131 A 
ATOM     17  C   LIG A   1      -7.872  -0.636 127.756  0.00  0.00    +0.095 A 
ATOM     18  C   LIG A   1      -8.290  -1.470 126.713  0.00  0.00    +0.169 A 
ATOM     19  C   LIG A   1      -9.116  -0.940 125.704  0.00  0.00    +0.204 A 
BRANCH  14  21
ATOM     20  C   LIG A   1      -9.495   1.898 123.823  0.00  0.00    +0.277 C 
ATOM     21  O   LIG A   1     -10.134   0.915 124.627  0.00  0.00    -0.491 OA
ENDBRANCH  14  21
BRANCH  18  22
ATOM     22  O   LIG A   1      -7.796  -2.734 126.868  0.00  0.00    -0.491 OA
ATOM     23  C   LIG A   1      -8.523  -3.660 127.651  0.00  0.00    +0.277 C 
ENDBRANCH  18  22
BRANCH  19  24
ATOM     24  O   LIG A   1      -9.531  -1.775 124.699  0.00  0.00    -0.488 OA
ATOM     25  C   LIG A   1      -8.593  -1.936 123.636  0.00  0.00    +0.277 C 
ENDBRANCH  19  24
ENDBRANCH  13  16
ENDBRANCH   1  13
BRANCH   3  26
ATOM     26  C   LIG A   1     -10.430   4.994 130.759  0.00  0.00    +0.197 C 
BRANCH  26  27
ATOM     27  O   LIG A   1     -11.179   5.067 129.542  0.00  0.00    -0.346 OA
BRANCH  27  28
ATOM     28  C   LIG A   1     -12.253   6.005 129.615  0.00  0.00    +0.282 C 
ATOM     29  O   LIG A   1     -13.100   5.949 128.452  0.00  0.00    -0.346 OA
ATOM     30  C   LIG A   1     -13.209   7.284 127.932  0.00  0.00    +0.203 C 
ATOM     31  C   LIG A   1     -11.899   7.975 128.285  0.00  0.00    +0.142 C 
ATOM     32  C   LIG A   1     -11.661   7.421 129.689  0.00  0.00    +0.206 C 
BRANCH  32  33
ATOM     33  O   LIG A   1     -12.393   8.215 130.645  0.00  0.00    -0.384 OA
ATOM     34  H   LIG A   1     -12.276   7.750 131.502  0.00  0.00    +0.210 HD
ENDBRANCH  32  33
BRANCH  31  35
ATOM     35  O   LIG A   1     -12.045   9.403 128.374  0.00  0.00    -0.381 OA
ATOM     36  H   LIG A   1     -11.148   9.786 128.346  0.00  0.00    +0.210 HD
ENDBRANCH  31  35
BRANCH  31  37
ATOM     37  C   LIG A   1     -10.784   7.586 127.297  0.00  0.00    +0.195 C 
BRANCH  37  38
ATOM     38  O   LIG A   1     -11.315   6.696 126.310  0.00  0.00    -0.392 OA
ATOM     39  H   LIG A   1     -10.620   6.570 125.637  0.00  0.00    +0.209 HD
ENDBRANCH  37  38
ENDBRANCH  31  37
ENDBRANCH  27  28
ENDBRANCH  26  27
ENDBRANCH   3  26
TORSDOF 15
ENDMDL
MODEL 3
REMARK VINA RESULT:      -7.2      1.818      2.357
REMARK  Name = NuBBE_118
REMARK  18 active torsions:
REMARK  status: ('A' for Active; 'I' for Inactive)
REMARK    1  A    between atoms: C_1  and  O_2
REMARK    2  A    between atoms: O_2  and  C_3
REMARK    3  A    between atoms: C_5  and  O_6
REMARK    4  A    between atoms: O_6  and  C_7
REMARK    5  A    between atoms: C_10  and  C_21
REMARK    6  A    between atoms: C_12  and  O_20
REMARK    7  A    between atoms: C_14  and  O_19
REMARK    8  A    between atoms: C_16  and  O_18
REMARK    9  A    between atoms: C_21  and  O_22
REMARK   10  A    between atoms: O_22  and  C_23
REMARK   11  A    between atoms: C_27  and  C_28
REMARK   12  A    between atoms: C_27  and  O_33
REMARK   13  A    between atoms: C_28  and  O_29
REMARK   14  A    between atoms: C_30  and  O_32
REMARK   15  A    between atoms: C_35  and  O_36
REMARK   16  A    between atoms: O_36  and  C_37
REMARK   17  A    between atoms: C_38  and  O_39
REMARK   18  A    between atoms: O_39  and  C_40
REMARK                            x       y       z     vdW  Elec       q    Type
REMARK                         _______ _______ _______ _____ _____    ______ ____
ROOT
ATOM      1  C   LIG A   1      -8.003   2.779 127.916  0.00  0.00    +0.339 C 
ATOM      2  O   LIG A   1      -9.108   3.106 128.765  0.00  0.00    -0.331 OA
ATOM      3  C   LIG A   1      -8.753   3.480 130.098  0.00  0.00    +0.179 C 
ATOM      4  C   LIG A   1      -7.835   4.710 130.057  0.00  0.00    +0.177 C 
ATOM      5  C   LIG A   1      -6.577   4.338 129.270  0.00  0.00    +0.180 C 
ATOM      6  C   LIG A   1      -6.944   3.889 127.860  0.00  0.00    +0.214 C 
ENDROOT
BRANCH   6   7
ATOM      7  O   LIG A   1      -5.752   3.422 127.201  0.00  0.00    -0.383 OA
ATOM      8  H   LIG A   1      -5.743   3.871 126.333  0.00  0.00    +0.210 HD
ENDBRANCH   6   7
BRANCH   5   9
ATOM      9  O   LIG A   1      -5.689   5.463 129.185  0.00  0.00    -0.386 OA
ATOM     10  H   LIG A   1      -6.262   6.219 128.944  0.00  0.00    +0.210 HD
ENDBRANCH   5   9
BRANCH   4  11
ATOM     11  O   LIG A   1      -7.431   5.138 131.360  0.00  0.00    -0.387 OA
ATOM     12  H   LIG A   1      -7.098   6.050 131.266  0.00  0.00    +0.210 HD
ENDBRANCH   4  11
BRANCH   1  13
ATOM     13  O   LIG A   1      -8.477   2.612 126.580  0.00  0.00    -0.461 OA
BRANCH  13  16
ATOM     14  C   LIG A   1      -8.240  -1.014 126.675  0.00  0.00    +0.169 A 
ATOM     15  C   LIG A   1      -8.140   0.338 127.008  0.00  0.00    +0.095 A 
ATOM     16  C   LIG A   1      -8.570   1.326 126.116  0.00  0.00    +0.131 A 
ATOM     17  C   LIG A   1      -9.086   0.943 124.878  0.00  0.00    +0.095 A 
ATOM     18  C   LIG A   1      -9.191  -0.404 124.513  0.00  0.00    +0.169 A 
ATOM     19  C   LIG A   1      -8.726  -1.391 125.402  0.00  0.00    +0.204 A 
BRANCH  14  21
ATOM     20  C   LIG A   1      -7.578  -1.676 128.875  0.00  0.00    +0.277 C 
ATOM     21  O   LIG A   1      -7.932  -2.034 127.545  0.00  0.00    -0.491 OA
ENDBRANCH  14  21
BRANCH  18  22
ATOM     22  O   LIG A   1      -9.759  -0.535 123.278  0.00  0.00    -0.491 OA
ATOM     23  C   LIG A   1     -10.139   0.630 122.574  0.00  0.00    +0.277 C 
ENDBRANCH  18  22
BRANCH  19  24
ATOM     24  O   LIG A   1      -8.821  -2.705 125.023  0.00  0.00    -0.488 OA
ATOM     25  C   LIG A   1      -7.721  -3.180 124.249  0.00  0.00    +0.277 C 
ENDBRANCH  19  24
ENDBRANCH  13  16
ENDBRANCH   1  13
BRANCH   3  26
ATOM     26  C   LIG A   1     -10.050   3.738 130.887  0.00  0.00    +0.197 C 
BRANCH  26  27
ATOM     27  O   LIG A   1     -10.272   5.147 131.009  0.00  0.00    -0.346 OA
BRANCH  27  28
ATOM     28  C   LIG A   1     -11.613   5.520 130.692  0.00  0.00    +0.282 C 
ATOM     29  O   LIG A   1     -11.909   5.338 129.294  0.00  0.00    -0.346 OA
ATOM     30  C   LIG A   1     -12.438   6.578 128.798  0.00  0.00    +0.203 C 
ATOM     31  C   LIG A   1     -11.784   7.671 129.633  0.00  0.00    +0.142 C 
ATOM     32  C   LIG A   1     -11.793   7.013 131.012  0.00  0.00    +0.206 C 
BRANCH  32  33
ATOM     33  O   LIG A   1     -13.073   7.235 131.637  0.00  0.00    -0.384 OA
ATOM     34  H   LIG A   1     -13.141   6.539 132.327  0.00  0.00    +0.210 HD
ENDBRANCH  32  33
BRANCH  31  35
ATOM     35  O   LIG A   1     -12.585   8.864 129.689  0.00  0.00    -0.381 OA
ATOM     36  H   LIG A   1     -12.650   9.124 130.627  0.00  0.00    +0.210 HD
ENDBRANCH  31  35
BRANCH  31  37
ATOM     37  C   LIG A   1     -10.360   7.975 129.129  0.00  0.00    +0.195 C 
BRANCH  37  38
ATOM     38  O   LIG A   1      -9.898   6.884 128.329  0.00  0.00    -0.392 OA
ATOM     39  H   LIG A   1      -9.839   6.106 128.914  0.00  0.00    +0.209 HD
ENDBRANCH  37  38
ENDBRANCH  31  37
ENDBRANCH  27  28
ENDBRANCH  26  27
ENDBRANCH   3  26
TORSDOF 15
ENDMDL
MODEL 4
REMARK VINA RESULT:      -7.2      1.556      2.804
REMARK  Name = NuBBE_118
REMARK  18 active torsions:
REMARK  status: ('A' for Active; 'I' for Inactive)
REMARK    1  A    between atoms: C_1  and  O_2
REMARK    2  A    between atoms: O_2  and  C_3
REMARK    3  A    between atoms: C_5  and  O_6
REMARK    4  A    between atoms: O_6  and  C_7
REMARK    5  A    between atoms: C_10  and  C_21
REMARK    6  A    between atoms: C_12  and  O_20
REMARK    7  A    between atoms: C_14  and  O_19
REMARK    8  A    between atoms: C_16  and  O_18
REMARK    9  A    between atoms: C_21  and  O_22
REMARK   10  A    between atoms: O_22  and  C_23
REMARK   11  A    between atoms: C_27  and  C_28
REMARK   12  A    between atoms: C_27  and  O_33
REMARK   13  A    between atoms: C_28  and  O_29
REMARK   14  A    between atoms: C_30  and  O_32
REMARK   15  A    between atoms: C_35  and  O_36
REMARK   16  A    between atoms: O_36  and  C_37
REMARK   17  A    between atoms: C_38  and  O_39
REMARK   18  A    between atoms: O_39  and  C_40
REMARK                            x       y       z     vdW  Elec       q    Type
REMARK                         _______ _______ _______ _____ _____    ______ ____
ROOT
ATOM      1  C   LIG A   1      -7.773   2.624 128.835  0.00  0.00    +0.339 C 
ATOM      2  O   LIG A   1      -9.036   3.288 128.941  0.00  0.00    -0.331 OA
ATOM      3  C   LIG A   1      -9.533   3.427 130.274  0.00  0.00    +0.179 C 
ATOM      4  C   LIG A   1      -8.529   4.228 131.113  0.00  0.00    +0.177 C 
ATOM      5  C   LIG A   1      -7.204   3.461 131.131  0.00  0.00    +0.180 C 
ATOM      6  C   LIG A   1      -6.686   3.263 129.711  0.00  0.00    +0.214 C 
ENDROOT
BRANCH   6   7
ATOM      7  O   LIG A   1      -5.516   2.425 129.761  0.00  0.00    -0.383 OA
ATOM      8  H   LIG A   1      -5.375   2.235 130.709  0.00  0.00    +0.210 HD
ENDBRANCH   6   7
BRANCH   5   9
ATOM      9  O   LIG A   1      -6.220   4.180 131.891  0.00  0.00    -0.386 OA
ATOM     10  H   LIG A   1      -6.467   5.122 131.795  0.00  0.00    +0.210 HD
ENDBRANCH   5   9
BRANCH   4  11
ATOM     11  O   LIG A   1      -8.957   4.400 132.467  0.00  0.00    -0.387 OA
ATOM     12  H   LIG A   1      -8.159   4.342 133.025  0.00  0.00    +0.210 HD
ENDBRANCH   4  11
BRANCH   1  13
ATOM     13  O   LIG A   1      -7.308   2.722 127.488  0.00  0.00    -0.461 OA
BRANCH  13  16
ATOM     14  C   LIG A   1      -8.987   2.444 124.275  0.00  0.00    +0.169 A 
ATOM     15  C   LIG A   1      -8.249   2.929 125.357  0.00  0.00    +0.095 A 
ATOM     16  C   LIG A   1      -8.104   2.166 126.520  0.00  0.00    +0.131 A 
ATOM     17  C   LIG A   1      -8.723   0.918 126.593  0.00  0.00    +0.095 A 
ATOM     18  C   LIG A   1      -9.474   0.409 125.529  0.00  0.00    +0.169 A 
ATOM     19  C   LIG A   1      -9.642   1.196 124.374  0.00  0.00    +0.204 A 
BRANCH  14  21
ATOM     20  C   LIG A   1      -7.929   3.105 122.235  0.00  0.00    +0.277 C 
ATOM     21  O   LIG A   1      -9.080   3.098 123.068  0.00  0.00    -0.491 OA
ENDBRANCH  14  21
BRANCH  18  22
ATOM     22  O   LIG A   1      -9.947  -0.840 125.815  0.00  0.00    -0.491 OA
ATOM     23  C   LIG A   1      -9.045  -1.928 125.813  0.00  0.00    +0.277 C 
ENDBRANCH  18  22
BRANCH  19  24
ATOM     24  O   LIG A   1     -10.396   0.690 123.346  0.00  0.00    -0.488 OA
ATOM     25  C   LIG A   1      -9.717  -0.256 122.522  0.00  0.00    +0.277 C 
ENDBRANCH  19  24
ENDBRANCH  13  16
ENDBRANCH   1  13
BRANCH   3  26
ATOM     26  C   LIG A   1     -10.915   4.102 130.204  0.00  0.00    +0.197 C 
BRANCH  26  27
ATOM     27  O   LIG A   1     -10.758   5.519 130.073  0.00  0.00    -0.346 OA
BRANCH  27  28
ATOM     28  C   LIG A   1     -12.007   6.202 129.977  0.00  0.00    +0.282 C 
ATOM     29  O   LIG A   1     -12.742   5.823 128.798  0.00  0.00    -0.346 OA
ATOM     30  C   LIG A   1     -13.093   7.030 128.100  0.00  0.00    +0.203 C 
ATOM     31  C   LIG A   1     -11.984   8.026 128.411  0.00  0.00    +0.142 C 
ATOM     32  C   LIG A   1     -11.732   7.712 129.885  0.00  0.00    +0.206 C 
BRANCH  32  33
ATOM     33  O   LIG A   1     -12.678   8.438 130.695  0.00  0.00    -0.384 OA
ATOM     34  H   LIG A   1     -13.550   8.041 130.483  0.00  0.00    +0.210 HD
ENDBRANCH  32  33
BRANCH  31  35
ATOM     35  O   LIG A   1     -12.432   9.388 128.302  0.00  0.00    -0.381 OA
ATOM     36  H   LIG A   1     -13.303   9.370 127.863  0.00  0.00    +0.210 HD
ENDBRANCH  31  35
BRANCH  31  37
ATOM     37  C   LIG A   1     -10.747   7.770 127.530  0.00  0.00    +0.195 C 
BRANCH  37  38
ATOM     38  O   LIG A   1     -11.062   6.780 126.547  0.00  0.00    -0.392 OA
ATOM     39  H   LIG A   1     -11.836   6.287 126.877  0.00  0.00    +0.209 HD
ENDBRANCH  37  38
ENDBRANCH  31  37
ENDBRANCH  27  28
ENDBRANCH  26  27
ENDBRANCH   3  26
TORSDOF 15
ENDMDL
MODEL 5
REMARK VINA RESULT:      -7.1      1.743      3.028
REMARK  Name = NuBBE_118
REMARK  18 active torsions:
REMARK  status: ('A' for Active; 'I' for Inactive)
REMARK    1  A    between atoms: C_1  and  O_2
REMARK    2  A    between atoms: O_2  and  C_3
REMARK    3  A    between atoms: C_5  and  O_6
REMARK    4  A    between atoms: O_6  and  C_7
REMARK    5  A    between atoms: C_10  and  C_21
REMARK    6  A    between atoms: C_12  and  O_20
REMARK    7  A    between atoms: C_14  and  O_19
REMARK    8  A    between atoms: C_16  and  O_18
REMARK    9  A    between atoms: C_21  and  O_22
REMARK   10  A    between atoms: O_22  and  C_23
REMARK   11  A    between atoms: C_27  and  C_28
REMARK   12  A    between atoms: C_27  and  O_33
REMARK   13  A    between atoms: C_28  and  O_29
REMARK   14  A    between atoms: C_30  and  O_32
REMARK   15  A    between atoms: C_35  and  O_36
REMARK   16  A    between atoms: O_36  and  C_37
REMARK   17  A    between atoms: C_38  and  O_39
REMARK   18  A    between atoms: O_39  and  C_40
REMARK                            x       y       z     vdW  Elec       q    Type
REMARK                         _______ _______ _______ _____ _____    ______ ____
ROOT
ATOM      1  C   LIG A   1      -8.047   2.828 128.073  0.00  0.00    +0.339 C 
ATOM      2  O   LIG A   1      -9.182   3.361 128.762  0.00  0.00    -0.331 OA
ATOM      3  C   LIG A   1      -8.908   3.868 130.071  0.00  0.00    +0.179 C 
ATOM      4  C   LIG A   1      -7.867   4.992 129.976  0.00  0.00    +0.177 C 
ATOM      5  C   LIG A   1      -6.590   4.408 129.369  0.00  0.00    +0.180 C 
ATOM      6  C   LIG A   1      -6.877   3.819 127.992  0.00  0.00    +0.214 C 
ENDROOT
BRANCH   6   7
ATOM      7  O   LIG A   1      -5.686   3.163 127.516  0.00  0.00    -0.383 OA
ATOM      8  H   LIG A   1      -5.973   2.267 127.251  0.00  0.00    +0.210 HD
ENDBRANCH   6   7
BRANCH   5   9
ATOM      9  O   LIG A   1      -5.585   5.426 129.241  0.00  0.00    -0.386 OA
ATOM     10  H   LIG A   1      -6.067   6.217 128.924  0.00  0.00    +0.210 HD
ENDBRANCH   5   9
BRANCH   4  11
ATOM     11  O   LIG A   1      -7.536   5.544 131.254  0.00  0.00    -0.387 OA
ATOM     12  H   LIG A   1      -7.725   4.854 131.917  0.00  0.00    +0.210 HD
ENDBRANCH   4  11
BRANCH   1  13
ATOM     13  O   LIG A   1      -8.416   2.537 126.725  0.00  0.00    -0.461 OA
BRANCH  13  16
ATOM     14  C   LIG A   1      -9.175  -0.359 124.662  0.00  0.00    +0.169 A 
ATOM     15  C   LIG A   1      -9.106   0.945 125.156  0.00  0.00    +0.095 A 
ATOM     16  C   LIG A   1      -8.473   1.212 126.375  0.00  0.00    +0.131 A 
ATOM     17  C   LIG A   1      -7.926   0.155 127.102  0.00  0.00    +0.095 A 
ATOM     18  C   LIG A   1      -7.986  -1.163 126.635  0.00  0.00    +0.169 A 
ATOM     19  C   LIG A   1      -8.653  -1.429 125.424  0.00  0.00    +0.204 A 
BRANCH  14  21
ATOM     20  C   LIG A   1     -10.095   0.402 122.591  0.00  0.00    +0.277 C 
ATOM     21  O   LIG A   1      -9.689  -0.674 123.426  0.00  0.00    -0.491 OA
ENDBRANCH  14  21
BRANCH  18  22
ATOM     22  O   LIG A   1      -7.351  -2.016 127.492  0.00  0.00    -0.491 OA
ATOM     23  C   LIG A   1      -8.127  -2.782 128.393  0.00  0.00    +0.277 C 
ENDBRANCH  18  22
BRANCH  19  24
ATOM     24  O   LIG A   1      -8.718  -2.728 124.989  0.00  0.00    -0.488 OA
ATOM     25  C   LIG A   1      -7.539  -3.195 124.337  0.00  0.00    +0.277 C 
ENDBRANCH  19  24
ENDBRANCH  13  16
ENDBRANCH   1  13
BRANCH   3  26
ATOM     26  C   LIG A   1     -10.235   4.343 130.690  0.00  0.00    +0.197 C 
BRANCH  26  27
ATOM     27  O   LIG A   1     -10.350   5.764 130.562  0.00  0.00    -0.346 OA
BRANCH  27  28
ATOM     28  C   LIG A   1     -11.685   6.183 130.279  0.00  0.00    +0.282 C 
ATOM     29  O   LIG A   1     -12.148   5.694 129.006  0.00  0.00    -0.346 OA
ATOM     30  C   LIG A   1     -12.632   6.822 128.259  0.00  0.00    +0.203 C 
ATOM     31  C   LIG A   1     -11.807   8.013 128.726  0.00  0.00    +0.142 C 
ATOM     32  C   LIG A   1     -11.713   7.719 130.222  0.00  0.00    +0.206 C 
BRANCH  32  33
ATOM     33  O   LIG A   1     -12.895   8.218 130.881  0.00  0.00    -0.384 OA
ATOM     34  H   LIG A   1     -12.964   7.692 131.707  0.00  0.00    +0.210 HD
ENDBRANCH  32  33
BRANCH  31  35
ATOM     35  O   LIG A   1     -12.503   9.259 128.546  0.00  0.00    -0.381 OA
ATOM     36  H   LIG A   1     -13.416   9.043 128.279  0.00  0.00    +0.210 HD
ENDBRANCH  31  35
BRANCH  31  37
ATOM     37  C   LIG A   1     -10.429   8.037 128.038  0.00  0.00    +0.195 C 
BRANCH  37  38
ATOM     38  O   LIG A   1     -10.120   6.728 127.552  0.00  0.00    -0.392 OA
ATOM     39  H   LIG A   1     -10.256   6.742 126.586  0.00  0.00    +0.209 HD
ENDBRANCH  37  38
ENDBRANCH  31  37
ENDBRANCH  27  28
ENDBRANCH  26  27
ENDBRANCH   3  26
TORSDOF 15
ENDMDL
MODEL 6
REMARK VINA RESULT:      -7.0      2.074      2.576
REMARK  Name = NuBBE_118
REMARK  18 active torsions:
REMARK  status: ('A' for Active; 'I' for Inactive)
REMARK    1  A    between atoms: C_1  and  O_2
REMARK    2  A    between atoms: O_2  and  C_3
REMARK    3  A    between atoms: C_5  and  O_6
REMARK    4  A    between atoms: O_6  and  C_7
REMARK    5  A    between atoms: C_10  and  C_21
REMARK    6  A    between atoms: C_12  and  O_20
REMARK    7  A    between atoms: C_14  and  O_19
REMARK    8  A    between atoms: C_16  and  O_18
REMARK    9  A    between atoms: C_21  and  O_22
REMARK   10  A    between atoms: O_22  and  C_23
REMARK   11  A    between atoms: C_27  and  C_28
REMARK   12  A    between atoms: C_27  and  O_33
REMARK   13  A    between atoms: C_28  and  O_29
REMARK   14  A    between atoms: C_30  and  O_32
REMARK   15  A    between atoms: C_35  and  O_36
REMARK   16  A    between atoms: O_36  and  C_37
REMARK   17  A    between atoms: C_38  and  O_39
REMARK   18  A    between atoms: O_39  and  C_40
REMARK                            x       y       z     vdW  Elec       q    Type
REMARK                         _______ _______ _______ _____ _____    ______ ____
ROOT
ATOM      1  C   LIG A   1      -7.992   4.094 128.482  0.00  0.00    +0.339 C 
ATOM      2  O   LIG A   1      -9.189   4.742 128.921  0.00  0.00    -0.331 OA
ATOM      3  C   LIG A   1      -9.506   4.552 130.302  0.00  0.00    +0.179 C 
ATOM      4  C   LIG A   1      -8.357   5.088 131.167  0.00  0.00    +0.177 C 
ATOM      5  C   LIG A   1      -7.089   4.308 130.813  0.00  0.00    +0.180 C 
ATOM      6  C   LIG A   1      -6.767   4.461 129.331  0.00  0.00    +0.214 C 
ENDROOT
BRANCH   6   7
ATOM      7  O   LIG A   1      -5.652   3.607 129.013  0.00  0.00    -0.383 OA
ATOM      8  H   LIG A   1      -5.200   4.041 128.263  0.00  0.00    +0.210 HD
ENDBRANCH   6   7
BRANCH   5   9
ATOM      9  O   LIG A   1      -5.976   4.784 131.585  0.00  0.00    -0.386 OA
ATOM     10  H   LIG A   1      -5.813   5.692 131.258  0.00  0.00    +0.210 HD
ENDBRANCH   5   9
BRANCH   4  11
ATOM     11  O   LIG A   1      -8.600   4.924 132.567  0.00  0.00    -0.387 OA
ATOM     12  H   LIG A   1      -9.149   5.679 132.849  0.00  0.00    +0.210 HD
ENDBRANCH   4  11
BRANCH   1  13
ATOM     13  O   LIG A   1      -7.695   4.516 127.151  0.00  0.00    -0.461 OA
BRANCH  13  16
ATOM     14  C   LIG A   1      -8.620   1.333 125.657  0.00  0.00    +0.169 A 
ATOM     15  C   LIG A   1      -8.304   2.331 126.581  0.00  0.00    +0.095 A 
ATOM     16  C   LIG A   1      -7.922   3.606 126.151  0.00  0.00    +0.131 A 
ATOM     17  C   LIG A   1      -7.842   3.864 124.782  0.00  0.00    +0.095 A 
ATOM     18  C   LIG A   1      -8.145   2.882 123.833  0.00  0.00    +0.169 A 
ATOM     19  C   LIG A   1      -8.498   1.592 124.273  0.00  0.00    +0.204 A 
BRANCH  14  21
ATOM     20  C   LIG A   1      -8.164  -0.857 126.501  0.00  0.00    +0.277 C 
ATOM     21  O   LIG A   1      -9.101   0.095 126.014  0.00  0.00    -0.491 OA
ENDBRANCH  14  21
BRANCH  18  22
ATOM     22  O   LIG A   1      -8.035   3.376 122.564  0.00  0.00    -0.491 OA
ATOM     23  C   LIG A   1      -6.771   3.359 121.932  0.00  0.00    +0.277 C 
ENDBRANCH  18  22
BRANCH  19  24
ATOM     24  O   LIG A   1      -8.775   0.636 123.330  0.00  0.00    -0.488 OA
ATOM     25  C   LIG A   1     -10.073   0.736 122.748  0.00  0.00    +0.277 C 
ENDBRANCH  19  24
ENDBRANCH  13  16
ENDBRANCH   1  13
BRANCH   3  26
ATOM     26  C   LIG A   1     -10.842   5.260 130.591  0.00  0.00    +0.197 C 
BRANCH  26  27
ATOM     27  O   LIG A   1     -11.565   5.449 129.370  0.00  0.00    -0.346 OA
BRANCH  27  28
ATOM     28  C   LIG A   1     -12.660   6.353 129.517  0.00  0.00    +0.282 C 
ATOM     29  O   LIG A   1     -13.423   6.481 128.302  0.00  0.00    -0.346 OA
ATOM     30  C   LIG A   1     -13.522   7.882 127.998  0.00  0.00    +0.203 C 
ATOM     31  C   LIG A   1     -12.254   8.516 128.552  0.00  0.00    +0.142 C 
ATOM     32  C   LIG A   1     -12.103   7.744 129.861  0.00  0.00    +0.206 C 
BRANCH  32  33
ATOM     33  O   LIG A   1     -12.916   8.365 130.877  0.00  0.00    -0.384 OA
ATOM     34  H   LIG A   1     -13.717   7.801 130.941  0.00  0.00    +0.210 HD
ENDBRANCH  32  33
BRANCH  31  35
ATOM     35  O   LIG A   1     -12.434   9.910 128.859  0.00  0.00    -0.381 OA
ATOM     36  H   LIG A   1     -12.159  10.038 129.787  0.00  0.00    +0.210 HD
ENDBRANCH  31  35
BRANCH  31  37
ATOM     37  C   LIG A   1     -11.065   8.303 127.596  0.00  0.00    +0.195 C 
BRANCH  37  38
ATOM     38  O   LIG A   1      -9.972   7.730 128.320  0.00  0.00    -0.392 OA
ATOM     39  H   LIG A   1      -9.157   7.961 127.837  0.00  0.00    +0.209 HD
ENDBRANCH  37  38
ENDBRANCH  31  37
ENDBRANCH  27  28
ENDBRANCH  26  27
ENDBRANCH   3  26
TORSDOF 15
ENDMDL
MODEL 7
REMARK VINA RESULT:      -7.0      2.653      8.815
REMARK  Name = NuBBE_118
REMARK  18 active torsions:
REMARK  status: ('A' for Active; 'I' for Inactive)
REMARK    1  A    between atoms: C_1  and  O_2
REMARK    2  A    between atoms: O_2  and  C_3
REMARK    3  A    between atoms: C_5  and  O_6
REMARK    4  A    between atoms: O_6  and  C_7
REMARK    5  A    between atoms: C_10  and  C_21
REMARK    6  A    between atoms: C_12  and  O_20
REMARK    7  A    between atoms: C_14  and  O_19
REMARK    8  A    between atoms: C_16  and  O_18
REMARK    9  A    between atoms: C_21  and  O_22
REMARK   10  A    between atoms: O_22  and  C_23
REMARK   11  A    between atoms: C_27  and  C_28
REMARK   12  A    between atoms: C_27  and  O_33
REMARK   13  A    between atoms: C_28  and  O_29
REMARK   14  A    between atoms: C_30  and  O_32
REMARK   15  A    between atoms: C_35  and  O_36
REMARK   16  A    between atoms: O_36  and  C_37
REMARK   17  A    between atoms: C_38  and  O_39
REMARK   18  A    between atoms: O_39  and  C_40
REMARK                            x       y       z     vdW  Elec       q    Type
REMARK                         _______ _______ _______ _____ _____    ______ ____
ROOT
ATOM      1  C   LIG A   1      -7.915   2.881 126.632  0.00  0.00    +0.339 C 
ATOM      2  O   LIG A   1      -8.630   1.967 125.796  0.00  0.00    -0.331 OA
ATOM      3  C   LIG A   1      -9.153   2.535 124.592  0.00  0.00    +0.179 C 
ATOM      4  C   LIG A   1      -8.002   3.108 123.755  0.00  0.00    +0.177 C 
ATOM      5  C   LIG A   1      -7.306   4.192 124.581  0.00  0.00    +0.180 C 
ATOM      6  C   LIG A   1      -6.786   3.611 125.890  0.00  0.00    +0.214 C 
ENDROOT
BRANCH   6   7
ATOM      7  O   LIG A   1      -6.261   4.686 126.693  0.00  0.00    -0.383 OA
ATOM      8  H   LIG A   1      -5.590   4.273 127.270  0.00  0.00    +0.210 HD
ENDBRANCH   6   7
BRANCH   5   9
ATOM      9  O   LIG A   1      -6.205   4.750 123.847  0.00  0.00    -0.386 OA
ATOM     10  H   LIG A   1      -6.608   5.420 123.259  0.00  0.00    +0.210 HD
ENDBRANCH   5   9
BRANCH   4  11
ATOM     11  O   LIG A   1      -8.452   3.703 122.535  0.00  0.00    -0.387 OA
ATOM     12  H   LIG A   1      -8.986   3.030 122.073  0.00  0.00    +0.210 HD
ENDBRANCH   4  11
BRANCH   1  13
ATOM     13  O   LIG A   1      -7.291   2.152 127.689  0.00  0.00    -0.461 OA
BRANCH  13  16
ATOM     14  C   LIG A   1      -9.117   3.656 130.451  0.00  0.00    +0.169 A 
ATOM     15  C   LIG A   1      -8.431   3.472 129.249  0.00  0.00    +0.095 A 
ATOM     16  C   LIG A   1      -7.887   2.225 128.922  0.00  0.00    +0.131 A 
ATOM     17  C   LIG A   1      -8.023   1.169 129.823  0.00  0.00    +0.095 A 
ATOM     18  C   LIG A   1      -8.698   1.325 131.039  0.00  0.00    +0.169 A 
ATOM     19  C   LIG A   1      -9.214   2.591 131.375  0.00  0.00    +0.204 A 
BRANCH  14  21
ATOM     20  C   LIG A   1     -11.099   4.986 130.328  0.00  0.00    +0.277 C 
ATOM     21  O   LIG A   1      -9.762   4.823 130.783  0.00  0.00    -0.491 OA
ENDBRANCH  14  21
BRANCH  18  22
ATOM     22  O   LIG A   1      -8.737   0.150 131.733  0.00  0.00    -0.491 OA
ATOM     23  C   LIG A   1      -7.631  -0.728 131.653  0.00  0.00    +0.277 C 
ENDBRANCH  18  22
BRANCH  19  24
ATOM     24  O   LIG A   1      -9.858   2.732 132.577  0.00  0.00    -0.488 OA
ATOM     25  C   LIG A   1      -9.050   3.264 133.625  0.00  0.00    +0.277 C 
ENDBRANCH  19  24
ENDBRANCH  13  16
ENDBRANCH   1  13
BRANCH   3  26
ATOM     26  C   LIG A   1      -9.939   1.441 123.846  0.00  0.00    +0.197 C 
BRANCH  26  27
ATOM     27  O   LIG A   1      -9.611   0.155 124.384  0.00  0.00    -0.346 OA
BRANCH  27  28
ATOM     28  C   LIG A   1      -9.044  -0.719 123.408  0.00  0.00    +0.282 C 
ATOM     29  O   LIG A   1      -9.915  -1.822 123.098  0.00  0.00    -0.346 OA
ATOM     30  C   LIG A   1      -9.156  -3.032 123.259  0.00  0.00    +0.203 C 
ATOM     31  C   LIG A   1      -8.129  -2.734 124.343  0.00  0.00    +0.142 C 
ATOM     32  C   LIG A   1      -7.741  -1.303 123.976  0.00  0.00    +0.206 C 
BRANCH  32  33
ATOM     33  O   LIG A   1      -6.724  -1.334 122.953  0.00  0.00    -0.384 OA
ATOM     34  H   LIG A   1      -7.037  -2.004 122.306  0.00  0.00    +0.210 HD
ENDBRANCH  32  33
BRANCH  31  35
ATOM     35  O   LIG A   1      -6.963  -3.570 124.230  0.00  0.00    -0.381 OA
ATOM     36  H   LIG A   1      -7.102  -4.155 123.462  0.00  0.00    +0.210 HD
ENDBRANCH  31  35
BRANCH  31  37
ATOM     37  C   LIG A   1      -8.758  -2.838 125.746  0.00  0.00    +0.195 C 
BRANCH  37  38
ATOM     38  O   LIG A   1     -10.160  -3.085 125.618  0.00  0.00    -0.392 OA
ATOM     39  H   LIG A   1     -10.313  -4.009 125.891  0.00  0.00    +0.209 HD
ENDBRANCH  37  38
ENDBRANCH  31  37
ENDBRANCH  27  28
ENDBRANCH  26  27
ENDBRANCH   3  26
TORSDOF 15
ENDMDL
MODEL 8
REMARK VINA RESULT:      -6.8      3.335      5.008
REMARK  Name = NuBBE_118
REMARK  18 active torsions:
REMARK  status: ('A' for Active; 'I' for Inactive)
REMARK    1  A    between atoms: C_1  and  O_2
REMARK    2  A    between atoms: O_2  and  C_3
REMARK    3  A    between atoms: C_5  and  O_6
REMARK    4  A    between atoms: O_6  and  C_7
REMARK    5  A    between atoms: C_10  and  C_21
REMARK    6  A    between atoms: C_12  and  O_20
REMARK    7  A    between atoms: C_14  and  O_19
REMARK    8  A    between atoms: C_16  and  O_18
REMARK    9  A    between atoms: C_21  and  O_22
REMARK   10  A    between atoms: O_22  and  C_23
REMARK   11  A    between atoms: C_27  and  C_28
REMARK   12  A    between atoms: C_27  and  O_33
REMARK   13  A    between atoms: C_28  and  O_29
REMARK   14  A    between atoms: C_30  and  O_32
REMARK   15  A    between atoms: C_35  and  O_36
REMARK   16  A    between atoms: O_36  and  C_37
REMARK   17  A    between atoms: C_38  and  O_39
REMARK   18  A    between atoms: O_39  and  C_40
REMARK                            x       y       z     vdW  Elec       q    Type
REMARK                         _______ _______ _______ _____ _____    ______ ____
ROOT
ATOM      1  C   LIG A   1      -7.440   3.415 131.440  0.00  0.00    +0.339 C 
ATOM      2  O   LIG A   1      -7.329   4.778 131.022  0.00  0.00    -0.331 OA
ATOM      3  C   LIG A   1      -8.509   5.563 131.208  0.00  0.00    +0.179 C 
ATOM      4  C   LIG A   1      -8.884   5.576 132.696  0.00  0.00    +0.177 C 
ATOM      5  C   LIG A   1      -9.147   4.133 133.133  0.00  0.00    +0.180 C 
ATOM      6  C   LIG A   1      -7.912   3.272 132.894  0.00  0.00    +0.214 C 
ENDROOT
BRANCH   6   7
ATOM      7  O   LIG A   1      -8.243   1.901 133.189  0.00  0.00    -0.383 OA
ATOM      8  H   LIG A   1      -7.965   1.762 134.116  0.00  0.00    +0.210 HD
ENDBRANCH   6   7
BRANCH   5   9
ATOM      9  O   LIG A   1      -9.486   4.086 134.528  0.00  0.00    -0.386 OA
ATOM     10  H   LIG A   1      -8.753   4.548 134.981  0.00  0.00    +0.210 HD
ENDBRANCH   5   9
BRANCH   4  11
ATOM     11  O   LIG A   1     -10.065   6.338 132.959  0.00  0.00    -0.387 OA
ATOM     12  H   LIG A   1     -10.354   6.110 133.862  0.00  0.00    +0.210 HD
ENDBRANCH   4  11
BRANCH   1  13
ATOM     13  O   LIG A   1      -6.152   2.802 131.378  0.00  0.00    -0.461 OA
BRANCH  13  16
ATOM     14  C   LIG A   1      -4.985   2.888 127.935  0.00  0.00    +0.169 A 
ATOM     15  C   LIG A   1      -5.686   2.563 129.098  0.00  0.00    +0.095 A 
ATOM     16  C   LIG A   1      -5.353   3.155 130.321  0.00  0.00    +0.131 A 
ATOM     17  C   LIG A   1      -4.295   4.063 130.368  0.00  0.00    +0.095 A 
ATOM     18  C   LIG A   1      -3.569   4.403 129.221  0.00  0.00    +0.169 A 
ATOM     19  C   LIG A   1      -3.890   3.779 128.000  0.00  0.00    +0.204 A 
BRANCH  14  21
ATOM     20  C   LIG A   1      -5.466   1.015 126.529  0.00  0.00    +0.277 C 
ATOM     21  O   LIG A   1      -5.329   2.421 126.688  0.00  0.00    -0.491 OA
ENDBRANCH  14  21
BRANCH  18  22
ATOM     22  O   LIG A   1      -2.613   5.336 129.504  0.00  0.00    -0.491 OA
ATOM     23  C   LIG A   1      -2.425   5.736 130.846  0.00  0.00    +0.277 C 
ENDBRANCH  18  22
BRANCH  19  24
ATOM     24  O   LIG A   1      -3.158   4.109 126.889  0.00  0.00    -0.488 OA
ATOM     25  C   LIG A   1      -2.000   3.303 126.680  0.00  0.00    +0.277 C 
ENDBRANCH  19  24
ENDBRANCH  13  16
ENDBRANCH   1  13
BRANCH   3  26
ATOM     26  C   LIG A   1      -8.239   6.975 130.656  0.00  0.00    +0.197 C 
BRANCH  26  27
ATOM     27  O   LIG A   1      -9.470   7.581 130.249  0.00  0.00    -0.346 OA
BRANCH  27  28
ATOM     28  C   LIG A   1     -10.138   6.836 129.231  0.00  0.00    +0.282 C 
ATOM     29  O   LIG A   1     -10.106   7.508 127.958  0.00  0.00    -0.346 OA
ATOM     30  C   LIG A   1     -11.457   7.591 127.478  0.00  0.00    +0.203 C 
ATOM     31  C   LIG A   1     -12.335   7.666 128.720  0.00  0.00    +0.142 C 
ATOM     32  C   LIG A   1     -11.613   6.675 129.632  0.00  0.00    +0.206 C 
BRANCH  32  33
ATOM     33  O   LIG A   1     -12.065   5.339 129.335  0.00  0.00    -0.384 OA
ATOM     34  H   LIG A   1     -13.016   5.332 129.582  0.00  0.00    +0.210 HD
ENDBRANCH  32  33
BRANCH  31  35
ATOM     35  O   LIG A   1     -13.666   7.179 128.474  0.00  0.00    -0.381 OA
ATOM     36  H   LIG A   1     -13.752   6.328 128.945  0.00  0.00    +0.210 HD
ENDBRANCH  31  35
BRANCH  31  37
ATOM     37  C   LIG A   1     -12.358   9.094 129.295  0.00  0.00    +0.195 C 
BRANCH  37  38
ATOM     38  O   LIG A   1     -13.273   9.894 128.541  0.00  0.00    -0.392 OA
ATOM     39  H   LIG A   1     -13.471   9.404 127.721  0.00  0.00    +0.209 HD
ENDBRANCH  37  38
ENDBRANCH  31  37
ENDBRANCH  27  28
ENDBRANCH  26  27
ENDBRANCH   3  26
TORSDOF 15
ENDMDL
MODEL 9
REMARK VINA RESULT:      -6.7      2.268      3.864
REMARK  Name = NuBBE_118
REMARK  18 active torsions:
REMARK  status: ('A' for Active; 'I' for Inactive)
REMARK    1  A    between atoms: C_1  and  O_2
REMARK    2  A    between atoms: O_2  and  C_3
REMARK    3  A    between atoms: C_5  and  O_6
REMARK    4  A    between atoms: O_6  and  C_7
REMARK    5  A    between atoms: C_10  and  C_21
REMARK    6  A    between atoms: C_12  and  O_20
REMARK    7  A    between atoms: C_14  and  O_19
REMARK    8  A    between atoms: C_16  and  O_18
REMARK    9  A    between atoms: C_21  and  O_22
REMARK   10  A    between atoms: O_22  and  C_23
REMARK   11  A    between atoms: C_27  and  C_28
REMARK   12  A    between atoms: C_27  and  O_33
REMARK   13  A    between atoms: C_28  and  O_29
REMARK   14  A    between atoms: C_30  and  O_32
REMARK   15  A    between atoms: C_35  and  O_36
REMARK   16  A    between atoms: O_36  and  C_37
REMARK   17  A    between atoms: C_38  and  O_39
REMARK   18  A    between atoms: O_39  and  C_40
REMARK                            x       y       z     vdW  Elec       q    Type
REMARK                         _______ _______ _______ _____ _____    ______ ____
ROOT
ATOM      1  C   LIG A   1      -7.185  -0.688 129.646  0.00  0.00    +0.339 C 
ATOM      2  O   LIG A   1      -6.860   0.699 129.769  0.00  0.00    -0.331 OA
ATOM      3  C   LIG A   1      -7.617   1.410 130.754  0.00  0.00    +0.179 C 
ATOM      4  C   LIG A   1      -7.393   0.768 132.130  0.00  0.00    +0.177 C 
ATOM      5  C   LIG A   1      -7.868  -0.685 132.061  0.00  0.00    +0.180 C 
ATOM      6  C   LIG A   1      -7.104  -1.442 130.981  0.00  0.00    +0.214 C 
ENDROOT
BRANCH   6   7
ATOM      7  O   LIG A   1      -7.671  -2.761 130.856  0.00  0.00    -0.383 OA
ATOM      8  H   LIG A   1      -8.372  -2.806 131.535  0.00  0.00    +0.210 HD
ENDBRANCH   6   7
BRANCH   5   9
ATOM      9  O   LIG A   1      -7.663  -1.338 133.323  0.00  0.00    -0.386 OA
ATOM     10  H   LIG A   1      -8.290  -0.904 133.936  0.00  0.00    +0.210 HD
ENDBRANCH   5   9
BRANCH   4  11
ATOM     11  O   LIG A   1      -8.128   1.424 133.167  0.00  0.00    -0.387 OA
ATOM     12  H   LIG A   1      -8.921   1.810 132.751  0.00  0.00    +0.210 HD
ENDBRANCH   4  11
BRANCH   1  13
ATOM     13  O   LIG A   1      -6.239  -1.312 128.778  0.00  0.00    -0.461 OA
BRANCH  13  16
ATOM     14  C   LIG A   1      -8.386  -1.091 125.852  0.00  0.00    +0.169 A 
ATOM     15  C   LIG A   1      -7.917  -1.066 127.167  0.00  0.00    +0.095 A 
ATOM     16  C   LIG A   1      -6.600  -1.436 127.461  0.00  0.00    +0.131 A 
ATOM     17  C   LIG A   1      -5.764  -1.849 126.423  0.00  0.00    +0.095 A 
ATOM     18  C   LIG A   1      -6.209  -1.892 125.097  0.00  0.00    +0.169 A 
ATOM     19  C   LIG A   1      -7.545  -1.549 124.813  0.00  0.00    +0.204 A 
BRANCH  14  21
ATOM     20  C   LIG A   1      -9.816   0.763 125.366  0.00  0.00    +0.277 C 
ATOM     21  O   LIG A   1      -9.633  -0.642 125.484  0.00  0.00    -0.491 OA
ENDBRANCH  14  21
BRANCH  18  22
ATOM     22  O   LIG A   1      -5.208  -2.287 124.257  0.00  0.00    -0.491 OA
ATOM     23  C   LIG A   1      -5.037  -3.667 124.000  0.00  0.00    +0.277 C 
ENDBRANCH  18  22
BRANCH  19  24
ATOM     24  O   LIG A   1      -7.969  -1.612 123.511  0.00  0.00    -0.488 OA
ATOM     25  C   LIG A   1      -8.653  -2.816 123.168  0.00  0.00    +0.277 C 
ENDBRANCH  19  24
ENDBRANCH  13  16
ENDBRANCH   1  13
BRANCH   3  26
ATOM     26  C   LIG A   1      -7.188   2.888 130.714  0.00  0.00    +0.197 C 
BRANCH  26  27
ATOM     27  O   LIG A   1      -8.150   3.654 129.982  0.00  0.00    -0.346 OA
BRANCH  27  28
ATOM     28  C   LIG A   1      -9.402   3.752 130.660  0.00  0.00    +0.282 C 
ATOM     29  O   LIG A   1     -10.373   4.496 129.899  0.00  0.00    -0.346 OA
ATOM     30  C   LIG A   1     -10.892   5.529 130.753  0.00  0.00    +0.203 C 
ATOM     31  C   LIG A   1      -9.761   5.884 131.708  0.00  0.00    +0.142 C 
ATOM     32  C   LIG A   1      -9.183   4.497 131.986  0.00  0.00    +0.206 C 
BRANCH  32  33
ATOM     33  O   LIG A   1      -9.941   3.868 133.039  0.00  0.00    -0.384 OA
ATOM     34  H   LIG A   1      -9.956   2.914 132.804  0.00  0.00    +0.210 HD
ENDBRANCH  32  33
BRANCH  31  35
ATOM     35  O   LIG A   1     -10.249   6.434 132.945  0.00  0.00    -0.381 OA
ATOM     36  H   LIG A   1      -9.478   6.792 133.424  0.00  0.00    +0.210 HD
ENDBRANCH  31  35
BRANCH  31  37
ATOM     37  C   LIG A   1      -8.745   6.828 131.038  0.00  0.00    +0.195 C 
BRANCH  37  38
ATOM     38  O   LIG A   1      -9.276   7.287 129.792  0.00  0.00    -0.392 OA
ATOM     39  H   LIG A   1     -10.119   7.738 129.989  0.00  0.00    +0.209 HD
ENDBRANCH  37  38
ENDBRANCH  31  37
ENDBRANCH  27  28
ENDBRANCH  26  27
ENDBRANCH   3  26
TORSDOF 15
ENDMDL
