MODEL 1
REMARK VINA RESULT:      -7.4      0.000      0.000
REMARK  Name = NuBBE_2522
REMARK  9 active torsions:
REMARK  status: ('A' for Active; 'I' for Inactive)
REMARK    1  A    between atoms: O_1  and  C_2
REMARK    2  A    between atoms: O_1  and  C_3
REMARK    3  A    between atoms: C_6  and  O_13
REMARK    4  A    between atoms: C_7  and  O_11
REMARK    5  A    between atoms: C_8  and  O_9
REMARK    6  A    between atoms: O_9  and  C_10
REMARK    7  A    between atoms: O_11  and  C_12
REMARK    8  A    between atoms: C_17  and  C_19
REMARK    9  A    between atoms: C_22  and  O_25
REMARK                            x       y       z     vdW  Elec       q    Type
REMARK                         _______ _______ _______ _____ _____    ______ ____
ROOT
ATOM      1  C   UNL A   1      -8.202   0.105 123.863  0.00  0.00    +0.209 A 
ATOM      2  C   UNL A   1      -7.344   1.213 123.923  0.00  0.00    +0.188 A 
ATOM      3  C   UNL A   1      -6.718   1.520 125.133  0.00  0.00    +0.113 A 
ATOM      4  C   UNL A   1      -6.977   0.755 126.291  0.00  0.00    +0.177 A 
ATOM      5  C   UNL A   1      -7.878  -0.333 126.254  0.00  0.00    +0.208 A 
ATOM      6  C   UNL A   1      -8.480  -0.673 125.028  0.00  0.00    +0.211 A 
ATOM      7  C   UNL A   1      -5.847   2.709 125.169  0.00  0.00    +0.197 A 
ATOM      8  O   UNL A   1      -5.251   3.024 126.196  0.00  0.00    -0.287 OA
ATOM      9  C   UNL A   1      -5.720   3.515 123.947  0.00  0.00    +0.098 A 
ATOM     10  C   UNL A   1      -6.389   3.119 122.858  0.00  0.00    +0.139 A 
ATOM     11  O   UNL A   1      -7.191   2.000 122.806  0.00  0.00    -0.451 OA
ENDROOT
BRANCH  10  12
ATOM     12  C   UNL A   1      -6.289   3.870 121.601  0.00  0.00    +0.018 A 
ATOM     13  C   UNL A   1      -7.326   3.797 120.655  0.00  0.00    +0.015 A 
ATOM     14  C   UNL A   1      -7.204   4.421 119.411  0.00  0.00    +0.046 A 
ATOM     15  C   UNL A   1      -6.046   5.129 119.110  0.00  0.00    +0.117 A 
ATOM     16  C   UNL A   1      -5.025   5.251 120.043  0.00  0.00    +0.046 A 
ATOM     17  C   UNL A   1      -5.148   4.617 121.293  0.00  0.00    +0.015 A 
BRANCH  15  18
ATOM     18  O   UNL A   1      -5.869   5.715 117.891  0.00  0.00    -0.507 OA
ATOM     19  H   UNL A   1      -6.718   5.721 117.419  0.00  0.00    +0.292 HD
ENDBRANCH  15  18
ENDBRANCH  10  12
BRANCH   1  20
ATOM     20  O   UNL A   1      -8.934  -0.264 122.754  0.00  0.00    -0.488 OA
ATOM     21  C   UNL A   1     -10.110   0.461 122.438  0.00  0.00    +0.277 C 
ENDBRANCH   1  20
BRANCH   6  22
ATOM     22  O   UNL A   1      -9.412  -1.650 124.778  0.00  0.00    -0.488 OA
ATOM     23  C   UNL A   1      -9.070  -3.012 124.651  0.00  0.00    +0.277 C 
ENDBRANCH   6  22
BRANCH   5  24
ATOM     24  O   UNL A   1      -8.365  -0.792 127.456  0.00  0.00    -0.488 OA
ATOM     25  C   UNL A   1      -7.805  -2.010 127.937  0.00  0.00    +0.277 C 
ENDBRANCH   5  24
BRANCH   4  26
ATOM     26  O   UNL A   1      -6.392   1.081 127.497  0.00  0.00    -0.503 OA
ATOM     27  H   UNL A   1      -6.600   2.019 127.706  0.00  0.00    +0.292 HD
ENDBRANCH   4  26
TORSDOF 6
ENDMDL
MODEL 2
REMARK VINA RESULT:      -7.2      1.290      3.270
REMARK  Name = NuBBE_2522
REMARK  9 active torsions:
REMARK  status: ('A' for Active; 'I' for Inactive)
REMARK    1  A    between atoms: O_1  and  C_2
REMARK    2  A    between atoms: O_1  and  C_3
REMARK    3  A    between atoms: C_6  and  O_13
REMARK    4  A    between atoms: C_7  and  O_11
REMARK    5  A    between atoms: C_8  and  O_9
REMARK    6  A    between atoms: O_9  and  C_10
REMARK    7  A    between atoms: O_11  and  C_12
REMARK    8  A    between atoms: C_17  and  C_19
REMARK    9  A    between atoms: C_22  and  O_25
REMARK                            x       y       z     vdW  Elec       q    Type
REMARK                         _______ _______ _______ _____ _____    ______ ____
ROOT
ATOM      1  C   UNL A   1      -6.297   1.274 125.739  0.00  0.00    +0.209 A 
ATOM      2  C   UNL A   1      -7.182   1.592 124.699  0.00  0.00    +0.188 A 
ATOM      3  C   UNL A   1      -8.464   1.040 124.708  0.00  0.00    +0.113 A 
ATOM      4  C   UNL A   1      -8.853   0.139 125.723  0.00  0.00    +0.177 A 
ATOM      5  C   UNL A   1      -7.952  -0.228 126.749  0.00  0.00    +0.208 A 
ATOM      6  C   UNL A   1      -6.673   0.358 126.769  0.00  0.00    +0.211 A 
ATOM      7  C   UNL A   1      -9.358   1.370 123.583  0.00  0.00    +0.197 A 
ATOM      8  O   UNL A   1     -10.506   0.933 123.539  0.00  0.00    -0.287 OA
ATOM      9  C   UNL A   1      -8.837   2.227 122.509  0.00  0.00    +0.098 A 
ATOM     10  C   UNL A   1      -7.582   2.677 122.614  0.00  0.00    +0.139 A 
ATOM     11  O   UNL A   1      -6.742   2.391 123.669  0.00  0.00    -0.451 OA
ENDROOT
BRANCH  10  12
ATOM     12  C   UNL A   1      -7.008   3.552 121.585  0.00  0.00    +0.018 A 
ATOM     13  C   UNL A   1      -7.746   3.850 120.426  0.00  0.00    +0.015 A 
ATOM     14  C   UNL A   1      -7.179   4.596 119.390  0.00  0.00    +0.046 A 
ATOM     15  C   UNL A   1      -5.873   5.055 119.511  0.00  0.00    +0.117 A 
ATOM     16  C   UNL A   1      -5.137   4.810 120.664  0.00  0.00    +0.046 A 
ATOM     17  C   UNL A   1      -5.708   4.053 121.703  0.00  0.00    +0.015 A 
BRANCH  15  18
ATOM     18  O   UNL A   1      -5.267   5.749 118.504  0.00  0.00    -0.507 OA
ATOM     19  H   UNL A   1      -4.591   5.184 118.096  0.00  0.00    +0.292 HD
ENDBRANCH  15  18
ENDBRANCH  10  12
BRANCH   1  20
ATOM     20  O   UNL A   1      -4.986   1.693 125.812  0.00  0.00    -0.488 OA
ATOM     21  C   UNL A   1      -4.713   3.013 126.252  0.00  0.00    +0.277 C 
ENDBRANCH   1  20
BRANCH   6  22
ATOM     22  O   UNL A   1      -5.636   0.112 127.634  0.00  0.00    -0.488 OA
ATOM     23  C   UNL A   1      -5.696   0.439 129.005  0.00  0.00    +0.277 C 
ENDBRANCH   6  22
BRANCH   5  24
ATOM     24  O   UNL A   1      -8.246  -1.360 127.473  0.00  0.00    -0.488 OA
ATOM     25  C   UNL A   1      -7.691  -2.578 126.986  0.00  0.00    +0.277 C 
ENDBRANCH   5  24
BRANCH   4  26
ATOM     26  O   UNL A   1     -10.104  -0.441 125.711  0.00  0.00    -0.503 OA
ATOM     27  H   UNL A   1     -10.662  -0.003 126.392  0.00  0.00    +0.292 HD
ENDBRANCH   4  26
TORSDOF 6
ENDMDL
MODEL 3
REMARK VINA RESULT:      -6.8      1.709      3.745
REMARK  Name = NuBBE_2522
REMARK  9 active torsions:
REMARK  status: ('A' for Active; 'I' for Inactive)
REMARK    1  A    between atoms: O_1  and  C_2
REMARK    2  A    between atoms: O_1  and  C_3
REMARK    3  A    between atoms: C_6  and  O_13
REMARK    4  A    between atoms: C_7  and  O_11
REMARK    5  A    between atoms: C_8  and  O_9
REMARK    6  A    between atoms: O_9  and  C_10
REMARK    7  A    between atoms: O_11  and  C_12
REMARK    8  A    between atoms: C_17  and  C_19
REMARK    9  A    between atoms: C_22  and  O_25
REMARK                            x       y       z     vdW  Elec       q    Type
REMARK                         _______ _______ _______ _____ _____    ______ ____
ROOT
ATOM      1  C   UNL A   1      -6.381  -0.516 126.321  0.00  0.00    +0.209 A 
ATOM      2  C   UNL A   1      -7.028   0.032 125.204  0.00  0.00    +0.188 A 
ATOM      3  C   UNL A   1      -8.195  -0.573 124.733  0.00  0.00    +0.113 A 
ATOM      4  C   UNL A   1      -8.694  -1.744 125.341  0.00  0.00    +0.177 A 
ATOM      5  C   UNL A   1      -8.022  -2.335 126.436  0.00  0.00    +0.208 A 
ATOM      6  C   UNL A   1      -6.869  -1.706 126.943  0.00  0.00    +0.211 A 
ATOM      7  C   UNL A   1      -8.832   0.010 123.538  0.00  0.00    +0.197 A 
ATOM      8  O   UNL A   1      -9.871  -0.461 123.083  0.00  0.00    -0.287 OA
ATOM      9  C   UNL A   1      -8.185   1.164 122.898  0.00  0.00    +0.098 A 
ATOM     10  C   UNL A   1      -7.058   1.637 123.442  0.00  0.00    +0.139 A 
ATOM     11  O   UNL A   1      -6.462   1.113 124.569  0.00  0.00    -0.451 OA
ENDROOT
BRANCH  10  12
ATOM     12  C   UNL A   1      -6.374   2.799 122.862  0.00  0.00    +0.018 A 
ATOM     13  C   UNL A   1      -6.260   2.922 121.467  0.00  0.00    +0.015 A 
ATOM     14  C   UNL A   1      -5.525   3.966 120.898  0.00  0.00    +0.046 A 
ATOM     15  C   UNL A   1      -4.906   4.897 121.724  0.00  0.00    +0.117 A 
ATOM     16  C   UNL A   1      -5.040   4.822 123.105  0.00  0.00    +0.046 A 
ATOM     17  C   UNL A   1      -5.776   3.766 123.675  0.00  0.00    +0.015 A 
BRANCH  15  18
ATOM     18  O   UNL A   1      -4.143   5.905 121.212  0.00  0.00    -0.507 OA
ATOM     19  H   UNL A   1      -4.702   6.690 121.089  0.00  0.00    +0.292 HD
ENDBRANCH  15  18
ENDBRANCH  10  12
BRANCH   1  20
ATOM     20  O   UNL A   1      -5.188  -0.060 126.841  0.00  0.00    -0.488 OA
ATOM     21  C   UNL A   1      -5.189   1.128 127.614  0.00  0.00    +0.277 C 
ENDBRANCH   1  20
BRANCH   6  22
ATOM     22  O   UNL A   1      -6.044  -2.127 127.955  0.00  0.00    -0.488 OA
ATOM     23  C   UNL A   1      -6.380  -1.988 129.318  0.00  0.00    +0.277 C 
ENDBRANCH   6  22
BRANCH   5  24
ATOM     24  O   UNL A   1      -8.333  -3.640 126.739  0.00  0.00    -0.488 OA
ATOM     25  C   UNL A   1      -9.076  -3.848 127.936  0.00  0.00    +0.277 C 
ENDBRANCH   5  24
BRANCH   4  26
ATOM     26  O   UNL A   1      -9.823  -2.368 124.852  0.00  0.00    -0.503 OA
ATOM     27  H   UNL A   1      -9.550  -3.163 124.343  0.00  0.00    +0.292 HD
ENDBRANCH   4  26
TORSDOF 6
ENDMDL
MODEL 4
REMARK VINA RESULT:      -6.7      3.414      9.128
REMARK  Name = NuBBE_2522
REMARK  9 active torsions:
REMARK  status: ('A' for Active; 'I' for Inactive)
REMARK    1  A    between atoms: O_1  and  C_2
REMARK    2  A    between atoms: O_1  and  C_3
REMARK    3  A    between atoms: C_6  and  O_13
REMARK    4  A    between atoms: C_7  and  O_11
REMARK    5  A    between atoms: C_8  and  O_9
REMARK    6  A    between atoms: O_9  and  C_10
REMARK    7  A    between atoms: O_11  and  C_12
REMARK    8  A    between atoms: C_17  and  C_19
REMARK    9  A    between atoms: C_22  and  O_25
REMARK                            x       y       z     vdW  Elec       q    Type
REMARK                         _______ _______ _______ _____ _____    ______ ____
ROOT
ATOM      1  C   UNL A   1      -6.466  -1.016 126.144  0.00  0.00    +0.209 A 
ATOM      2  C   UNL A   1      -6.896  -1.953 127.094  0.00  0.00    +0.188 A 
ATOM      3  C   UNL A   1      -8.131  -2.580 126.916  0.00  0.00    +0.113 A 
ATOM      4  C   UNL A   1      -8.956  -2.246 125.820  0.00  0.00    +0.177 A 
ATOM      5  C   UNL A   1      -8.555  -1.266 124.883  0.00  0.00    +0.208 A 
ATOM      6  C   UNL A   1      -7.293  -0.661 125.034  0.00  0.00    +0.211 A 
ATOM      7  C   UNL A   1      -8.567  -3.537 127.949  0.00  0.00    +0.197 A 
ATOM      8  O   UNL A   1      -9.634  -4.138 127.844  0.00  0.00    -0.287 OA
ATOM      9  C   UNL A   1      -7.698  -3.744 129.115  0.00  0.00    +0.098 A 
ATOM     10  C   UNL A   1      -6.546  -3.066 129.172  0.00  0.00    +0.139 A 
ATOM     11  O   UNL A   1      -6.118  -2.183 128.204  0.00  0.00    -0.451 OA
ENDROOT
BRANCH  10  12
ATOM     12  C   UNL A   1      -5.625  -3.243 130.301  0.00  0.00    +0.018 A 
ATOM     13  C   UNL A   1      -4.650  -2.268 130.571  0.00  0.00    +0.015 A 
ATOM     14  C   UNL A   1      -3.699  -2.466 131.576  0.00  0.00    +0.046 A 
ATOM     15  C   UNL A   1      -3.724  -3.638 132.321  0.00  0.00    +0.117 A 
ATOM     16  C   UNL A   1      -4.704  -4.599 132.103  0.00  0.00    +0.046 A 
ATOM     17  C   UNL A   1      -5.656  -4.400 131.086  0.00  0.00    +0.015 A 
BRANCH  15  18
ATOM     18  O   UNL A   1      -2.788  -3.890 133.281  0.00  0.00    -0.507 OA
ATOM     19  H   UNL A   1      -2.070  -3.242 133.197  0.00  0.00    +0.292 HD
ENDBRANCH  15  18
ENDBRANCH  10  12
BRANCH   1  20
ATOM     20  O   UNL A   1      -5.306  -0.277 126.237  0.00  0.00    -0.488 OA
ATOM     21  C   UNL A   1      -5.249   0.795 127.162  0.00  0.00    +0.277 C 
ENDBRANCH   1  20
BRANCH   6  22
ATOM     22  O   UNL A   1      -6.730   0.337 124.278  0.00  0.00    -0.488 OA
ATOM     23  C   UNL A   1      -7.277   1.635 124.206  0.00  0.00    +0.277 C 
ENDBRANCH   6  22
BRANCH   5  24
ATOM     24  O   UNL A   1      -9.529  -0.727 124.076  0.00  0.00    -0.488 OA
ATOM     25  C   UNL A   1      -9.456  -1.062 122.694  0.00  0.00    +0.277 C 
ENDBRANCH   5  24
BRANCH   4  26
ATOM     26  O   UNL A   1     -10.195  -2.833 125.664  0.00  0.00    -0.503 OA
ATOM     27  H   UNL A   1     -10.783  -2.208 125.186  0.00  0.00    +0.292 HD
ENDBRANCH   4  26
TORSDOF 6
ENDMDL
MODEL 5
REMARK VINA RESULT:      -6.7      6.328      8.140
REMARK  Name = NuBBE_2522
REMARK  9 active torsions:
REMARK  status: ('A' for Active; 'I' for Inactive)
REMARK    1  A    between atoms: O_1  and  C_2
REMARK    2  A    between atoms: O_1  and  C_3
REMARK    3  A    between atoms: C_6  and  O_13
REMARK    4  A    between atoms: C_7  and  O_11
REMARK    5  A    between atoms: C_8  and  O_9
REMARK    6  A    between atoms: O_9  and  C_10
REMARK    7  A    between atoms: O_11  and  C_12
REMARK    8  A    between atoms: C_17  and  C_19
REMARK    9  A    between atoms: C_22  and  O_25
REMARK                            x       y       z     vdW  Elec       q    Type
REMARK                         _______ _______ _______ _____ _____    ______ ____
ROOT
ATOM      1  C   UNL A   1      -8.545   2.320 128.973  0.00  0.00    +0.209 A 
ATOM      2  C   UNL A   1      -9.014   3.196 129.962  0.00  0.00    +0.188 A 
ATOM      3  C   UNL A   1      -8.826   2.864 131.306  0.00  0.00    +0.113 A 
ATOM      4  C   UNL A   1      -8.214   1.644 131.666  0.00  0.00    +0.177 A 
ATOM      5  C   UNL A   1      -7.782   0.730 130.678  0.00  0.00    +0.208 A 
ATOM      6  C   UNL A   1      -7.930   1.079 129.322  0.00  0.00    +0.211 A 
ATOM      7  C   UNL A   1      -9.360   3.791 132.320  0.00  0.00    +0.197 A 
ATOM      8  O   UNL A   1      -9.212   3.568 133.519  0.00  0.00    -0.287 OA
ATOM      9  C   UNL A   1     -10.083   4.984 131.859  0.00  0.00    +0.098 A 
ATOM     10  C   UNL A   1     -10.208   5.176 130.541  0.00  0.00    +0.139 A 
ATOM     11  O   UNL A   1      -9.698   4.327 129.583  0.00  0.00    -0.451 OA
ENDROOT
BRANCH  10  12
ATOM     12  C   UNL A   1     -10.903   6.357 130.017  0.00  0.00    +0.018 A 
ATOM     13  C   UNL A   1     -10.347   7.082 128.948  0.00  0.00    +0.015 A 
ATOM     14  C   UNL A   1     -10.939   8.266 128.502  0.00  0.00    +0.046 A 
ATOM     15  C   UNL A   1     -12.096   8.728 129.118  0.00  0.00    +0.117 A 
ATOM     16  C   UNL A   1     -12.689   8.008 130.149  0.00  0.00    +0.046 A 
ATOM     17  C   UNL A   1     -12.087   6.819 130.600  0.00  0.00    +0.015 A 
BRANCH  15  18
ATOM     18  O   UNL A   1     -12.681   9.902 128.743  0.00  0.00    -0.507 OA
ATOM     19  H   UNL A   1     -13.154  10.275 129.505  0.00  0.00    +0.292 HD
ENDBRANCH  15  18
ENDBRANCH  10  12
BRANCH   1  20
ATOM     20  O   UNL A   1      -8.727   2.494 127.618  0.00  0.00    -0.488 OA
ATOM     21  C   UNL A   1      -7.855   3.362 126.916  0.00  0.00    +0.277 C 
ENDBRANCH   1  20
BRANCH   6  22
ATOM     22  O   UNL A   1      -7.628   0.330 128.212  0.00  0.00    -0.488 OA
ATOM     23  C   UNL A   1      -6.302   0.082 127.799  0.00  0.00    +0.277 C 
ENDBRANCH   6  22
BRANCH   5  24
ATOM     24  O   UNL A   1      -7.543  -0.565 131.075  0.00  0.00    -0.488 OA
ATOM     25  C   UNL A   1      -6.178  -0.920 131.272  0.00  0.00    +0.277 C 
ENDBRANCH   5  24
BRANCH   4  26
ATOM     26  O   UNL A   1      -8.065   1.293 132.992  0.00  0.00    -0.503 OA
ATOM     27  H   UNL A   1      -8.825   1.652 133.502  0.00  0.00    +0.292 HD
ENDBRANCH   4  26
TORSDOF 6
ENDMDL
MODEL 6
REMARK VINA RESULT:      -6.7      2.168      8.080
REMARK  Name = NuBBE_2522
REMARK  9 active torsions:
REMARK  status: ('A' for Active; 'I' for Inactive)
REMARK    1  A    between atoms: O_1  and  C_2
REMARK    2  A    between atoms: O_1  and  C_3
REMARK    3  A    between atoms: C_6  and  O_13
REMARK    4  A    between atoms: C_7  and  O_11
REMARK    5  A    between atoms: C_8  and  O_9
REMARK    6  A    between atoms: O_9  and  C_10
REMARK    7  A    between atoms: O_11  and  C_12
REMARK    8  A    between atoms: C_17  and  C_19
REMARK    9  A    between atoms: C_22  and  O_25
REMARK                            x       y       z     vdW  Elec       q    Type
REMARK                         _______ _______ _______ _____ _____    ______ ____
ROOT
ATOM      1  C   UNL A   1      -6.897   1.748 125.264  0.00  0.00    +0.209 A 
ATOM      2  C   UNL A   1      -7.403   0.446 125.387  0.00  0.00    +0.188 A 
ATOM      3  C   UNL A   1      -8.345  -0.005 124.460  0.00  0.00    +0.113 A 
ATOM      4  C   UNL A   1      -8.817   0.850 123.440  0.00  0.00    +0.177 A 
ATOM      5  C   UNL A   1      -8.352   2.181 123.338  0.00  0.00    +0.208 A 
ATOM      6  C   UNL A   1      -7.371   2.627 124.243  0.00  0.00    +0.211 A 
ATOM      7  C   UNL A   1      -8.879  -1.368 124.635  0.00  0.00    +0.197 A 
ATOM      8  O   UNL A   1      -9.696  -1.833 123.845  0.00  0.00    -0.287 OA
ATOM      9  C   UNL A   1      -8.417  -2.152 125.789  0.00  0.00    +0.098 A 
ATOM     10  C   UNL A   1      -7.522  -1.595 126.613  0.00  0.00    +0.139 A 
ATOM     11  O   UNL A   1      -7.002  -0.329 126.450  0.00  0.00    -0.451 OA
ENDROOT
BRANCH  10  12
ATOM     12  C   UNL A   1      -7.007  -2.333 127.772  0.00  0.00    +0.018 A 
ATOM     13  C   UNL A   1      -7.898  -2.978 128.647  0.00  0.00    +0.015 A 
ATOM     14  C   UNL A   1      -7.435  -3.598 129.810  0.00  0.00    +0.046 A 
ATOM     15  C   UNL A   1      -6.076  -3.583 130.101  0.00  0.00    +0.117 A 
ATOM     16  C   UNL A   1      -5.170  -2.988 129.231  0.00  0.00    +0.046 A 
ATOM     17  C   UNL A   1      -5.640  -2.360 128.063  0.00  0.00    +0.015 A 
BRANCH  15  18
ATOM     18  O   UNL A   1      -5.589  -4.138 131.247  0.00  0.00    -0.507 OA
ATOM     19  H   UNL A   1      -5.800  -5.085 131.252  0.00  0.00    +0.292 HD
ENDBRANCH  15  18
ENDBRANCH  10  12
BRANCH   1  20
ATOM     20  O   UNL A   1      -6.020   2.337 126.149  0.00  0.00    -0.488 OA
ATOM     21  C   UNL A   1      -4.679   1.879 126.192  0.00  0.00    +0.277 C 
ENDBRANCH   1  20
BRANCH   6  22
ATOM     22  O   UNL A   1      -6.821   3.880 124.354  0.00  0.00    -0.488 OA
ATOM     23  C   UNL A   1      -5.749   4.314 123.546  0.00  0.00    +0.277 C 
ENDBRANCH   6  22
BRANCH   5  24
ATOM     24  O   UNL A   1      -9.100   3.055 122.585  0.00  0.00    -0.488 OA
ATOM     25  C   UNL A   1      -8.546   3.434 121.328  0.00  0.00    +0.277 C 
ENDBRANCH   5  24
BRANCH   4  26
ATOM     26  O   UNL A   1      -9.779   0.422 122.549  0.00  0.00    -0.503 OA
ATOM     27  H   UNL A   1      -9.370   0.334 121.660  0.00  0.00    +0.292 HD
ENDBRANCH   4  26
TORSDOF 6
ENDMDL
MODEL 7
REMARK VINA RESULT:      -6.6      2.069      4.160
REMARK  Name = NuBBE_2522
REMARK  9 active torsions:
REMARK  status: ('A' for Active; 'I' for Inactive)
REMARK    1  A    between atoms: O_1  and  C_2
REMARK    2  A    between atoms: O_1  and  C_3
REMARK    3  A    between atoms: C_6  and  O_13
REMARK    4  A    between atoms: C_7  and  O_11
REMARK    5  A    between atoms: C_8  and  O_9
REMARK    6  A    between atoms: O_9  and  C_10
REMARK    7  A    between atoms: O_11  and  C_12
REMARK    8  A    between atoms: C_17  and  C_19
REMARK    9  A    between atoms: C_22  and  O_25
REMARK                            x       y       z     vdW  Elec       q    Type
REMARK                         _______ _______ _______ _____ _____    ______ ____
ROOT
ATOM      1  C   UNL A   1      -6.577   3.712 126.808  0.00  0.00    +0.209 A 
ATOM      2  C   UNL A   1      -6.820   3.003 125.622  0.00  0.00    +0.188 A 
ATOM      3  C   UNL A   1      -7.353   1.715 125.701  0.00  0.00    +0.113 A 
ATOM      4  C   UNL A   1      -7.605   1.115 126.954  0.00  0.00    +0.177 A 
ATOM      5  C   UNL A   1      -7.317   1.801 128.156  0.00  0.00    +0.208 A 
ATOM      6  C   UNL A   1      -6.819   3.116 128.083  0.00  0.00    +0.211 A 
ATOM      7  C   UNL A   1      -7.567   0.985 124.438  0.00  0.00    +0.197 A 
ATOM      8  O   UNL A   1      -8.051  -0.144 124.434  0.00  0.00    -0.287 OA
ATOM      9  C   UNL A   1      -7.174   1.640 123.182  0.00  0.00    +0.098 A 
ATOM     10  C   UNL A   1      -6.657   2.872 123.248  0.00  0.00    +0.139 A 
ATOM     11  O   UNL A   1      -6.469   3.572 124.420  0.00  0.00    -0.451 OA
ENDROOT
BRANCH  10  12
ATOM     12  C   UNL A   1      -6.263   3.587 122.029  0.00  0.00    +0.018 A 
ATOM     13  C   UNL A   1      -5.083   4.351 122.013  0.00  0.00    +0.015 A 
ATOM     14  C   UNL A   1      -4.744   5.121 120.898  0.00  0.00    +0.046 A 
ATOM     15  C   UNL A   1      -5.580   5.124 119.787  0.00  0.00    +0.117 A 
ATOM     16  C   UNL A   1      -6.730   4.344 119.761  0.00  0.00    +0.046 A 
ATOM     17  C   UNL A   1      -7.072   3.575 120.888  0.00  0.00    +0.015 A 
BRANCH  15  18
ATOM     18  O   UNL A   1      -5.308   5.895 118.695  0.00  0.00    -0.507 OA
ATOM     19  H   UNL A   1      -4.612   6.532 118.926  0.00  0.00    +0.292 HD
ENDBRANCH  15  18
ENDBRANCH  10  12
BRANCH   1  20
ATOM     20  O   UNL A   1      -5.990   4.958 126.873  0.00  0.00    -0.488 OA
ATOM     21  C   UNL A   1      -4.576   5.050 126.844  0.00  0.00    +0.277 C 
ENDBRANCH   1  20
BRANCH   6  22
ATOM     22  O   UNL A   1      -6.429   3.938 129.111  0.00  0.00    -0.488 OA
ATOM     23  C   UNL A   1      -7.351   4.537 129.996  0.00  0.00    +0.277 C 
ENDBRANCH   6  22
BRANCH   5  24
ATOM     24  O   UNL A   1      -7.230   1.052 129.306  0.00  0.00    -0.488 OA
ATOM     25  C   UNL A   1      -8.364   1.091 130.168  0.00  0.00    +0.277 C 
ENDBRANCH   5  24
BRANCH   4  26
ATOM     26  O   UNL A   1      -8.092  -0.172 127.036  0.00  0.00    -0.503 OA
ATOM     27  H   UNL A   1      -8.732  -0.316 126.303  0.00  0.00    +0.292 HD
ENDBRANCH   4  26
TORSDOF 6
ENDMDL
MODEL 8
REMARK VINA RESULT:      -6.5      3.451      9.016
REMARK  Name = NuBBE_2522
REMARK  9 active torsions:
REMARK  status: ('A' for Active; 'I' for Inactive)
REMARK    1  A    between atoms: O_1  and  C_2
REMARK    2  A    between atoms: O_1  and  C_3
REMARK    3  A    between atoms: C_6  and  O_13
REMARK    4  A    between atoms: C_7  and  O_11
REMARK    5  A    between atoms: C_8  and  O_9
REMARK    6  A    between atoms: O_9  and  C_10
REMARK    7  A    between atoms: O_11  and  C_12
REMARK    8  A    between atoms: C_17  and  C_19
REMARK    9  A    between atoms: C_22  and  O_25
REMARK                            x       y       z     vdW  Elec       q    Type
REMARK                         _______ _______ _______ _____ _____    ______ ____
ROOT
ATOM      1  C   UNL A   1      -8.045   0.960 127.195  0.00  0.00    +0.209 A 
ATOM      2  C   UNL A   1      -8.029  -0.437 127.314  0.00  0.00    +0.188 A 
ATOM      3  C   UNL A   1      -8.527  -1.212 126.263  0.00  0.00    +0.113 A 
ATOM      4  C   UNL A   1      -9.078  -0.600 125.117  0.00  0.00    +0.177 A 
ATOM      5  C   UNL A   1      -9.145   0.808 125.008  0.00  0.00    +0.208 A 
ATOM      6  C   UNL A   1      -8.607   1.593 126.045  0.00  0.00    +0.211 A 
ATOM      7  C   UNL A   1      -8.525  -2.676 126.433  0.00  0.00    +0.197 A 
ATOM      8  O   UNL A   1      -8.930  -3.416 125.540  0.00  0.00    -0.287 OA
ATOM      9  C   UNL A   1      -8.035  -3.228 127.704  0.00  0.00    +0.098 A 
ATOM     10  C   UNL A   1      -7.601  -2.373 128.637  0.00  0.00    +0.139 A 
ATOM     11  O   UNL A   1      -7.581  -1.003 128.484  0.00  0.00    -0.451 OA
ENDROOT
BRANCH  10  12
ATOM     12  C   UNL A   1      -7.082  -2.861 129.920  0.00  0.00    +0.018 A 
ATOM     13  C   UNL A   1      -6.144  -3.907 129.947  0.00  0.00    +0.015 A 
ATOM     14  C   UNL A   1      -5.715  -4.454 131.159  0.00  0.00    +0.046 A 
ATOM     15  C   UNL A   1      -6.218  -3.951 132.353  0.00  0.00    +0.117 A 
ATOM     16  C   UNL A   1      -7.115  -2.889 132.356  0.00  0.00    +0.046 A 
ATOM     17  C   UNL A   1      -7.549  -2.345 131.133  0.00  0.00    +0.015 A 
BRANCH  15  18
ATOM     18  O   UNL A   1      -5.860  -4.486 133.556  0.00  0.00    -0.507 OA
ATOM     19  H   UNL A   1      -5.089  -5.062 133.426  0.00  0.00    +0.292 HD
ENDBRANCH  15  18
ENDBRANCH  10  12
BRANCH   1  20
ATOM     20  O   UNL A   1      -7.651   1.837 128.183  0.00  0.00    -0.488 OA
ATOM     21  C   UNL A   1      -8.532   2.092 129.263  0.00  0.00    +0.277 C 
ENDBRANCH   1  20
BRANCH   6  22
ATOM     22  O   UNL A   1      -8.609   2.961 126.167  0.00  0.00    -0.488 OA
ATOM     23  C   UNL A   1      -7.780   3.795 125.388  0.00  0.00    +0.277 C 
ENDBRANCH   6  22
BRANCH   5  24
ATOM     24  O   UNL A   1     -10.006   1.329 124.071  0.00  0.00    -0.488 OA
ATOM     25  C   UNL A   1      -9.410   1.809 122.869  0.00  0.00    +0.277 C 
ENDBRANCH   5  24
BRANCH   4  26
ATOM     26  O   UNL A   1      -9.609  -1.362 124.096  0.00  0.00    -0.503 OA
ATOM     27  H   UNL A   1     -10.362  -0.874 123.697  0.00  0.00    +0.292 HD
ENDBRANCH   4  26
TORSDOF 6
ENDMDL
MODEL 9
REMARK VINA RESULT:      -6.4      3.071      5.326
REMARK  Name = NuBBE_2522
REMARK  9 active torsions:
REMARK  status: ('A' for Active; 'I' for Inactive)
REMARK    1  A    between atoms: O_1  and  C_2
REMARK    2  A    between atoms: O_1  and  C_3
REMARK    3  A    between atoms: C_6  and  O_13
REMARK    4  A    between atoms: C_7  and  O_11
REMARK    5  A    between atoms: C_8  and  O_9
REMARK    6  A    between atoms: O_9  and  C_10
REMARK    7  A    between atoms: O_11  and  C_12
REMARK    8  A    between atoms: C_17  and  C_19
REMARK    9  A    between atoms: C_22  and  O_25
REMARK                            x       y       z     vdW  Elec       q    Type
REMARK                         _______ _______ _______ _____ _____    ______ ____
ROOT
ATOM      1  C   UNL A   1      -6.197  -0.789 125.461  0.00  0.00    +0.209 A 
ATOM      2  C   UNL A   1      -6.372   0.592 125.298  0.00  0.00    +0.188 A 
ATOM      3  C   UNL A   1      -7.380   1.052 124.448  0.00  0.00    +0.113 A 
ATOM      4  C   UNL A   1      -8.184   0.143 123.728  0.00  0.00    +0.177 A 
ATOM      5  C   UNL A   1      -7.983  -1.252 123.845  0.00  0.00    +0.208 A 
ATOM      6  C   UNL A   1      -6.997  -1.722 124.732  0.00  0.00    +0.211 A 
ATOM      7  C   UNL A   1      -7.517   2.510 124.276  0.00  0.00    +0.197 A 
ATOM      8  O   UNL A   1      -8.395   2.981 123.558  0.00  0.00    -0.287 OA
ATOM      9  C   UNL A   1      -6.567   3.385 124.977  0.00  0.00    +0.098 A 
ATOM     10  C   UNL A   1      -5.635   2.814 125.749  0.00  0.00    +0.139 A 
ATOM     11  O   UNL A   1      -5.508   1.454 125.933  0.00  0.00    -0.451 OA
ENDROOT
BRANCH  10  12
ATOM     12  C   UNL A   1      -4.669   3.633 126.490  0.00  0.00    +0.018 A 
ATOM     13  C   UNL A   1      -5.051   4.890 126.989  0.00  0.00    +0.015 A 
ATOM     14  C   UNL A   1      -4.119   5.728 127.608  0.00  0.00    +0.046 A 
ATOM     15  C   UNL A   1      -2.801   5.308 127.737  0.00  0.00    +0.117 A 
ATOM     16  C   UNL A   1      -2.407   4.052 127.290  0.00  0.00    +0.046 A 
ATOM     17  C   UNL A   1      -3.347   3.213 126.663  0.00  0.00    +0.015 A 
BRANCH  15  18
ATOM     18  O   UNL A   1      -1.850   6.112 128.295  0.00  0.00    -0.507 OA
ATOM     19  H   UNL A   1      -1.236   5.563 128.808  0.00  0.00    +0.292 HD
ENDBRANCH  15  18
ENDBRANCH  10  12
BRANCH   1  20
ATOM     20  O   UNL A   1      -5.199  -1.373 126.211  0.00  0.00    -0.488 OA
ATOM     21  C   UNL A   1      -5.386  -1.511 127.609  0.00  0.00    +0.277 C 
ENDBRANCH   1  20
BRANCH   6  22
ATOM     22  O   UNL A   1      -6.606  -3.017 124.962  0.00  0.00    -0.488 OA
ATOM     23  C   UNL A   1      -5.774  -3.730 124.072  0.00  0.00    +0.277 C 
ENDBRANCH   6  22
BRANCH   5  24
ATOM     24  O   UNL A   1      -8.524  -2.053 122.866  0.00  0.00    -0.488 OA
ATOM     25  C   UNL A   1      -9.451  -3.042 123.305  0.00  0.00    +0.277 C 
ENDBRANCH   5  24
BRANCH   4  26
ATOM     26  O   UNL A   1      -9.153   0.594 122.855  0.00  0.00    -0.503 OA
ATOM     27  H   UNL A   1      -9.650  -0.179 122.507  0.00  0.00    +0.292 HD
ENDBRANCH   4  26
TORSDOF 6
ENDMDL
