MODEL 1
REMARK VINA RESULT:      -7.3      0.000      0.000
REMARK  Name = NuBBE_2380
REMARK  12 active torsions:
REMARK  status: ('A' for Active; 'I' for Inactive)
REMARK    1  A    between atoms: C_1  and  C_26
REMARK    2  A    between atoms: C_1  and  C_27
REMARK    3  A    between atoms: C_3  and  C_4
REMARK    4  A    between atoms: C_4  and  O_6
REMARK    5  A    between atoms: O_6  and  C_7
REMARK    6  A    between atoms: C_9  and  O_21
REMARK    7  A    between atoms: C_10  and  O_11
REMARK    8  A    between atoms: O_11  and  C_12
REMARK    9  A    between atoms: C_13  and  C_18
REMARK   10  A    between atoms: C_18  and  C_19
REMARK   11  A    between atoms: C_18  and  C_20
REMARK   12  A    between atoms: O_21  and  C_22
REMARK                            x       y       z     vdW  Elec       q    Type
REMARK                         _______ _______ _______ _____ _____    ______ ____
ROOT
ATOM      1  C   LIG A   1      -7.977  -2.919 124.543  0.00  0.00    -0.027 C 
ATOM      2  C   LIG A   1      -8.265  -2.413 126.033  0.00  0.00    +0.039 C 
ATOM      3  C   LIG A   1      -7.052  -1.643 126.802  0.00  0.00    +0.103 C 
ATOM      4  C   LIG A   1      -6.906  -1.970 128.358  0.00  0.00    +0.022 A 
ATOM      5  C   LIG A   1      -5.944  -1.371 129.264  0.00  0.00    +0.167 A 
ATOM      6  C   LIG A   1      -5.928  -1.714 130.678  0.00  0.00    +0.165 A 
ATOM      7  C   LIG A   1      -6.922  -2.564 131.213  0.00  0.00    +0.001 A 
ATOM      8  C   LIG A   1      -7.808  -3.149 130.294  0.00  0.00    +0.016 A 
ATOM      9  C   LIG A   1      -7.791  -2.898 128.913  0.00  0.00    -0.017 A 
ATOM     10  C   LIG A   1      -8.728  -3.692 128.131  0.00  0.00    +0.004 C 
ATOM     11  C   LIG A   1      -8.944  -3.485 126.836  0.00  0.00    -0.021 C 
ATOM     12  C   LIG A   1      -5.743  -2.075 126.100  0.00  0.00    +0.023 C 
ATOM     13  C   LIG A   1      -5.660  -1.830 124.590  0.00  0.00    +0.002 C 
ATOM     14  C   LIG A   1      -6.974  -1.993 123.836  0.00  0.00    +0.007 C 
ATOM     15  C   LIG A   1      -9.294  -2.872 123.715  0.00  0.00    +0.011 C 
ATOM     16  C   LIG A   1      -7.463  -4.378 124.440  0.00  0.00    +0.011 C 
ENDROOT
BRANCH   7  17
ATOM     17  C   LIG A   1      -7.146  -2.963 132.670  0.00  0.00    +0.017 C 
ATOM     18  C   LIG A   1      -6.229  -4.114 133.094  0.00  0.00    +0.012 C 
ATOM     19  C   LIG A   1      -7.156  -1.784 133.651  0.00  0.00    +0.012 C 
ENDBRANCH   7  17
BRANCH   3  20
ATOM     20  C   LIG A   1      -7.474  -0.153 126.671  0.00  0.00    +0.318 C 
ATOM     21  O   LIG A   1      -6.801   0.698 126.028  0.00  0.00    -0.250 OA
BRANCH  20  22
ATOM     22  O   LIG A   1      -8.493   0.208 127.479  0.00  0.00    -0.467 OA
ATOM     23  C   LIG A   1      -8.503   1.535 128.041  0.00  0.00    +0.280 C 
ENDBRANCH  20  22
ENDBRANCH   3  20
BRANCH   6  24
ATOM     24  O   LIG A   1      -4.790  -1.376 131.376  0.00  0.00    -0.491 OA
ATOM     25  C   LIG A   1      -3.633  -2.200 131.351  0.00  0.00    +0.277 C 
ENDBRANCH   6  24
BRANCH   5  26
ATOM     26  O   LIG A   1      -4.998  -0.549 128.673  0.00  0.00    -0.491 OA
ATOM     27  C   LIG A   1      -4.929   0.845 128.990  0.00  0.00    +0.277 C 
ENDBRANCH   5  26
TORSDOF 5
ENDMDL
MODEL 2
REMARK VINA RESULT:      -7.1      1.701      2.350
REMARK  Name = NuBBE_2380
REMARK  12 active torsions:
REMARK  status: ('A' for Active; 'I' for Inactive)
REMARK    1  A    between atoms: C_1  and  C_26
REMARK    2  A    between atoms: C_1  and  C_27
REMARK    3  A    between atoms: C_3  and  C_4
REMARK    4  A    between atoms: C_4  and  O_6
REMARK    5  A    between atoms: O_6  and  C_7
REMARK    6  A    between atoms: C_9  and  O_21
REMARK    7  A    between atoms: C_10  and  O_11
REMARK    8  A    between atoms: O_11  and  C_12
REMARK    9  A    between atoms: C_13  and  C_18
REMARK   10  A    between atoms: C_18  and  C_19
REMARK   11  A    between atoms: C_18  and  C_20
REMARK   12  A    between atoms: O_21  and  C_22
REMARK                            x       y       z     vdW  Elec       q    Type
REMARK                         _______ _______ _______ _____ _____    ______ ____
ROOT
ATOM      1  C   LIG A   1      -8.280  -2.810 124.132  0.00  0.00    -0.027 C 
ATOM      2  C   LIG A   1      -8.673  -2.113 125.516  0.00  0.00    +0.039 C 
ATOM      3  C   LIG A   1      -7.845  -0.773 125.934  0.00  0.00    +0.103 C 
ATOM      4  C   LIG A   1      -7.498  -0.632 127.485  0.00  0.00    +0.022 A 
ATOM      5  C   LIG A   1      -6.822   0.492 128.105  0.00  0.00    +0.167 A 
ATOM      6  C   LIG A   1      -6.594   0.534 129.542  0.00  0.00    +0.165 A 
ATOM      7  C   LIG A   1      -7.123  -0.480 130.373  0.00  0.00    +0.001 A 
ATOM      8  C   LIG A   1      -7.735  -1.565 129.727  0.00  0.00    +0.016 A 
ATOM      9  C   LIG A   1      -7.895  -1.668 128.336  0.00  0.00    -0.017 A 
ATOM     10  C   LIG A   1      -8.461  -2.926 127.872  0.00  0.00    +0.004 C 
ATOM     11  C   LIG A   1      -8.810  -3.137 126.606  0.00  0.00    -0.021 C 
ATOM     12  C   LIG A   1      -6.513  -0.818 125.150  0.00  0.00    +0.023 C 
ATOM     13  C   LIG A   1      -6.615  -0.931 123.626  0.00  0.00    +0.002 C 
ATOM     14  C   LIG A   1      -7.783  -1.768 123.117  0.00  0.00    +0.007 C 
ATOM     15  C   LIG A   1      -9.540  -3.478 123.510  0.00  0.00    +0.011 C 
ATOM     16  C   LIG A   1      -7.217  -3.934 124.248  0.00  0.00    +0.011 C 
ENDROOT
BRANCH   7  17
ATOM     17  C   LIG A   1      -7.088  -0.571 131.897  0.00  0.00    +0.017 C 
ATOM     18  C   LIG A   1      -7.811   0.608 132.556  0.00  0.00    +0.012 C 
ATOM     19  C   LIG A   1      -7.495  -1.939 132.456  0.00  0.00    +0.012 C 
ENDBRANCH   7  17
BRANCH   3  20
ATOM     20  C   LIG A   1      -8.848   0.358 125.571  0.00  0.00    +0.318 C 
ATOM     21  O   LIG A   1     -10.088   0.271 125.780  0.00  0.00    -0.250 OA
BRANCH  20  22
ATOM     22  O   LIG A   1      -8.321   1.345 124.816  0.00  0.00    -0.467 OA
ATOM     23  C   LIG A   1      -9.197   2.353 124.274  0.00  0.00    +0.280 C 
ENDBRANCH  20  22
ENDBRANCH   3  20
BRANCH   6  24
ATOM     24  O   LIG A   1      -5.662   1.443 129.986  0.00  0.00    -0.491 OA
ATOM     25  C   LIG A   1      -4.283   1.111 130.072  0.00  0.00    +0.277 C 
ENDBRANCH   6  24
BRANCH   5  26
ATOM     26  O   LIG A   1      -6.329   1.448 127.231  0.00  0.00    -0.491 OA
ATOM     27  C   LIG A   1      -6.722   2.820 127.339  0.00  0.00    +0.277 C 
ENDBRANCH   5  26
TORSDOF 5
ENDMDL
MODEL 3
REMARK VINA RESULT:      -6.9      2.676      4.933
REMARK  Name = NuBBE_2380
REMARK  12 active torsions:
REMARK  status: ('A' for Active; 'I' for Inactive)
REMARK    1  A    between atoms: C_1  and  C_26
REMARK    2  A    between atoms: C_1  and  C_27
REMARK    3  A    between atoms: C_3  and  C_4
REMARK    4  A    between atoms: C_4  and  O_6
REMARK    5  A    between atoms: O_6  and  C_7
REMARK    6  A    between atoms: C_9  and  O_21
REMARK    7  A    between atoms: C_10  and  O_11
REMARK    8  A    between atoms: O_11  and  C_12
REMARK    9  A    between atoms: C_13  and  C_18
REMARK   10  A    between atoms: C_18  and  C_19
REMARK   11  A    between atoms: C_18  and  C_20
REMARK   12  A    between atoms: O_21  and  C_22
REMARK                            x       y       z     vdW  Elec       q    Type
REMARK                         _______ _______ _______ _____ _____    ______ ____
ROOT
ATOM      1  C   LIG A   1      -7.770   2.756 124.003  0.00  0.00    -0.027 C 
ATOM      2  C   LIG A   1      -6.863   1.535 124.497  0.00  0.00    +0.039 C 
ATOM      3  C   LIG A   1      -7.635   0.193 125.003  0.00  0.00    +0.103 C 
ATOM      4  C   LIG A   1      -6.986  -0.543 126.261  0.00  0.00    +0.022 A 
ATOM      5  C   LIG A   1      -7.456  -1.779 126.857  0.00  0.00    +0.167 A 
ATOM      6  C   LIG A   1      -6.758  -2.386 127.982  0.00  0.00    +0.165 A 
ATOM      7  C   LIG A   1      -5.545  -1.830 128.446  0.00  0.00    +0.001 A 
ATOM      8  C   LIG A   1      -5.149  -0.615 127.865  0.00  0.00    +0.016 A 
ATOM      9  C   LIG A   1      -5.849   0.033 126.835  0.00  0.00    -0.017 A 
ATOM     10  C   LIG A   1      -5.320   1.335 126.455  0.00  0.00    +0.004 C 
ATOM     11  C   LIG A   1      -5.772   2.020 125.408  0.00  0.00    -0.021 C 
ATOM     12  C   LIG A   1      -9.066   0.632 125.395  0.00  0.00    +0.023 C 
ATOM     13  C   LIG A   1      -9.885   1.346 124.315  0.00  0.00    +0.002 C 
ATOM     14  C   LIG A   1      -9.082   2.246 123.384  0.00  0.00    +0.007 C 
ATOM     15  C   LIG A   1      -7.022   3.542 122.887  0.00  0.00    +0.011 C 
ATOM     16  C   LIG A   1      -8.112   3.798 125.100  0.00  0.00    +0.011 C 
ENDROOT
BRANCH   7  17
ATOM     17  C   LIG A   1      -4.611  -2.362 129.531  0.00  0.00    +0.017 C 
ATOM     18  C   LIG A   1      -3.747  -3.520 129.022  0.00  0.00    +0.012 C 
ATOM     19  C   LIG A   1      -3.821  -1.276 130.271  0.00  0.00    +0.012 C 
ENDBRANCH   7  17
BRANCH   3  20
ATOM     20  C   LIG A   1      -7.490  -0.752 123.777  0.00  0.00    +0.318 C 
ATOM     21  O   LIG A   1      -8.476  -1.274 123.191  0.00  0.00    -0.250 OA
BRANCH  20  22
ATOM     22  O   LIG A   1      -6.222  -1.144 123.528  0.00  0.00    -0.467 OA
ATOM     23  C   LIG A   1      -5.949  -2.548 123.352  0.00  0.00    +0.280 C 
ENDBRANCH  20  22
ENDBRANCH   3  20
BRANCH   6  24
ATOM     24  O   LIG A   1      -7.454  -3.340 128.689  0.00  0.00    -0.491 OA
ATOM     25  C   LIG A   1      -8.236  -2.997 129.825  0.00  0.00    +0.277 C 
ENDBRANCH   6  24
BRANCH   5  26
ATOM     26  O   LIG A   1      -8.652  -2.268 126.355  0.00  0.00    -0.491 OA
ATOM     27  C   LIG A   1      -8.717  -3.548 125.718  0.00  0.00    +0.277 C 
ENDBRANCH   5  26
TORSDOF 5
ENDMDL
MODEL 4
REMARK VINA RESULT:      -6.7      4.825      8.202
REMARK  Name = NuBBE_2380
REMARK  12 active torsions:
REMARK  status: ('A' for Active; 'I' for Inactive)
REMARK    1  A    between atoms: C_1  and  C_26
REMARK    2  A    between atoms: C_1  and  C_27
REMARK    3  A    between atoms: C_3  and  C_4
REMARK    4  A    between atoms: C_4  and  O_6
REMARK    5  A    between atoms: O_6  and  C_7
REMARK    6  A    between atoms: C_9  and  O_21
REMARK    7  A    between atoms: C_10  and  O_11
REMARK    8  A    between atoms: O_11  and  C_12
REMARK    9  A    between atoms: C_13  and  C_18
REMARK   10  A    between atoms: C_18  and  C_19
REMARK   11  A    between atoms: C_18  and  C_20
REMARK   12  A    between atoms: O_21  and  C_22
REMARK                            x       y       z     vdW  Elec       q    Type
REMARK                         _______ _______ _______ _____ _____    ______ ____
ROOT
ATOM      1  C   LIG A   1     -10.383   5.912 130.722  0.00  0.00    -0.027 C 
ATOM      2  C   LIG A   1      -8.867   5.864 130.214  0.00  0.00    +0.039 C 
ATOM      3  C   LIG A   1      -8.145   4.403 130.172  0.00  0.00    +0.103 C 
ATOM      4  C   LIG A   1      -6.609   4.382 130.605  0.00  0.00    +0.022 A 
ATOM      5  C   LIG A   1      -5.741   3.219 130.595  0.00  0.00    +0.167 A 
ATOM      6  C   LIG A   1      -4.339   3.323 130.973  0.00  0.00    +0.165 A 
ATOM      7  C   LIG A   1      -3.774   4.587 131.256  0.00  0.00    +0.001 A 
ATOM      8  C   LIG A   1      -4.658   5.677 131.290  0.00  0.00    +0.016 A 
ATOM      9  C   LIG A   1      -6.031   5.588 131.010  0.00  0.00    -0.017 A 
ATOM     10  C   LIG A   1      -6.781   6.820 131.208  0.00  0.00    +0.004 C 
ATOM     11  C   LIG A   1      -8.057   6.952 130.858  0.00  0.00    -0.021 C 
ATOM     12  C   LIG A   1      -8.928   3.498 131.151  0.00  0.00    +0.023 C 
ATOM     13  C   LIG A   1     -10.433   3.358 130.902  0.00  0.00    +0.002 C 
ATOM     14  C   LIG A   1     -11.119   4.609 130.368  0.00  0.00    +0.007 C 
ATOM     15  C   LIG A   1     -11.137   7.065 129.998  0.00  0.00    +0.011 C 
ATOM     16  C   LIG A   1     -10.553   6.180 132.240  0.00  0.00    +0.011 C 
ENDROOT
BRANCH   7  17
ATOM     17  C   LIG A   1      -2.318   4.926 131.568  0.00  0.00    +0.017 C 
ATOM     18  C   LIG A   1      -1.916   6.291 130.998  0.00  0.00    +0.012 C 
ATOM     19  C   LIG A   1      -1.924   4.727 133.036  0.00  0.00    +0.012 C 
ENDBRANCH   7  17
BRANCH   3  20
ATOM     20  C   LIG A   1      -8.213   4.048 128.660  0.00  0.00    +0.318 C 
ATOM     21  O   LIG A   1      -8.790   3.015 128.222  0.00  0.00    -0.250 OA
BRANCH  20  22
ATOM     22  O   LIG A   1      -7.422   4.808 127.875  0.00  0.00    -0.467 OA
ATOM     23  C   LIG A   1      -6.583   4.164 126.896  0.00  0.00    +0.280 C 
ENDBRANCH  20  22
ENDBRANCH   3  20
BRANCH   6  24
ATOM     24  O   LIG A   1      -3.696   2.142 131.266  0.00  0.00    -0.491 OA
ATOM     25  C   LIG A   1      -3.773   1.557 132.559  0.00  0.00    +0.277 C 
ENDBRANCH   6  24
BRANCH   5  26
ATOM     26  O   LIG A   1      -6.361   2.013 130.310  0.00  0.00    -0.491 OA
ATOM     27  C   LIG A   1      -5.965   1.228 129.181  0.00  0.00    +0.277 C 
ENDBRANCH   5  26
TORSDOF 5
ENDMDL
MODEL 5
REMARK VINA RESULT:      -6.6      2.499      6.805
REMARK  Name = NuBBE_2380
REMARK  12 active torsions:
REMARK  status: ('A' for Active; 'I' for Inactive)
REMARK    1  A    between atoms: C_1  and  C_26
REMARK    2  A    between atoms: C_1  and  C_27
REMARK    3  A    between atoms: C_3  and  C_4
REMARK    4  A    between atoms: C_4  and  O_6
REMARK    5  A    between atoms: O_6  and  C_7
REMARK    6  A    between atoms: C_9  and  O_21
REMARK    7  A    between atoms: C_10  and  O_11
REMARK    8  A    between atoms: O_11  and  C_12
REMARK    9  A    between atoms: C_13  and  C_18
REMARK   10  A    between atoms: C_18  and  C_19
REMARK   11  A    between atoms: C_18  and  C_20
REMARK   12  A    between atoms: O_21  and  C_22
REMARK                            x       y       z     vdW  Elec       q    Type
REMARK                         _______ _______ _______ _____ _____    ______ ____
ROOT
ATOM      1  C   LIG A   1      -7.520   0.798 131.061  0.00  0.00    -0.027 C 
ATOM      2  C   LIG A   1      -7.138   0.420 129.554  0.00  0.00    +0.039 C 
ATOM      3  C   LIG A   1      -7.735   1.373 128.375  0.00  0.00    +0.103 C 
ATOM      4  C   LIG A   1      -8.198   0.619 127.047  0.00  0.00    +0.022 A 
ATOM      5  C   LIG A   1      -8.707   1.253 125.845  0.00  0.00    +0.167 A 
ATOM      6  C   LIG A   1      -9.061   0.466 124.672  0.00  0.00    +0.165 A 
ATOM      7  C   LIG A   1      -8.814  -0.925 124.651  0.00  0.00    +0.001 A 
ATOM      8  C   LIG A   1      -8.357  -1.499 125.847  0.00  0.00    +0.016 A 
ATOM      9  C   LIG A   1      -8.086  -0.774 127.019  0.00  0.00    -0.017 A 
ATOM     10  C   LIG A   1      -7.724  -1.581 128.174  0.00  0.00    +0.004 C 
ATOM     11  C   LIG A   1      -7.301  -1.054 129.319  0.00  0.00    -0.021 C 
ATOM     12  C   LIG A   1      -8.971   2.087 128.972  0.00  0.00    +0.023 C 
ATOM     13  C   LIG A   1      -8.745   2.897 130.253  0.00  0.00    +0.002 C 
ATOM     14  C   LIG A   1      -7.712   2.316 131.211  0.00  0.00    +0.007 C 
ATOM     15  C   LIG A   1      -6.353   0.396 132.009  0.00  0.00    +0.011 C 
ATOM     16  C   LIG A   1      -8.780   0.082 131.611  0.00  0.00    +0.011 C 
ENDROOT
BRANCH   7  17
ATOM     17  C   LIG A   1      -9.013  -1.906 123.497  0.00  0.00    +0.017 C 
ATOM     18  C   LIG A   1      -7.820  -1.903 122.535  0.00  0.00    +0.012 C 
ATOM     19  C   LIG A   1      -9.455  -3.308 123.932  0.00  0.00    +0.012 C 
ENDBRANCH   7  17
BRANCH   3  20
ATOM     20  C   LIG A   1      -6.508   2.256 128.013  0.00  0.00    +0.318 C 
ATOM     21  O   LIG A   1      -6.533   3.516 128.046  0.00  0.00    -0.250 OA
BRANCH  20  22
ATOM     22  O   LIG A   1      -5.485   1.578 127.451  0.00  0.00    -0.467 OA
ATOM     23  C   LIG A   1      -4.879   2.099 126.251  0.00  0.00    +0.280 C 
ENDBRANCH  20  22
ENDBRANCH   3  20
BRANCH   6  24
ATOM     24  O   LIG A   1      -9.845   1.094 123.731  0.00  0.00    -0.491 OA
ATOM     25  C   LIG A   1      -9.290   1.608 122.528  0.00  0.00    +0.277 C 
ENDBRANCH   6  24
BRANCH   5  26
ATOM     26  O   LIG A   1      -8.926   2.618 125.936  0.00  0.00    -0.491 OA
ATOM     27  C   LIG A   1      -8.179   3.540 125.137  0.00  0.00    +0.277 C 
ENDBRANCH   5  26
TORSDOF 5
ENDMDL
MODEL 6
REMARK VINA RESULT:      -6.5      2.235      5.199
REMARK  Name = NuBBE_2380
REMARK  12 active torsions:
REMARK  status: ('A' for Active; 'I' for Inactive)
REMARK    1  A    between atoms: C_1  and  C_26
REMARK    2  A    between atoms: C_1  and  C_27
REMARK    3  A    between atoms: C_3  and  C_4
REMARK    4  A    between atoms: C_4  and  O_6
REMARK    5  A    between atoms: O_6  and  C_7
REMARK    6  A    between atoms: C_9  and  O_21
REMARK    7  A    between atoms: C_10  and  O_11
REMARK    8  A    between atoms: O_11  and  C_12
REMARK    9  A    between atoms: C_13  and  C_18
REMARK   10  A    between atoms: C_18  and  C_19
REMARK   11  A    between atoms: C_18  and  C_20
REMARK   12  A    between atoms: O_21  and  C_22
REMARK                            x       y       z     vdW  Elec       q    Type
REMARK                         _______ _______ _______ _____ _____    ______ ____
ROOT
ATOM      1  C   LIG A   1      -8.103  -2.908 126.318  0.00  0.00    -0.027 C 
ATOM      2  C   LIG A   1      -6.700  -2.156 126.468  0.00  0.00    +0.039 C 
ATOM      3  C   LIG A   1      -6.307  -1.606 127.951  0.00  0.00    +0.103 C 
ATOM      4  C   LIG A   1      -5.565  -0.194 127.988  0.00  0.00    +0.022 A 
ATOM      5  C   LIG A   1      -5.069   0.473 129.178  0.00  0.00    +0.167 A 
ATOM      6  C   LIG A   1      -4.366   1.745 129.089  0.00  0.00    +0.165 A 
ATOM      7  C   LIG A   1      -4.065   2.301 127.826  0.00  0.00    +0.001 A 
ATOM      8  C   LIG A   1      -4.596   1.642 126.706  0.00  0.00    +0.016 A 
ATOM      9  C   LIG A   1      -5.348   0.458 126.771  0.00  0.00    -0.017 A 
ATOM     10  C   LIG A   1      -5.892   0.003 125.500  0.00  0.00    +0.004 C 
ATOM     11  C   LIG A   1      -6.505  -1.168 125.355  0.00  0.00    -0.021 C 
ATOM     12  C   LIG A   1      -7.635  -1.467 128.733  0.00  0.00    +0.023 C 
ATOM     13  C   LIG A   1      -8.504  -2.723 128.841  0.00  0.00    +0.002 C 
ATOM     14  C   LIG A   1      -8.476  -3.636 127.620  0.00  0.00    +0.007 C 
ATOM     15  C   LIG A   1      -7.994  -3.996 125.210  0.00  0.00    +0.011 C 
ATOM     16  C   LIG A   1      -9.288  -1.997 125.903  0.00  0.00    +0.011 C 
ENDROOT
BRANCH   7  17
ATOM     17  C   LIG A   1      -3.255   3.558 127.512  0.00  0.00    +0.017 C 
ATOM     18  C   LIG A   1      -2.043   3.250 126.626  0.00  0.00    +0.012 C 
ATOM     19  C   LIG A   1      -4.097   4.742 127.021  0.00  0.00    +0.012 C 
ENDBRANCH   7  17
BRANCH   3  20
ATOM     20  C   LIG A   1      -5.300  -2.682 128.444  0.00  0.00    +0.318 C 
ATOM     21  O   LIG A   1      -4.319  -3.073 127.755  0.00  0.00    -0.250 OA
BRANCH  20  22
ATOM     22  O   LIG A   1      -5.680  -3.324 129.569  0.00  0.00    -0.467 OA
ATOM     23  C   LIG A   1      -4.711  -4.119 130.280  0.00  0.00    +0.280 C 
ENDBRANCH  20  22
ENDBRANCH   3  20
BRANCH   6  24
ATOM     24  O   LIG A   1      -4.245   2.458 130.260  0.00  0.00    -0.491 OA
ATOM     25  C   LIG A   1      -5.229   3.401 130.659  0.00  0.00    +0.277 C 
ENDBRANCH   6  24
BRANCH   5  26
ATOM     26  O   LIG A   1      -5.401  -0.127 130.382  0.00  0.00    -0.491 OA
ATOM     27  C   LIG A   1      -4.389  -0.559 131.296  0.00  0.00    +0.277 C 
ENDBRANCH   5  26
TORSDOF 5
ENDMDL
MODEL 7
REMARK VINA RESULT:      -6.2      6.665      9.969
REMARK  Name = NuBBE_2380
REMARK  12 active torsions:
REMARK  status: ('A' for Active; 'I' for Inactive)
REMARK    1  A    between atoms: C_1  and  C_26
REMARK    2  A    between atoms: C_1  and  C_27
REMARK    3  A    between atoms: C_3  and  C_4
REMARK    4  A    between atoms: C_4  and  O_6
REMARK    5  A    between atoms: O_6  and  C_7
REMARK    6  A    between atoms: C_9  and  O_21
REMARK    7  A    between atoms: C_10  and  O_11
REMARK    8  A    between atoms: O_11  and  C_12
REMARK    9  A    between atoms: C_13  and  C_18
REMARK   10  A    between atoms: C_18  and  C_19
REMARK   11  A    between atoms: C_18  and  C_20
REMARK   12  A    between atoms: O_21  and  C_22
REMARK                            x       y       z     vdW  Elec       q    Type
REMARK                         _______ _______ _______ _____ _____    ______ ____
ROOT
ATOM      1  C   LIG A   1      -2.598   5.569 131.615  0.00  0.00    -0.027 C 
ATOM      2  C   LIG A   1      -4.034   6.120 132.049  0.00  0.00    +0.039 C 
ATOM      3  C   LIG A   1      -5.170   5.016 132.431  0.00  0.00    +0.103 C 
ATOM      4  C   LIG A   1      -6.653   5.356 131.950  0.00  0.00    +0.022 A 
ATOM      5  C   LIG A   1      -7.836   4.560 132.217  0.00  0.00    +0.167 A 
ATOM      6  C   LIG A   1      -9.151   4.990 131.763  0.00  0.00    +0.165 A 
ATOM      7  C   LIG A   1      -9.308   6.249 131.141  0.00  0.00    +0.001 A 
ATOM      8  C   LIG A   1      -8.133   6.967 130.870  0.00  0.00    +0.016 A 
ATOM      9  C   LIG A   1      -6.845   6.535 131.224  0.00  0.00    -0.017 A 
ATOM     10  C   LIG A   1      -5.760   7.382 130.752  0.00  0.00    +0.004 C 
ATOM     11  C   LIG A   1      -4.493   7.201 131.113  0.00  0.00    -0.021 C 
ATOM     12  C   LIG A   1      -4.741   3.693 131.753  0.00  0.00    +0.023 C 
ATOM     13  C   LIG A   1      -3.344   3.166 132.096  0.00  0.00    +0.002 C 
ATOM     14  C   LIG A   1      -2.286   4.239 132.323  0.00  0.00    +0.007 C 
ATOM     15  C   LIG A   1      -1.498   6.579 132.052  0.00  0.00    +0.011 C 
ATOM     16  C   LIG A   1      -2.411   5.372 130.088  0.00  0.00    +0.011 C 
ENDROOT
BRANCH   7  17
ATOM     17  C   LIG A   1     -10.600   6.928 130.688  0.00  0.00    +0.017 C 
ATOM     18  C   LIG A   1     -10.891   6.670 129.207  0.00  0.00    +0.012 C 
ATOM     19  C   LIG A   1     -11.800   6.676 131.609  0.00  0.00    +0.012 C 
ENDBRANCH   7  17
BRANCH   3  20
ATOM     20  C   LIG A   1      -5.158   5.056 133.985  0.00  0.00    +0.318 C 
ATOM     21  O   LIG A   1      -5.047   4.023 134.699  0.00  0.00    -0.250 OA
BRANCH  20  22
ATOM     22  O   LIG A   1      -5.496   6.253 134.511  0.00  0.00    -0.467 OA
ATOM     23  C   LIG A   1      -5.146   6.538 135.880  0.00  0.00    +0.280 C 
ENDBRANCH  20  22
ENDBRANCH   3  20
BRANCH   6  24
ATOM     24  O   LIG A   1     -10.137   4.030 131.753  0.00  0.00    -0.491 OA
ATOM     25  C   LIG A   1     -10.475   3.327 130.565  0.00  0.00    +0.277 C 
ENDBRANCH   6  24
BRANCH   5  26
ATOM     26  O   LIG A   1      -7.608   3.338 132.829  0.00  0.00    -0.491 OA
ATOM     27  C   LIG A   1      -7.538   2.131 132.064  0.00  0.00    +0.277 C 
ENDBRANCH   5  26
TORSDOF 5
ENDMDL
MODEL 8
REMARK VINA RESULT:      -6.2      3.105      5.820
REMARK  Name = NuBBE_2380
REMARK  12 active torsions:
REMARK  status: ('A' for Active; 'I' for Inactive)
REMARK    1  A    between atoms: C_1  and  C_26
REMARK    2  A    between atoms: C_1  and  C_27
REMARK    3  A    between atoms: C_3  and  C_4
REMARK    4  A    between atoms: C_4  and  O_6
REMARK    5  A    between atoms: O_6  and  C_7
REMARK    6  A    between atoms: C_9  and  O_21
REMARK    7  A    between atoms: C_10  and  O_11
REMARK    8  A    between atoms: O_11  and  C_12
REMARK    9  A    between atoms: C_13  and  C_18
REMARK   10  A    between atoms: C_18  and  C_19
REMARK   11  A    between atoms: C_18  and  C_20
REMARK   12  A    between atoms: O_21  and  C_22
REMARK                            x       y       z     vdW  Elec       q    Type
REMARK                         _______ _______ _______ _____ _____    ______ ____
ROOT
ATOM      1  C   LIG A   1      -6.996  -2.044 128.008  0.00  0.00    -0.027 C 
ATOM      2  C   LIG A   1      -6.924  -0.524 128.499  0.00  0.00    +0.039 C 
ATOM      3  C   LIG A   1      -7.060  -0.254 130.101  0.00  0.00    +0.103 C 
ATOM      4  C   LIG A   1      -7.898   1.040 130.513  0.00  0.00    +0.022 A 
ATOM      5  C   LIG A   1      -8.109   1.518 131.866  0.00  0.00    +0.167 A 
ATOM      6  C   LIG A   1      -8.859   2.739 132.125  0.00  0.00    +0.165 A 
ATOM      7  C   LIG A   1      -9.306   3.537 131.047  0.00  0.00    +0.001 A 
ATOM      8  C   LIG A   1      -9.111   3.018 129.758  0.00  0.00    +0.016 A 
ATOM      9  C   LIG A   1      -8.464   1.801 129.487  0.00  0.00    -0.017 A 
ATOM     10  C   LIG A   1      -8.466   1.401 128.087  0.00  0.00    +0.004 C 
ATOM     11  C   LIG A   1      -7.782   0.355 127.635  0.00  0.00    -0.021 C 
ATOM     12  C   LIG A   1      -7.772  -1.492 130.695  0.00  0.00    +0.023 C 
ATOM     13  C   LIG A   1      -7.117  -2.852 130.435  0.00  0.00    +0.002 C 
ATOM     14  C   LIG A   1      -6.434  -2.992 129.080  0.00  0.00    +0.007 C 
ATOM     15  C   LIG A   1      -6.111  -2.223 126.741  0.00  0.00    +0.011 C 
ATOM     16  C   LIG A   1      -8.413  -2.532 127.609  0.00  0.00    +0.011 C 
ENDROOT
BRANCH   7  17
ATOM     17  C   LIG A   1     -10.010   4.892 131.099  0.00  0.00    +0.017 C 
ATOM     18  C   LIG A   1      -9.047   6.047 130.806  0.00  0.00    +0.012 C 
ATOM     19  C   LIG A   1     -11.315   4.954 130.296  0.00  0.00    +0.012 C 
ENDBRANCH   7  17
BRANCH   3  20
ATOM     20  C   LIG A   1      -5.582  -0.012 130.519  0.00  0.00    +0.318 C 
ATOM     21  O   LIG A   1      -4.810   0.766 129.896  0.00  0.00    -0.250 OA
BRANCH  20  22
ATOM     22  O   LIG A   1      -5.127  -0.863 131.463  0.00  0.00    -0.467 OA
ATOM     23  C   LIG A   1      -3.786  -1.379 131.349  0.00  0.00    +0.280 C 
ENDBRANCH  20  22
ENDBRANCH   3  20
BRANCH   6  24
ATOM     24  O   LIG A   1      -9.300   2.924 133.415  0.00  0.00    -0.491 OA
ATOM     25  C   LIG A   1      -8.791   3.970 134.231  0.00  0.00    +0.277 C 
ENDBRANCH   6  24
BRANCH   5  26
ATOM     26  O   LIG A   1      -7.647   0.686 132.873  0.00  0.00    -0.491 OA
ATOM     27  C   LIG A   1      -6.557   1.079 133.714  0.00  0.00    +0.277 C 
ENDBRANCH   5  26
TORSDOF 5
ENDMDL
MODEL 9
REMARK VINA RESULT:      -6.1      2.554      5.094
REMARK  Name = NuBBE_2380
REMARK  12 active torsions:
REMARK  status: ('A' for Active; 'I' for Inactive)
REMARK    1  A    between atoms: C_1  and  C_26
REMARK    2  A    between atoms: C_1  and  C_27
REMARK    3  A    between atoms: C_3  and  C_4
REMARK    4  A    between atoms: C_4  and  O_6
REMARK    5  A    between atoms: O_6  and  C_7
REMARK    6  A    between atoms: C_9  and  O_21
REMARK    7  A    between atoms: C_10  and  O_11
REMARK    8  A    between atoms: O_11  and  C_12
REMARK    9  A    between atoms: C_13  and  C_18
REMARK   10  A    between atoms: C_18  and  C_19
REMARK   11  A    between atoms: C_18  and  C_20
REMARK   12  A    between atoms: O_21  and  C_22
REMARK                            x       y       z     vdW  Elec       q    Type
REMARK                         _______ _______ _______ _____ _____    ______ ____
ROOT
ATOM      1  C   LIG A   1      -5.047  -4.068 130.806  0.00  0.00    -0.027 C 
ATOM      2  C   LIG A   1      -6.187  -2.998 130.469  0.00  0.00    +0.039 C 
ATOM      3  C   LIG A   1      -5.721  -1.626 129.725  0.00  0.00    +0.103 C 
ATOM      4  C   LIG A   1      -6.466  -0.297 130.201  0.00  0.00    +0.022 A 
ATOM      5  C   LIG A   1      -6.266   1.031 129.652  0.00  0.00    +0.167 A 
ATOM      6  C   LIG A   1      -7.034   2.169 130.136  0.00  0.00    +0.165 A 
ATOM      7  C   LIG A   1      -8.065   1.977 131.083  0.00  0.00    +0.001 A 
ATOM      8  C   LIG A   1      -8.197   0.684 131.613  0.00  0.00    +0.016 A 
ATOM      9  C   LIG A   1      -7.413  -0.413 131.222  0.00  0.00    -0.017 A 
ATOM     10  C   LIG A   1      -7.646  -1.637 131.976  0.00  0.00    +0.004 C 
ATOM     11  C   LIG A   1      -7.096  -2.802 131.648  0.00  0.00    -0.021 C 
ATOM     12  C   LIG A   1      -4.212  -1.457 130.019  0.00  0.00    +0.023 C 
ATOM     13  C   LIG A   1      -3.300  -2.620 129.617  0.00  0.00    +0.002 C 
ATOM     14  C   LIG A   1      -3.916  -4.006 129.766  0.00  0.00    +0.007 C 
ATOM     15  C   LIG A   1      -5.643  -5.503 130.738  0.00  0.00    +0.011 C 
ATOM     16  C   LIG A   1      -4.426  -3.932 132.221  0.00  0.00    +0.011 C 
ENDROOT
BRANCH   7  17
ATOM     17  C   LIG A   1      -9.047   3.007 131.638  0.00  0.00    +0.017 C 
ATOM     18  C   LIG A   1     -10.297   3.133 130.763  0.00  0.00    +0.012 C 
ATOM     19  C   LIG A   1      -9.350   2.846 133.133  0.00  0.00    +0.012 C 
ENDBRANCH   7  17
BRANCH   3  20
ATOM     20  C   LIG A   1      -6.135  -1.895 128.251  0.00  0.00    +0.318 C 
ATOM     21  O   LIG A   1      -5.314  -1.885 127.294  0.00  0.00    -0.250 OA
BRANCH  20  22
ATOM     22  O   LIG A   1      -7.469  -1.923 128.045  0.00  0.00    -0.467 OA
ATOM     23  C   LIG A   1      -8.014  -1.223 126.909  0.00  0.00    +0.280 C 
ENDBRANCH  20  22
ENDBRANCH   3  20
BRANCH   6  24
ATOM     24  O   LIG A   1      -6.545   3.416 129.817  0.00  0.00    -0.491 OA
ATOM     25  C   LIG A   1      -5.613   4.084 130.655  0.00  0.00    +0.277 C 
ENDBRANCH   6  24
BRANCH   5  26
ATOM     26  O   LIG A   1      -5.238   1.148 128.729  0.00  0.00    -0.491 OA
ATOM     27  C   LIG A   1      -5.493   1.589 127.392  0.00  0.00    +0.277 C 
ENDBRANCH   5  26
TORSDOF 5
ENDMDL
