MODEL 1
REMARK VINA RESULT:      -8.1      0.000      0.000
REMARK  Name = NuBBE_2188
REMARK  4 active torsions:
REMARK  status: ('A' for Active; 'I' for Inactive)
REMARK    1  A    between atoms: C_5  and  C_6
REMARK    2  A    between atoms: C_16  and  C_17
REMARK    3  A    between atoms: C_23  and  C_24
REMARK    4  A    between atoms: C_23  and  C_25
REMARK                            x       y       z     vdW  Elec       q    Type
REMARK                         _______ _______ _______ _____ _____    ______ ____
ROOT
ATOM      1  O   LIG A   1      -7.340   3.482 121.952  0.00  0.00    -0.297 OA
ATOM      2  C   LIG A   1      -7.759   2.864 122.932  0.00  0.00    +0.139 C 
ATOM      3  C   LIG A   1      -9.027   2.054 122.817  0.00  0.00    +0.076 C 
ATOM      4  C   LIG A   1      -9.205   1.057 123.955  0.00  0.00    +0.019 C 
ATOM      5  C   LIG A   1      -7.884   0.410 124.435  0.00  0.00    -0.003 C 
ATOM      6  C   LIG A   1      -7.201  -0.307 123.222  0.00  0.00    +0.016 C 
ATOM      7  C   LIG A   1      -6.872   1.523 124.936  0.00  0.00    +0.016 C 
ATOM      8  C   LIG A   1      -6.646   1.628 126.460  0.00  0.00    +0.055 C 
ATOM      9  C   LIG A   1      -6.886   0.409 127.335  0.00  0.00    +0.207 C 
ATOM     10  O   LIG A   1      -5.662  -0.027 127.933  0.00  0.00    -0.456 OA
ATOM     11  C   LIG A   1      -7.607  -0.740 126.720  0.00  0.00    +0.000 A 
ATOM     12  C   LIG A   1      -8.190  -0.699 125.452  0.00  0.00    -0.034 A 
ATOM     13  C   LIG A   1      -9.035  -1.773 125.104  0.00  0.00    +0.005 A 
ATOM     14  C   LIG A   1      -9.269  -2.843 125.972  0.00  0.00    +0.004 A 
ATOM     15  C   LIG A   1      -8.625  -2.909 127.207  0.00  0.00    -0.046 A 
ATOM     16  C   LIG A   1      -8.881  -4.076 128.117  0.00  0.00    +0.044 C 
ATOM     17  C   LIG A   1      -7.755  -1.865 127.564  0.00  0.00    -0.027 A 
ATOM     18  C   LIG A   1      -6.979  -1.880 128.866  0.00  0.00    +0.156 C 
ATOM     19  C   LIG A   1      -5.782  -0.943 128.933  0.00  0.00    +0.312 C 
ATOM     20  O   LIG A   1      -4.956  -1.009 129.835  0.00  0.00    -0.251 OA
ATOM     21  C   LIG A   1      -7.102   2.968 124.310  0.00  0.00    +0.027 C 
ATOM     22  C   LIG A   1      -5.738   3.677 124.163  0.00  0.00    +0.019 C 
ATOM     23  C   LIG A   1      -8.012   3.911 125.133  0.00  0.00    +0.019 C 
ENDROOT
TORSDOF 0
ENDMDL
MODEL 2
REMARK VINA RESULT:      -8.0      2.605      3.416
REMARK  Name = NuBBE_2188
REMARK  4 active torsions:
REMARK  status: ('A' for Active; 'I' for Inactive)
REMARK    1  A    between atoms: C_5  and  C_6
REMARK    2  A    between atoms: C_16  and  C_17
REMARK    3  A    between atoms: C_23  and  C_24
REMARK    4  A    between atoms: C_23  and  C_25
REMARK                            x       y       z     vdW  Elec       q    Type
REMARK                         _______ _______ _______ _____ _____    ______ ____
ROOT
ATOM      1  O   LIG A   1      -6.008   5.627 125.403  0.00  0.00    -0.297 OA
ATOM      2  C   LIG A   1      -6.526   4.517 125.531  0.00  0.00    +0.139 C 
ATOM      3  C   LIG A   1      -8.008   4.353 125.303  0.00  0.00    +0.076 C 
ATOM      4  C   LIG A   1      -8.429   2.902 125.114  0.00  0.00    +0.019 C 
ATOM      5  C   LIG A   1      -7.401   2.047 124.333  0.00  0.00    -0.003 C 
ATOM      6  C   LIG A   1      -7.159   2.702 122.932  0.00  0.00    +0.016 C 
ATOM      7  C   LIG A   1      -6.003   2.042 125.081  0.00  0.00    +0.016 C 
ATOM      8  C   LIG A   1      -5.602   0.737 125.803  0.00  0.00    +0.055 C 
ATOM      9  C   LIG A   1      -6.188  -0.584 125.335  0.00  0.00    +0.207 C 
ATOM     10  O   LIG A   1      -5.160  -1.432 124.815  0.00  0.00    -0.456 OA
ATOM     11  C   LIG A   1      -7.343  -0.524 124.396  0.00  0.00    +0.000 A 
ATOM     12  C   LIG A   1      -7.993   0.660 124.044  0.00  0.00    -0.034 A 
ATOM     13  C   LIG A   1      -9.207   0.536 123.338  0.00  0.00    +0.005 A 
ATOM     14  C   LIG A   1      -9.732  -0.710 122.983  0.00  0.00    +0.004 A 
ATOM     15  C   LIG A   1      -9.039  -1.883 123.276  0.00  0.00    -0.046 A 
ATOM     16  C   LIG A   1      -9.617  -3.209 122.872  0.00  0.00    +0.044 C 
ATOM     17  C   LIG A   1      -7.812  -1.782 123.954  0.00  0.00    -0.027 A 
ATOM     18  C   LIG A   1      -6.970  -3.002 124.270  0.00  0.00    +0.156 C 
ATOM     19  C   LIG A   1      -5.510  -2.730 124.603  0.00  0.00    +0.312 C 
ATOM     20  O   LIG A   1      -4.682  -3.630 124.670  0.00  0.00    -0.251 OA
ATOM     21  C   LIG A   1      -5.742   3.298 126.023  0.00  0.00    +0.027 C 
ATOM     22  C   LIG A   1      -4.235   3.633 126.011  0.00  0.00    +0.019 C 
ATOM     23  C   LIG A   1      -6.149   3.113 127.505  0.00  0.00    +0.019 C 
ENDROOT
TORSDOF 0
ENDMDL
MODEL 3
REMARK VINA RESULT:      -7.9      2.760      4.590
REMARK  Name = NuBBE_2188
REMARK  4 active torsions:
REMARK  status: ('A' for Active; 'I' for Inactive)
REMARK    1  A    between atoms: C_5  and  C_6
REMARK    2  A    between atoms: C_16  and  C_17
REMARK    3  A    between atoms: C_23  and  C_24
REMARK    4  A    between atoms: C_23  and  C_25
REMARK                            x       y       z     vdW  Elec       q    Type
REMARK                         _______ _______ _______ _____ _____    ______ ____
ROOT
ATOM      1  O   LIG A   1      -4.872   5.354 127.171  0.00  0.00    -0.297 OA
ATOM      2  C   LIG A   1      -4.931   4.343 126.471  0.00  0.00    +0.139 C 
ATOM      3  C   LIG A   1      -3.949   3.220 126.696  0.00  0.00    +0.076 C 
ATOM      4  C   LIG A   1      -4.376   1.911 126.046  0.00  0.00    +0.019 C 
ATOM      5  C   LIG A   1      -5.903   1.657 126.089  0.00  0.00    -0.003 C 
ATOM      6  C   LIG A   1      -6.375   1.672 127.582  0.00  0.00    +0.016 C 
ATOM      7  C   LIG A   1      -6.679   2.826 125.354  0.00  0.00    +0.016 C 
ATOM      8  C   LIG A   1      -7.295   2.498 123.975  0.00  0.00    +0.055 C 
ATOM      9  C   LIG A   1      -7.650   1.059 123.642  0.00  0.00    +0.207 C 
ATOM     10  O   LIG A   1      -9.064   0.917 123.479  0.00  0.00    -0.456 OA
ATOM     11  C   LIG A   1      -7.117  -0.001 124.543  0.00  0.00    +0.000 A 
ATOM     12  C   LIG A   1      -6.208   0.244 125.573  0.00  0.00    -0.034 A 
ATOM     13  C   LIG A   1      -5.617  -0.882 126.183  0.00  0.00    +0.005 A 
ATOM     14  C   LIG A   1      -5.936  -2.186 125.796  0.00  0.00    +0.004 A 
ATOM     15  C   LIG A   1      -6.899  -2.421 124.816  0.00  0.00    -0.046 A 
ATOM     16  C   LIG A   1      -7.236  -3.832 124.427  0.00  0.00    +0.044 C 
ATOM     17  C   LIG A   1      -7.523  -1.315 124.214  0.00  0.00    -0.027 A 
ATOM     18  C   LIG A   1      -8.613  -1.480 123.174  0.00  0.00    +0.156 C 
ATOM     19  C   LIG A   1      -9.484  -0.256 122.929  0.00  0.00    +0.312 C 
ATOM     20  O   LIG A   1     -10.520  -0.316 122.278  0.00  0.00    -0.251 OA
ATOM     21  C   LIG A   1      -5.902   4.214 125.295  0.00  0.00    +0.027 C 
ATOM     22  C   LIG A   1      -6.926   5.369 125.362  0.00  0.00    +0.019 C 
ATOM     23  C   LIG A   1      -5.048   4.445 124.025  0.00  0.00    +0.019 C 
ENDROOT
TORSDOF 0
ENDMDL
MODEL 4
REMARK VINA RESULT:      -7.8      2.296      6.220
REMARK  Name = NuBBE_2188
REMARK  4 active torsions:
REMARK  status: ('A' for Active; 'I' for Inactive)
REMARK    1  A    between atoms: C_5  and  C_6
REMARK    2  A    between atoms: C_16  and  C_17
REMARK    3  A    between atoms: C_23  and  C_24
REMARK    4  A    between atoms: C_23  and  C_25
REMARK                            x       y       z     vdW  Elec       q    Type
REMARK                         _______ _______ _______ _____ _____    ______ ____
ROOT
ATOM      1  O   LIG A   1      -7.150  -3.021 132.343  0.00  0.00    -0.297 OA
ATOM      2  C   LIG A   1      -6.904  -2.728 131.172  0.00  0.00    +0.139 C 
ATOM      3  C   LIG A   1      -6.332  -3.772 130.245  0.00  0.00    +0.076 C 
ATOM      4  C   LIG A   1      -6.445  -3.393 128.774  0.00  0.00    +0.019 C 
ATOM      5  C   LIG A   1      -7.749  -2.637 128.419  0.00  0.00    -0.003 C 
ATOM      6  C   LIG A   1      -8.974  -3.525 128.820  0.00  0.00    +0.016 C 
ATOM      7  C   LIG A   1      -7.859  -1.300 129.261  0.00  0.00    +0.016 C 
ATOM      8  C   LIG A   1      -7.623   0.026 128.504  0.00  0.00    +0.055 C 
ATOM      9  C   LIG A   1      -7.867   0.081 127.006  0.00  0.00    +0.207 C 
ATOM     10  O   LIG A   1      -8.951   0.966 126.707  0.00  0.00    -0.456 OA
ATOM     11  C   LIG A   1      -8.039  -1.217 126.294  0.00  0.00    +0.000 A 
ATOM     12  C   LIG A   1      -7.846  -2.461 126.897  0.00  0.00    -0.034 A 
ATOM     13  C   LIG A   1      -7.814  -3.584 126.045  0.00  0.00    +0.005 A 
ATOM     14  C   LIG A   1      -7.985  -3.469 124.662  0.00  0.00    +0.004 A 
ATOM     15  C   LIG A   1      -8.249  -2.231 124.079  0.00  0.00    -0.046 A 
ATOM     16  C   LIG A   1      -8.444  -2.135 122.593  0.00  0.00    +0.044 C 
ATOM     17  C   LIG A   1      -8.315  -1.101 124.912  0.00  0.00    -0.027 A 
ATOM     18  C   LIG A   1      -8.643   0.275 124.369  0.00  0.00    +0.156 C 
ATOM     19  C   LIG A   1      -9.101   1.300 125.396  0.00  0.00    +0.312 C 
ATOM     20  O   LIG A   1      -9.593   2.373 125.067  0.00  0.00    -0.251 OA
ATOM     21  C   LIG A   1      -7.054  -1.303 130.634  0.00  0.00    +0.027 C 
ATOM     22  C   LIG A   1      -7.819  -0.454 131.672  0.00  0.00    +0.019 C 
ATOM     23  C   LIG A   1      -5.616  -0.734 130.561  0.00  0.00    +0.019 C 
ENDROOT
TORSDOF 0
ENDMDL
MODEL 5
REMARK VINA RESULT:      -7.8      2.285      5.358
REMARK  Name = NuBBE_2188
REMARK  4 active torsions:
REMARK  status: ('A' for Active; 'I' for Inactive)
REMARK    1  A    between atoms: C_5  and  C_6
REMARK    2  A    between atoms: C_16  and  C_17
REMARK    3  A    between atoms: C_23  and  C_24
REMARK    4  A    between atoms: C_23  and  C_25
REMARK                            x       y       z     vdW  Elec       q    Type
REMARK                         _______ _______ _______ _____ _____    ______ ____
ROOT
ATOM      1  O   LIG A   1      -9.627  -3.599 123.261  0.00  0.00    -0.297 OA
ATOM      2  C   LIG A   1      -8.838  -2.729 123.634  0.00  0.00    +0.139 C 
ATOM      3  C   LIG A   1      -7.916  -2.078 122.633  0.00  0.00    +0.076 C 
ATOM      4  C   LIG A   1      -7.294  -0.785 123.144  0.00  0.00    +0.019 C 
ATOM      5  C   LIG A   1      -8.244   0.062 124.026  0.00  0.00    -0.003 C 
ATOM      6  C   LIG A   1      -9.533   0.398 123.203  0.00  0.00    +0.016 C 
ATOM      7  C   LIG A   1      -8.714  -0.769 125.290  0.00  0.00    +0.016 C 
ATOM      8  C   LIG A   1      -8.107  -0.370 126.654  0.00  0.00    +0.055 C 
ATOM      9  C   LIG A   1      -7.595   1.045 126.856  0.00  0.00    +0.207 C 
ATOM     10  O   LIG A   1      -8.377   1.724 127.844  0.00  0.00    -0.456 OA
ATOM     11  C   LIG A   1      -7.434   1.893 125.642  0.00  0.00    +0.000 A 
ATOM     12  C   LIG A   1      -7.589   1.415 124.339  0.00  0.00    -0.034 A 
ATOM     13  C   LIG A   1      -7.177   2.268 123.294  0.00  0.00    +0.005 A 
ATOM     14  C   LIG A   1      -6.656   3.542 123.540  0.00  0.00    +0.004 A 
ATOM     15  C   LIG A   1      -6.573   4.036 124.841  0.00  0.00    -0.046 A 
ATOM     16  C   LIG A   1      -6.023   5.413 125.079  0.00  0.00    +0.044 C 
ATOM     17  C   LIG A   1      -7.006   3.216 125.897  0.00  0.00    -0.027 A 
ATOM     18  C   LIG A   1      -6.994   3.692 127.335  0.00  0.00    +0.156 C 
ATOM     19  C   LIG A   1      -7.866   2.901 128.300  0.00  0.00    +0.312 C 
ATOM     20  O   LIG A   1      -8.110   3.302 129.432  0.00  0.00    -0.251 OA
ATOM     21  C   LIG A   1      -8.672  -2.349 125.107  0.00  0.00    +0.027 C 
ATOM     22  C   LIG A   1      -9.823  -2.982 125.921  0.00  0.00    +0.019 C 
ATOM     23  C   LIG A   1      -7.365  -3.037 125.569  0.00  0.00    +0.019 C 
ENDROOT
TORSDOF 0
ENDMDL
MODEL 6
REMARK VINA RESULT:      -7.7      2.352      6.520
REMARK  Name = NuBBE_2188
REMARK  4 active torsions:
REMARK  status: ('A' for Active; 'I' for Inactive)
REMARK    1  A    between atoms: C_5  and  C_6
REMARK    2  A    between atoms: C_16  and  C_17
REMARK    3  A    between atoms: C_23  and  C_24
REMARK    4  A    between atoms: C_23  and  C_25
REMARK                            x       y       z     vdW  Elec       q    Type
REMARK                         _______ _______ _______ _____ _____    ______ ____
ROOT
ATOM      1  O   LIG A   1      -5.072  -2.489 133.164  0.00  0.00    -0.297 OA
ATOM      2  C   LIG A   1      -5.223  -2.731 131.966  0.00  0.00    +0.139 C 
ATOM      3  C   LIG A   1      -5.905  -4.008 131.542  0.00  0.00    +0.076 C 
ATOM      4  C   LIG A   1      -6.363  -3.990 130.090  0.00  0.00    +0.019 C 
ATOM      5  C   LIG A   1      -6.881  -2.611 129.613  0.00  0.00    -0.003 C 
ATOM      6  C   LIG A   1      -8.067  -2.169 130.535  0.00  0.00    +0.016 C 
ATOM      7  C   LIG A   1      -5.750  -1.511 129.767  0.00  0.00    +0.016 C 
ATOM      8  C   LIG A   1      -5.081  -1.010 128.468  0.00  0.00    +0.055 C 
ATOM      9  C   LIG A   1      -5.839  -1.103 127.155  0.00  0.00    +0.207 C 
ATOM     10  O   LIG A   1      -6.110   0.204 126.640  0.00  0.00    -0.456 OA
ATOM     11  C   LIG A   1      -7.073  -1.938 127.137  0.00  0.00    +0.000 A 
ATOM     12  C   LIG A   1      -7.479  -2.741 128.205  0.00  0.00    -0.034 A 
ATOM     13  C   LIG A   1      -8.529  -3.649 127.956  0.00  0.00    +0.005 A 
ATOM     14  C   LIG A   1      -9.154  -3.734 126.709  0.00  0.00    +0.004 A 
ATOM     15  C   LIG A   1      -8.789  -2.878 125.672  0.00  0.00    -0.046 A 
ATOM     16  C   LIG A   1      -9.485  -2.979 124.345  0.00  0.00    +0.044 C 
ATOM     17  C   LIG A   1      -7.765  -1.944 125.905  0.00  0.00    -0.027 A 
ATOM     18  C   LIG A   1      -7.338  -0.945 124.848  0.00  0.00    +0.156 C 
ATOM     19  C   LIG A   1      -6.552   0.256 125.353  0.00  0.00    +0.312 C 
ATOM     20  O   LIG A   1      -6.332   1.232 124.646  0.00  0.00    -0.251 OA
ATOM     21  C   LIG A   1      -4.648  -1.833 130.868  0.00  0.00    +0.027 C 
ATOM     22  C   LIG A   1      -4.168  -0.510 131.504  0.00  0.00    +0.019 C 
ATOM     23  C   LIG A   1      -3.386  -2.566 130.352  0.00  0.00    +0.019 C 
ENDROOT
TORSDOF 0
ENDMDL
MODEL 7
REMARK VINA RESULT:      -7.6      2.523      4.315
REMARK  Name = NuBBE_2188
REMARK  4 active torsions:
REMARK  status: ('A' for Active; 'I' for Inactive)
REMARK    1  A    between atoms: C_5  and  C_6
REMARK    2  A    between atoms: C_16  and  C_17
REMARK    3  A    between atoms: C_23  and  C_24
REMARK    4  A    between atoms: C_23  and  C_25
REMARK                            x       y       z     vdW  Elec       q    Type
REMARK                         _______ _______ _______ _____ _____    ______ ____
ROOT
ATOM      1  O   LIG A   1      -7.717  -1.814 122.370  0.00  0.00    -0.297 OA
ATOM      2  C   LIG A   1      -7.346  -1.346 123.447  0.00  0.00    +0.139 C 
ATOM      3  C   LIG A   1      -7.227   0.149 123.611  0.00  0.00    +0.076 C 
ATOM      4  C   LIG A   1      -7.142   0.587 125.067  0.00  0.00    +0.019 C 
ATOM      5  C   LIG A   1      -8.016  -0.255 126.028  0.00  0.00    -0.003 C 
ATOM      6  C   LIG A   1      -9.506  -0.182 125.552  0.00  0.00    +0.016 C 
ATOM      7  C   LIG A   1      -7.593  -1.781 125.967  0.00  0.00    +0.016 C 
ATOM      8  C   LIG A   1      -6.820  -2.342 127.182  0.00  0.00    +0.055 C 
ATOM      9  C   LIG A   1      -6.986  -1.680 128.539  0.00  0.00    +0.207 C 
ATOM     10  O   LIG A   1      -7.608  -2.579 129.462  0.00  0.00    -0.456 OA
ATOM     11  C   LIG A   1      -7.654  -0.349 128.573  0.00  0.00    +0.000 A 
ATOM     12  C   LIG A   1      -7.999   0.373 127.429  0.00  0.00    -0.034 A 
ATOM     13  C   LIG A   1      -8.406   1.709 127.617  0.00  0.00    +0.005 A 
ATOM     14  C   LIG A   1      -8.484   2.288 128.887  0.00  0.00    +0.004 A 
ATOM     15  C   LIG A   1      -8.207   1.537 130.028  0.00  0.00    -0.046 A 
ATOM     16  C   LIG A   1      -8.311   2.176 131.383  0.00  0.00    +0.044 C 
ATOM     17  C   LIG A   1      -7.827   0.193 129.867  0.00  0.00    -0.027 A 
ATOM     18  C   LIG A   1      -7.554  -0.708 131.055  0.00  0.00    +0.156 C 
ATOM     19  C   LIG A   1      -7.579  -2.203 130.770  0.00  0.00    +0.312 C 
ATOM     20  O   LIG A   1      -7.583  -3.034 131.670  0.00  0.00    -0.251 OA
ATOM     21  C   LIG A   1      -6.890  -2.229 124.611  0.00  0.00    +0.027 C 
ATOM     22  C   LIG A   1      -7.268  -3.695 124.306  0.00  0.00    +0.019 C 
ATOM     23  C   LIG A   1      -5.344  -2.154 124.608  0.00  0.00    +0.019 C 
ENDROOT
TORSDOF 0
ENDMDL
MODEL 8
REMARK VINA RESULT:      -7.6      2.282      5.426
REMARK  Name = NuBBE_2188
REMARK  4 active torsions:
REMARK  status: ('A' for Active; 'I' for Inactive)
REMARK    1  A    between atoms: C_5  and  C_6
REMARK    2  A    between atoms: C_16  and  C_17
REMARK    3  A    between atoms: C_23  and  C_24
REMARK    4  A    between atoms: C_23  and  C_25
REMARK                            x       y       z     vdW  Elec       q    Type
REMARK                         _______ _______ _______ _____ _____    ______ ____
ROOT
ATOM      1  O   LIG A   1      -7.154  -4.281 124.344  0.00  0.00    -0.297 OA
ATOM      2  C   LIG A   1      -7.634  -3.179 124.616  0.00  0.00    +0.139 C 
ATOM      3  C   LIG A   1      -8.558  -3.038 125.800  0.00  0.00    +0.076 C 
ATOM      4  C   LIG A   1      -8.754  -1.593 126.238  0.00  0.00    +0.019 C 
ATOM      5  C   LIG A   1      -7.482  -0.720 126.109  0.00  0.00    -0.003 C 
ATOM      6  C   LIG A   1      -6.336  -1.367 126.957  0.00  0.00    +0.016 C 
ATOM      7  C   LIG A   1      -6.979  -0.694 124.607  0.00  0.00    +0.016 C 
ATOM      8  C   LIG A   1      -7.200   0.615 123.817  0.00  0.00    +0.055 C 
ATOM      9  C   LIG A   1      -7.324   1.927 124.571  0.00  0.00    +0.207 C 
ATOM     10  O   LIG A   1      -6.230   2.793 124.252  0.00  0.00    -0.456 OA
ATOM     11  C   LIG A   1      -7.519   1.851 126.046  0.00  0.00    +0.000 A 
ATOM     12  C   LIG A   1      -7.734   0.658 126.738  0.00  0.00    -0.034 A 
ATOM     13  C   LIG A   1      -8.134   0.765 128.085  0.00  0.00    +0.005 A 
ATOM     14  C   LIG A   1      -8.290   2.004 128.715  0.00  0.00    +0.004 A 
ATOM     15  C   LIG A   1      -8.003   3.187 128.036  0.00  0.00    -0.046 A 
ATOM     16  C   LIG A   1      -8.164   4.505 128.738  0.00  0.00    +0.044 C 
ATOM     17  C   LIG A   1      -7.574   3.103 126.700  0.00  0.00    -0.027 A 
ATOM     18  C   LIG A   1      -7.195   4.336 125.904  0.00  0.00    +0.156 C 
ATOM     19  C   LIG A   1      -6.358   4.086 124.657  0.00  0.00    +0.312 C 
ATOM     20  O   LIG A   1      -5.813   4.999 124.048  0.00  0.00    -0.251 OA
ATOM     21  C   LIG A   1      -7.417  -1.949 123.731  0.00  0.00    +0.027 C 
ATOM     22  C   LIG A   1      -6.308  -2.260 122.703  0.00  0.00    +0.019 C 
ATOM     23  C   LIG A   1      -8.732  -1.775 122.934  0.00  0.00    +0.019 C 
ENDROOT
TORSDOF 0
ENDMDL
MODEL 9
REMARK VINA RESULT:      -7.4      2.355      3.761
REMARK  Name = NuBBE_2188
REMARK  4 active torsions:
REMARK  status: ('A' for Active; 'I' for Inactive)
REMARK    1  A    between atoms: C_5  and  C_6
REMARK    2  A    between atoms: C_16  and  C_17
REMARK    3  A    between atoms: C_23  and  C_24
REMARK    4  A    between atoms: C_23  and  C_25
REMARK                            x       y       z     vdW  Elec       q    Type
REMARK                         _______ _______ _______ _____ _____    ______ ____
ROOT
ATOM      1  O   LIG A   1      -6.842  -1.865 122.338  0.00  0.00    -0.297 OA
ATOM      2  C   LIG A   1      -7.404  -1.771 123.430  0.00  0.00    +0.139 C 
ATOM      3  C   LIG A   1      -7.812  -3.021 124.170  0.00  0.00    +0.076 C 
ATOM      4  C   LIG A   1      -8.128  -2.771 125.639  0.00  0.00    +0.019 C 
ATOM      5  C   LIG A   1      -7.219  -1.710 126.305  0.00  0.00    -0.003 C 
ATOM      6  C   LIG A   1      -5.727  -2.163 126.166  0.00  0.00    +0.016 C 
ATOM      7  C   LIG A   1      -7.345  -0.321 125.551  0.00  0.00    +0.016 C 
ATOM      8  C   LIG A   1      -8.124   0.799 126.275  0.00  0.00    +0.055 C 
ATOM      9  C   LIG A   1      -8.226   0.775 127.791  0.00  0.00    +0.207 C 
ATOM     10  O   LIG A   1      -7.548   1.901 128.356  0.00  0.00    -0.456 OA
ATOM     11  C   LIG A   1      -7.821  -0.481 128.482  0.00  0.00    +0.000 A 
ATOM     12  C   LIG A   1      -7.498  -1.662 127.814  0.00  0.00    -0.034 A 
ATOM     13  C   LIG A   1      -7.366  -2.825 128.601  0.00  0.00    +0.005 A 
ATOM     14  C   LIG A   1      -7.528  -2.801 129.989  0.00  0.00    +0.004 A 
ATOM     15  C   LIG A   1      -7.780  -1.603 130.654  0.00  0.00    -0.046 A 
ATOM     16  C   LIG A   1      -7.937  -1.600 132.148  0.00  0.00    +0.044 C 
ATOM     17  C   LIG A   1      -7.887  -0.426 129.894  0.00  0.00    -0.027 A 
ATOM     18  C   LIG A   1      -8.112   0.926 130.540  0.00  0.00    +0.156 C 
ATOM     19  C   LIG A   1      -7.783   2.135 129.676  0.00  0.00    +0.312 C 
ATOM     20  O   LIG A   1      -7.719   3.267 130.141  0.00  0.00    -0.251 OA
ATOM     21  C   LIG A   1      -7.808  -0.423 124.032  0.00  0.00    +0.027 C 
ATOM     22  C   LIG A   1      -7.137   0.709 123.223  0.00  0.00    +0.019 C 
ATOM     23  C   LIG A   1      -9.333  -0.303 123.792  0.00  0.00    +0.019 C 
ENDROOT
TORSDOF 0
ENDMDL
