MODEL 1
REMARK VINA RESULT:      -6.6      0.000      0.000
REMARK  Name = NuBBE_159
REMARK  8 active torsions:
REMARK  status: ('A' for Active; 'I' for Inactive)
REMARK    1  A    between atoms: C_1  and  C_2
REMARK    2  A    between atoms: C_2  and  C_3
REMARK    3  A    between atoms: C_6  and  O_7
REMARK    4  A    between atoms: O_7  and  C_8
REMARK    5  A    between atoms: C_8  and  C_9
REMARK    6  A    between atoms: C_12  and  C_13
REMARK    7  A    between atoms: C_13  and  O_14
REMARK    8  A    between atoms: O_14  and  C_15
REMARK                            x       y       z     vdW  Elec       q    Type
REMARK                         _______ _______ _______ _____ _____    ______ ____
ROOT
ATOM      1  C   LIG A   1     -13.391   6.693 127.956  0.00  0.00    +0.060 C 
ATOM      2  C   LIG A   1     -12.289   7.348 128.795  0.00  0.00    +0.124 C 
ATOM      3  C   LIG A   1     -11.759   8.592 128.069  0.00  0.00    +0.060 C 
ATOM      4  O   LIG A   1     -11.209   6.398 128.819  0.00  0.00    -0.478 OA
ATOM      5  C   LIG A   1     -10.683   6.008 130.016  0.00  0.00    +0.171 A 
ATOM      6  C   LIG A   1      -9.593   5.131 129.962  0.00  0.00    +0.174 A 
ATOM      7  C   LIG A   1      -8.951   4.715 131.122  0.00  0.00    +0.065 A 
ATOM      8  C   LIG A   1      -9.431   5.142 132.364  0.00  0.00    +0.063 A 
ATOM      9  C   LIG A   1     -10.538   6.002 132.432  0.00  0.00    +0.026 A 
ATOM     10  C   LIG A   1     -11.167   6.436 131.255  0.00  0.00    +0.021 A 
ATOM     11  C   LIG A   1     -12.318   7.325 131.305  0.00  0.00    +0.011 C 
ATOM     12  C   LIG A   1     -12.839   7.744 130.147  0.00  0.00    +0.020 C 
ENDROOT
BRANCH   8  13
ATOM     13  C   LIG A   1      -8.741   4.728 133.609  0.00  0.00    +0.339 C 
ATOM     14  O   LIG A   1      -8.872   3.628 134.132  0.00  0.00    -0.245 OA
BRANCH  13  15
ATOM     15  O   LIG A   1      -7.965   5.746 134.046  0.00  0.00    -0.464 OA
ATOM     16  C   LIG A   1      -7.640   5.721 135.434  0.00  0.00    +0.280 C 
ENDBRANCH  13  15
ENDBRANCH   8  13
BRANCH   6  17
ATOM     17  O   LIG A   1      -9.125   4.777 128.679  0.00  0.00    -0.422 OA
BRANCH  17  18
ATOM     18  C   LIG A   1      -7.885   4.177 128.485  0.00  0.00    +0.309 C 
ATOM     19  C   LIG A   1      -8.095   2.698 128.377  0.00  0.00    +0.136 C 
ATOM     20  O   LIG A   1      -6.795   4.727 128.439  0.00  0.00    -0.251 OA
ENDBRANCH  17  18
ENDBRANCH   6  17
TORSDOF 4
ENDMDL
MODEL 2
REMARK VINA RESULT:      -6.2      7.545     10.404
REMARK  Name = NuBBE_159
REMARK  8 active torsions:
REMARK  status: ('A' for Active; 'I' for Inactive)
REMARK    1  A    between atoms: C_1  and  C_2
REMARK    2  A    between atoms: C_2  and  C_3
REMARK    3  A    between atoms: C_6  and  O_7
REMARK    4  A    between atoms: O_7  and  C_8
REMARK    5  A    between atoms: C_8  and  C_9
REMARK    6  A    between atoms: C_12  and  C_13
REMARK    7  A    between atoms: C_13  and  O_14
REMARK    8  A    between atoms: O_14  and  C_15
REMARK                            x       y       z     vdW  Elec       q    Type
REMARK                         _______ _______ _______ _____ _____    ______ ____
ROOT
ATOM      1  C   LIG A   1      -7.804  -1.968 130.575  0.00  0.00    +0.060 C 
ATOM      2  C   LIG A   1      -7.375  -2.804 129.364  0.00  0.00    +0.124 C 
ATOM      3  C   LIG A   1      -6.186  -3.695 129.749  0.00  0.00    +0.060 C 
ATOM      4  O   LIG A   1      -6.881  -1.858 128.400  0.00  0.00    -0.478 OA
ATOM      5  C   LIG A   1      -7.383  -1.868 127.131  0.00  0.00    +0.171 A 
ATOM      6  C   LIG A   1      -6.813  -0.963 126.228  0.00  0.00    +0.174 A 
ATOM      7  C   LIG A   1      -7.215  -0.929 124.898  0.00  0.00    +0.065 A 
ATOM      8  C   LIG A   1      -8.238  -1.779 124.468  0.00  0.00    +0.063 A 
ATOM      9  C   LIG A   1      -8.835  -2.673 125.371  0.00  0.00    +0.026 A 
ATOM     10  C   LIG A   1      -8.407  -2.718 126.706  0.00  0.00    +0.021 A 
ATOM     11  C   LIG A   1      -9.016  -3.636 127.657  0.00  0.00    +0.011 C 
ATOM     12  C   LIG A   1      -8.528  -3.666 128.902  0.00  0.00    +0.020 C 
ENDROOT
BRANCH   8  13
ATOM     13  C   LIG A   1      -8.660  -1.773 123.047  0.00  0.00    +0.339 C 
ATOM     14  O   LIG A   1      -7.962  -2.171 122.123  0.00  0.00    -0.245 OA
BRANCH  13  15
ATOM     15  O   LIG A   1      -9.912  -1.268 122.958  0.00  0.00    -0.464 OA
ATOM     16  C   LIG A   1      -9.997   0.102 122.571  0.00  0.00    +0.280 C 
ENDBRANCH  13  15
ENDBRANCH   8  13
BRANCH   6  17
ATOM     17  O   LIG A   1      -5.751  -0.169 126.710  0.00  0.00    -0.422 OA
BRANCH  17  18
ATOM     18  C   LIG A   1      -5.884   1.202 126.904  0.00  0.00    +0.309 C 
ATOM     19  C   LIG A   1      -4.669   1.873 126.340  0.00  0.00    +0.136 C 
ATOM     20  O   LIG A   1      -6.802   1.786 127.461  0.00  0.00    -0.251 OA
ENDBRANCH  17  18
ENDBRANCH   6  17
TORSDOF 4
ENDMDL
MODEL 3
REMARK VINA RESULT:      -6.2      7.666      9.296
REMARK  Name = NuBBE_159
REMARK  8 active torsions:
REMARK  status: ('A' for Active; 'I' for Inactive)
REMARK    1  A    between atoms: C_1  and  C_2
REMARK    2  A    between atoms: C_2  and  C_3
REMARK    3  A    between atoms: C_6  and  O_7
REMARK    4  A    between atoms: O_7  and  C_8
REMARK    5  A    between atoms: C_8  and  C_9
REMARK    6  A    between atoms: C_12  and  C_13
REMARK    7  A    between atoms: C_13  and  O_14
REMARK    8  A    between atoms: O_14  and  C_15
REMARK                            x       y       z     vdW  Elec       q    Type
REMARK                         _______ _______ _______ _____ _____    ______ ____
ROOT
ATOM      1  C   LIG A   1      -8.484  -2.977 123.754  0.00  0.00    +0.060 C 
ATOM      2  C   LIG A   1      -8.154  -2.294 125.086  0.00  0.00    +0.124 C 
ATOM      3  C   LIG A   1      -9.165  -2.732 126.154  0.00  0.00    +0.060 C 
ATOM      4  O   LIG A   1      -8.377  -0.891 124.862  0.00  0.00    -0.478 OA
ATOM      5  C   LIG A   1      -7.388   0.002 125.157  0.00  0.00    +0.171 A 
ATOM      6  C   LIG A   1      -7.696   1.355 124.976  0.00  0.00    +0.174 A 
ATOM      7  C   LIG A   1      -6.778   2.348 125.296  0.00  0.00    +0.065 A 
ATOM      8  C   LIG A   1      -5.511   1.987 125.763  0.00  0.00    +0.063 A 
ATOM      9  C   LIG A   1      -5.182   0.631 125.926  0.00  0.00    +0.026 A 
ATOM     10  C   LIG A   1      -6.122  -0.364 125.622  0.00  0.00    +0.021 A 
ATOM     11  C   LIG A   1      -5.799  -1.774 125.781  0.00  0.00    +0.011 C 
ATOM     12  C   LIG A   1      -6.756  -2.671 125.523  0.00  0.00    +0.020 C 
ENDROOT
BRANCH   8  13
ATOM     13  C   LIG A   1      -4.530   3.034 126.135  0.00  0.00    +0.339 C 
ATOM     14  O   LIG A   1      -4.746   4.236 126.051  0.00  0.00    -0.245 OA
BRANCH  13  15
ATOM     15  O   LIG A   1      -3.394   2.442 126.570  0.00  0.00    -0.464 OA
ATOM     16  C   LIG A   1      -2.239   3.279 126.607  0.00  0.00    +0.280 C 
ENDBRANCH  13  15
ENDBRANCH   8  13
BRANCH   6  17
ATOM     17  O   LIG A   1      -9.007   1.658 124.551  0.00  0.00    -0.422 OA
BRANCH  17  18
ATOM     18  C   LIG A   1      -9.290   2.044 123.245  0.00  0.00    +0.309 C 
ATOM     19  C   LIG A   1     -10.097   0.958 122.602  0.00  0.00    +0.136 C 
ATOM     20  O   LIG A   1      -8.931   3.067 122.681  0.00  0.00    -0.251 OA
ENDBRANCH  17  18
ENDBRANCH   6  17
TORSDOF 4
ENDMDL
MODEL 4
REMARK VINA RESULT:      -6.1      7.321      9.917
REMARK  Name = NuBBE_159
REMARK  8 active torsions:
REMARK  status: ('A' for Active; 'I' for Inactive)
REMARK    1  A    between atoms: C_1  and  C_2
REMARK    2  A    between atoms: C_2  and  C_3
REMARK    3  A    between atoms: C_6  and  O_7
REMARK    4  A    between atoms: O_7  and  C_8
REMARK    5  A    between atoms: C_8  and  C_9
REMARK    6  A    between atoms: C_12  and  C_13
REMARK    7  A    between atoms: C_13  and  O_14
REMARK    8  A    between atoms: O_14  and  C_15
REMARK                            x       y       z     vdW  Elec       q    Type
REMARK                         _______ _______ _______ _____ _____    ______ ____
ROOT
ATOM      1  C   LIG A   1      -5.112  -2.343 128.803  0.00  0.00    +0.060 C 
ATOM      2  C   LIG A   1      -6.626  -2.236 128.586  0.00  0.00    +0.124 C 
ATOM      3  C   LIG A   1      -7.321  -3.460 129.197  0.00  0.00    +0.060 C 
ATOM      4  O   LIG A   1      -6.816  -2.326 127.163  0.00  0.00    -0.478 OA
ATOM      5  C   LIG A   1      -7.534  -1.360 126.519  0.00  0.00    +0.171 A 
ATOM      6  C   LIG A   1      -7.734  -1.544 125.146  0.00  0.00    +0.174 A 
ATOM      7  C   LIG A   1      -8.495  -0.647 124.407  0.00  0.00    +0.065 A 
ATOM      8  C   LIG A   1      -9.030   0.481 125.036  0.00  0.00    +0.063 A 
ATOM      9  C   LIG A   1      -8.815   0.690 126.408  0.00  0.00    +0.026 A 
ATOM     10  C   LIG A   1      -8.065  -0.233 127.152  0.00  0.00    +0.021 A 
ATOM     11  C   LIG A   1      -7.829  -0.033 128.574  0.00  0.00    +0.011 C 
ATOM     12  C   LIG A   1      -7.149  -0.976 129.236  0.00  0.00    +0.020 C 
ENDROOT
BRANCH   8  13
ATOM     13  C   LIG A   1      -9.866   1.434 124.267  0.00  0.00    +0.339 C 
ATOM     14  O   LIG A   1     -11.049   1.252 124.006  0.00  0.00    -0.245 OA
BRANCH  13  15
ATOM     15  O   LIG A   1      -9.115   2.504 123.921  0.00  0.00    -0.464 OA
ATOM     16  C   LIG A   1      -8.883   2.668 122.523  0.00  0.00    +0.280 C 
ENDBRANCH  13  15
ENDBRANCH   8  13
BRANCH   6  17
ATOM     17  O   LIG A   1      -7.213  -2.727 124.580  0.00  0.00    -0.422 OA
BRANCH  17  18
ATOM     18  C   LIG A   1      -6.157  -2.710 123.676  0.00  0.00    +0.309 C 
ATOM     19  C   LIG A   1      -5.086  -3.621 124.194  0.00  0.00    +0.136 C 
ATOM     20  O   LIG A   1      -6.071  -2.054 122.648  0.00  0.00    -0.251 OA
ENDBRANCH  17  18
ENDBRANCH   6  17
TORSDOF 4
ENDMDL
MODEL 5
REMARK VINA RESULT:      -6.1      5.267      8.466
REMARK  Name = NuBBE_159
REMARK  8 active torsions:
REMARK  status: ('A' for Active; 'I' for Inactive)
REMARK    1  A    between atoms: C_1  and  C_2
REMARK    2  A    between atoms: C_2  and  C_3
REMARK    3  A    between atoms: C_6  and  O_7
REMARK    4  A    between atoms: O_7  and  C_8
REMARK    5  A    between atoms: C_8  and  C_9
REMARK    6  A    between atoms: C_12  and  C_13
REMARK    7  A    between atoms: C_13  and  O_14
REMARK    8  A    between atoms: O_14  and  C_15
REMARK                            x       y       z     vdW  Elec       q    Type
REMARK                         _______ _______ _______ _____ _____    ______ ____
ROOT
ATOM      1  C   LIG A   1      -9.386  -2.956 123.494  0.00  0.00    +0.060 C 
ATOM      2  C   LIG A   1      -8.348  -1.879 123.826  0.00  0.00    +0.124 C 
ATOM      3  C   LIG A   1      -7.057  -2.149 123.042  0.00  0.00    +0.060 C 
ATOM      4  O   LIG A   1      -8.030  -2.067 125.216  0.00  0.00    -0.478 OA
ATOM      5  C   LIG A   1      -8.121  -1.011 126.076  0.00  0.00    +0.171 A 
ATOM      6  C   LIG A   1      -7.735  -1.250 127.399  0.00  0.00    +0.174 A 
ATOM      7  C   LIG A   1      -7.740  -0.229 128.342  0.00  0.00    +0.065 A 
ATOM      8  C   LIG A   1      -8.180   1.045 127.973  0.00  0.00    +0.063 A 
ATOM      9  C   LIG A   1      -8.592   1.291 126.653  0.00  0.00    +0.026 A 
ATOM     10  C   LIG A   1      -8.563   0.261 125.702  0.00  0.00    +0.021 A 
ATOM     11  C   LIG A   1      -8.989   0.495 124.330  0.00  0.00    +0.011 C 
ATOM     12  C   LIG A   1      -8.889  -0.515 123.460  0.00  0.00    +0.020 C 
ENDROOT
BRANCH   8  13
ATOM     13  C   LIG A   1      -8.166   2.151 128.960  0.00  0.00    +0.339 C 
ATOM     14  O   LIG A   1      -7.184   2.467 129.621  0.00  0.00    -0.245 OA
BRANCH  13  15
ATOM     15  O   LIG A   1      -9.388   2.729 128.995  0.00  0.00    -0.464 OA
ATOM     16  C   LIG A   1      -9.862   3.088 130.292  0.00  0.00    +0.280 C 
ENDBRANCH  13  15
ENDBRANCH   8  13
BRANCH   6  17
ATOM     17  O   LIG A   1      -7.253  -2.542 127.698  0.00  0.00    -0.422 OA
BRANCH  17  18
ATOM     18  C   LIG A   1      -7.829  -3.336 128.683  0.00  0.00    +0.309 C 
ATOM     19  C   LIG A   1      -9.010  -4.038 128.085  0.00  0.00    +0.136 C 
ATOM     20  O   LIG A   1      -7.479  -3.442 129.849  0.00  0.00    -0.251 OA
ENDBRANCH  17  18
ENDBRANCH   6  17
TORSDOF 4
ENDMDL
MODEL 6
REMARK VINA RESULT:      -6.1      5.640      8.323
REMARK  Name = NuBBE_159
REMARK  8 active torsions:
REMARK  status: ('A' for Active; 'I' for Inactive)
REMARK    1  A    between atoms: C_1  and  C_2
REMARK    2  A    between atoms: C_2  and  C_3
REMARK    3  A    between atoms: C_6  and  O_7
REMARK    4  A    between atoms: O_7  and  C_8
REMARK    5  A    between atoms: C_8  and  C_9
REMARK    6  A    between atoms: C_12  and  C_13
REMARK    7  A    between atoms: C_13  and  O_14
REMARK    8  A    between atoms: O_14  and  C_15
REMARK                            x       y       z     vdW  Elec       q    Type
REMARK                         _______ _______ _______ _____ _____    ______ ____
ROOT
ATOM      1  C   LIG A   1      -7.240  -1.831 122.715  0.00  0.00    +0.060 C 
ATOM      2  C   LIG A   1      -8.103  -2.086 123.955  0.00  0.00    +0.124 C 
ATOM      3  C   LIG A   1      -9.371  -2.850 123.553  0.00  0.00    +0.060 C 
ATOM      4  O   LIG A   1      -8.533  -0.786 124.397  0.00  0.00    -0.478 OA
ATOM      5  C   LIG A   1      -8.321  -0.412 125.693  0.00  0.00    +0.171 A 
ATOM      6  C   LIG A   1      -8.822   0.839 126.070  0.00  0.00    +0.174 A 
ATOM      7  C   LIG A   1      -8.706   1.291 127.379  0.00  0.00    +0.065 A 
ATOM      8  C   LIG A   1      -8.038   0.504 128.322  0.00  0.00    +0.063 A 
ATOM      9  C   LIG A   1      -7.510  -0.743 127.949  0.00  0.00    +0.026 A 
ATOM     10  C   LIG A   1      -7.652  -1.202 126.631  0.00  0.00    +0.021 A 
ATOM     11  C   LIG A   1      -7.108  -2.490 126.224  0.00  0.00    +0.011 C 
ATOM     12  C   LIG A   1      -7.322  -2.893 124.967  0.00  0.00    +0.020 C 
ENDROOT
BRANCH   8  13
ATOM     13  C   LIG A   1      -7.929   0.960 129.728  0.00  0.00    +0.339 C 
ATOM     14  O   LIG A   1      -7.637   2.103 130.057  0.00  0.00    -0.245 OA
BRANCH  13  15
ATOM     15  O   LIG A   1      -8.204  -0.076 130.553  0.00  0.00    -0.464 OA
ATOM     16  C   LIG A   1      -9.037   0.229 131.669  0.00  0.00    +0.280 C 
ENDBRANCH  13  15
ENDBRANCH   8  13
BRANCH   6  17
ATOM     17  O   LIG A   1      -9.530   1.563 125.088  0.00  0.00    -0.422 OA
BRANCH  17  18
ATOM     18  C   LIG A   1      -9.012   2.713 124.503  0.00  0.00    +0.309 C 
ATOM     19  C   LIG A   1      -8.716   2.412 123.066  0.00  0.00    +0.136 C 
ATOM     20  O   LIG A   1      -8.794   3.787 125.045  0.00  0.00    -0.251 OA
ENDBRANCH  17  18
ENDBRANCH   6  17
TORSDOF 4
ENDMDL
MODEL 7
REMARK VINA RESULT:      -6.1      2.941      4.272
REMARK  Name = NuBBE_159
REMARK  8 active torsions:
REMARK  status: ('A' for Active; 'I' for Inactive)
REMARK    1  A    between atoms: C_1  and  C_2
REMARK    2  A    between atoms: C_2  and  C_3
REMARK    3  A    between atoms: C_6  and  O_7
REMARK    4  A    between atoms: O_7  and  C_8
REMARK    5  A    between atoms: C_8  and  C_9
REMARK    6  A    between atoms: C_12  and  C_13
REMARK    7  A    between atoms: C_13  and  O_14
REMARK    8  A    between atoms: O_14  and  C_15
REMARK                            x       y       z     vdW  Elec       q    Type
REMARK                         _______ _______ _______ _____ _____    ______ ____
ROOT
ATOM      1  C   LIG A   1     -12.077   6.813 131.724  0.00  0.00    +0.060 C 
ATOM      2  C   LIG A   1     -10.939   6.191 130.907  0.00  0.00    +0.124 C 
ATOM      3  C   LIG A   1     -11.501   5.094 129.993  0.00  0.00    +0.060 C 
ATOM      4  O   LIG A   1     -10.095   5.532 131.866  0.00  0.00    -0.478 OA
ATOM      5  C   LIG A   1      -8.758   5.809 131.889  0.00  0.00    +0.171 A 
ATOM      6  C   LIG A   1      -7.987   5.085 132.804  0.00  0.00    +0.174 A 
ATOM      7  C   LIG A   1      -6.609   5.254 132.871  0.00  0.00    +0.065 A 
ATOM      8  C   LIG A   1      -5.992   6.196 132.044  0.00  0.00    +0.063 A 
ATOM      9  C   LIG A   1      -6.759   6.947 131.139  0.00  0.00    +0.026 A 
ATOM     10  C   LIG A   1      -8.146   6.754 131.061  0.00  0.00    +0.021 A 
ATOM     11  C   LIG A   1      -8.959   7.525 130.131  0.00  0.00    +0.011 C 
ATOM     12  C   LIG A   1     -10.267   7.256 130.070  0.00  0.00    +0.020 C 
ENDROOT
BRANCH   8  13
ATOM     13  C   LIG A   1      -4.520   6.369 132.084  0.00  0.00    +0.339 C 
ATOM     14  O   LIG A   1      -3.773   5.719 132.804  0.00  0.00    -0.245 OA
BRANCH  13  15
ATOM     15  O   LIG A   1      -4.164   7.340 131.212  0.00  0.00    -0.464 OA
ATOM     16  C   LIG A   1      -3.092   8.182 131.632  0.00  0.00    +0.280 C 
ENDBRANCH  13  15
ENDBRANCH   8  13
BRANCH   6  17
ATOM     17  O   LIG A   1      -8.660   4.113 133.575  0.00  0.00    -0.422 OA
BRANCH  17  18
ATOM     18  C   LIG A   1      -8.460   2.750 133.383  0.00  0.00    +0.309 C 
ATOM     19  C   LIG A   1      -9.584   2.228 132.542  0.00  0.00    +0.136 C 
ATOM     20  O   LIG A   1      -7.555   2.063 133.834  0.00  0.00    -0.251 OA
ENDBRANCH  17  18
ENDBRANCH   6  17
TORSDOF 4
ENDMDL
MODEL 8
REMARK VINA RESULT:      -6.0      6.512      9.108
REMARK  Name = NuBBE_159
REMARK  8 active torsions:
REMARK  status: ('A' for Active; 'I' for Inactive)
REMARK    1  A    between atoms: C_1  and  C_2
REMARK    2  A    between atoms: C_2  and  C_3
REMARK    3  A    between atoms: C_6  and  O_7
REMARK    4  A    between atoms: O_7  and  C_8
REMARK    5  A    between atoms: C_8  and  C_9
REMARK    6  A    between atoms: C_12  and  C_13
REMARK    7  A    between atoms: C_13  and  O_14
REMARK    8  A    between atoms: O_14  and  C_15
REMARK                            x       y       z     vdW  Elec       q    Type
REMARK                         _______ _______ _______ _____ _____    ______ ____
ROOT
ATOM      1  C   LIG A   1      -6.942  -1.849 122.489  0.00  0.00    +0.060 C 
ATOM      2  C   LIG A   1      -8.104  -1.848 123.488  0.00  0.00    +0.124 C 
ATOM      3  C   LIG A   1      -9.363  -1.289 122.813  0.00  0.00    +0.060 C 
ATOM      4  O   LIG A   1      -7.733  -0.905 124.508  0.00  0.00    -0.478 OA
ATOM      5  C   LIG A   1      -7.751  -1.288 125.818  0.00  0.00    +0.171 A 
ATOM      6  C   LIG A   1      -7.441  -0.301 126.760  0.00  0.00    +0.174 A 
ATOM      7  C   LIG A   1      -7.482  -0.574 128.122  0.00  0.00    +0.065 A 
ATOM      8  C   LIG A   1      -7.793  -1.866 128.555  0.00  0.00    +0.063 A 
ATOM      9  C   LIG A   1      -8.082  -2.871 127.618  0.00  0.00    +0.026 A 
ATOM     10  C   LIG A   1      -8.061  -2.581 126.245  0.00  0.00    +0.021 A 
ATOM     11  C   LIG A   1      -8.355  -3.610 125.258  0.00  0.00    +0.011 C 
ATOM     12  C   LIG A   1      -8.368  -3.258 123.969  0.00  0.00    +0.020 C 
ENDROOT
BRANCH   8  13
ATOM     13  C   LIG A   1      -7.867  -2.166 130.005  0.00  0.00    +0.339 C 
ATOM     14  O   LIG A   1      -8.177  -1.345 130.860  0.00  0.00    -0.245 OA
BRANCH  13  15
ATOM     15  O   LIG A   1      -7.546  -3.465 130.206  0.00  0.00    -0.464 OA
ATOM     16  C   LIG A   1      -6.199  -3.710 130.606  0.00  0.00    +0.280 C 
ENDBRANCH  13  15
ENDBRANCH   8  13
BRANCH   6  17
ATOM     17  O   LIG A   1      -7.186   0.995 126.263  0.00  0.00    -0.422 OA
BRANCH  17  18
ATOM     18  C   LIG A   1      -8.125   2.017 126.349  0.00  0.00    +0.309 C 
ATOM     19  C   LIG A   1      -8.562   2.366 124.960  0.00  0.00    +0.136 C 
ATOM     20  O   LIG A   1      -8.522   2.575 127.361  0.00  0.00    -0.251 OA
ENDBRANCH  17  18
ENDBRANCH   6  17
TORSDOF 4
ENDMDL
MODEL 9
REMARK VINA RESULT:      -5.8      3.777      7.096
REMARK  Name = NuBBE_159
REMARK  8 active torsions:
REMARK  status: ('A' for Active; 'I' for Inactive)
REMARK    1  A    between atoms: C_1  and  C_2
REMARK    2  A    between atoms: C_2  and  C_3
REMARK    3  A    between atoms: C_6  and  O_7
REMARK    4  A    between atoms: O_7  and  C_8
REMARK    5  A    between atoms: C_8  and  C_9
REMARK    6  A    between atoms: C_12  and  C_13
REMARK    7  A    between atoms: C_13  and  O_14
REMARK    8  A    between atoms: O_14  and  C_15
REMARK                            x       y       z     vdW  Elec       q    Type
REMARK                         _______ _______ _______ _____ _____    ______ ____
ROOT
ATOM      1  C   LIG A   1      -1.955   6.098 131.738  0.00  0.00    +0.060 C 
ATOM      2  C   LIG A   1      -3.083   7.098 132.015  0.00  0.00    +0.124 C 
ATOM      3  C   LIG A   1      -2.532   8.290 132.807  0.00  0.00    +0.060 C 
ATOM      4  O   LIG A   1      -3.997   6.413 132.889  0.00  0.00    -0.478 OA
ATOM      5  C   LIG A   1      -5.319   6.342 132.557  0.00  0.00    +0.171 A 
ATOM      6  C   LIG A   1      -6.161   5.718 133.484  0.00  0.00    +0.174 A 
ATOM      7  C   LIG A   1      -7.532   5.640 133.267  0.00  0.00    +0.065 A 
ATOM      8  C   LIG A   1      -8.070   6.152 132.083  0.00  0.00    +0.063 A 
ATOM      9  C   LIG A   1      -7.232   6.759 131.135  0.00  0.00    +0.026 A 
ATOM     10  C   LIG A   1      -5.852   6.855 131.372  0.00  0.00    +0.021 A 
ATOM     11  C   LIG A   1      -4.966   7.477 130.399  0.00  0.00    +0.011 C 
ATOM     12  C   LIG A   1      -3.670   7.582 130.708  0.00  0.00    +0.020 C 
ENDROOT
BRANCH   8  13
ATOM     13  C   LIG A   1      -9.533   6.101 131.849  0.00  0.00    +0.339 C 
ATOM     14  O   LIG A   1     -10.371   6.460 132.667  0.00  0.00    -0.245 OA
BRANCH  13  15
ATOM     15  O   LIG A   1      -9.767   5.605 130.612  0.00  0.00    -0.464 OA
ATOM     16  C   LIG A   1     -11.036   4.980 130.429  0.00  0.00    +0.280 C 
ENDBRANCH  13  15
ENDBRANCH   8  13
BRANCH   6  17
ATOM     17  O   LIG A   1      -5.566   5.268 134.682  0.00  0.00    -0.422 OA
BRANCH  17  18
ATOM     18  C   LIG A   1      -5.865   5.837 135.915  0.00  0.00    +0.309 C 
ATOM     19  C   LIG A   1      -4.925   6.980 136.140  0.00  0.00    +0.136 C 
ATOM     20  O   LIG A   1      -6.718   5.474 136.712  0.00  0.00    -0.251 OA
ENDBRANCH  17  18
ENDBRANCH   6  17
TORSDOF 4
ENDMDL
