MODEL 1
REMARK VINA RESULT:      -8.8      0.000      0.000
REMARK  Name = NuBBE_1644
REMARK  17 active torsions:
REMARK  status: ('A' for Active; 'I' for Inactive)
REMARK    1  A    between atoms: C_1  and  C_2
REMARK    2  A    between atoms: C_2  and  C_3
REMARK    3  A    between atoms: C_4  and  C_5
REMARK    4  A    between atoms: C_5  and  C_6
REMARK    5  A    between atoms: C_6  and  C_7
REMARK    6  A    between atoms: C_7  and  C_8
REMARK    7  A    between atoms: C_9  and  C_10
REMARK    8  A    between atoms: C_10  and  C_11
REMARK    9  A    between atoms: C_11  and  C_12
REMARK   10  A    between atoms: C_12  and  C_13
REMARK   11  A    between atoms: C_14  and  C_15
REMARK   12  A    between atoms: C_15  and  C_16
REMARK   13  A    between atoms: C_16  and  C_17
REMARK   14  A    between atoms: C_17  and  C_18
REMARK   15  A    between atoms: C_19  and  C_20
REMARK   16  A    between atoms: C_20  and  C_21
REMARK   17  A    between atoms: C_23  and  O_24
REMARK                            x       y       z     vdW  Elec       q    Type
REMARK                         _______ _______ _______ _____ _____    ______ ____
ROOT
ATOM      1  C   LIG A   1      -8.146   1.024 129.206  0.00  0.00    +0.034 C 
ENDROOT
BRANCH   1   2
ATOM      2  C   LIG A   1      -7.728   2.485 129.390  0.00  0.00    -0.076 C 
ATOM      3  C   LIG A   1      -6.271   2.774 129.595  0.00  0.00    +0.038 C 
ATOM      4  C   LIG A   1      -8.673   3.446 129.296  0.00  0.00    -0.023 C 
BRANCH   4   5
ATOM      5  C   LIG A   1      -8.524   4.945 129.421  0.00  0.00    +0.066 C 
BRANCH   5   6
ATOM      6  C   LIG A   1      -9.784   5.773 129.627  0.00  0.00    +0.002 A 
ATOM      7  C   LIG A   1     -10.454   5.697 130.872  0.00  0.00    +0.053 A 
ATOM      8  C   LIG A   1     -11.623   6.440 131.110  0.00  0.00    +0.118 A 
ATOM      9  C   LIG A   1     -12.161   7.280 130.142  0.00  0.00    +0.053 A 
ATOM     10  C   LIG A   1     -11.511   7.343 128.924  0.00  0.00    +0.009 A 
ATOM     11  C   LIG A   1     -11.862   8.090 127.701  0.00  0.00    +0.160 C 
ATOM     12  C   LIG A   1     -10.365   6.604 128.677  0.00  0.00    +0.139 A 
ATOM     13  O   LIG A   1      -9.913   6.759 127.367  0.00  0.00    -0.425 OA
ATOM     14  C   LIG A   1     -10.820   7.601 126.731  0.00  0.00    +0.317 C 
ATOM     15  O   LIG A   1     -10.755   7.906 125.578  0.00  0.00    -0.250 OA
BRANCH   8  16
ATOM     16  O   LIG A   1     -12.295   6.358 132.296  0.00  0.00    -0.507 OA
ATOM     17  H   LIG A   1     -11.659   6.223 133.015  0.00  0.00    +0.292 HD
ENDBRANCH   8  16
ENDBRANCH   5   6
ENDBRANCH   4   5
ENDBRANCH   1   2
BRANCH   1  18
ATOM     18  C   LIG A   1      -7.122   0.094 128.539  0.00  0.00    +0.031 C 
BRANCH  18  21
ATOM     19  C   LIG A   1      -8.010  -2.358 128.304  0.00  0.00    -0.076 C 
ATOM     20  C   LIG A   1      -8.100  -2.700 129.766  0.00  0.00    +0.038 C 
ATOM     21  C   LIG A   1      -7.610  -1.153 127.848  0.00  0.00    -0.027 C 
BRANCH  19  22
ATOM     22  C   LIG A   1      -8.429  -3.509 127.396  0.00  0.00    +0.034 C 
BRANCH  22  23
ATOM     23  C   LIG A   1      -9.415  -3.235 126.242  0.00  0.00    +0.031 C 
BRANCH  23  26
ATOM     24  C   LIG A   1      -8.721  -1.773 124.206  0.00  0.00    -0.076 C 
ATOM     25  C   LIG A   1      -9.068  -0.429 124.765  0.00  0.00    +0.038 C 
ATOM     26  C   LIG A   1      -8.930  -2.945 124.841  0.00  0.00    -0.027 C 
BRANCH  24  27
ATOM     27  C   LIG A   1      -8.159  -1.786 122.794  0.00  0.00    +0.034 C 
BRANCH  27  28
ATOM     28  C   LIG A   1      -6.646  -1.513 122.607  0.00  0.00    +0.031 C 
BRANCH  28  32
ATOM     29  C   LIG A   1      -4.196  -4.390 123.741  0.00  0.00    +0.038 C 
ATOM     30  C   LIG A   1      -5.129  -3.208 123.801  0.00  0.00    -0.080 C 
ATOM     31  C   LIG A   1      -5.342  -2.693 125.195  0.00  0.00    +0.038 C 
ATOM     32  C   LIG A   1      -5.694  -2.687 122.693  0.00  0.00    -0.028 C 
ENDBRANCH  28  32
ENDBRANCH  27  28
ENDBRANCH  24  27
ENDBRANCH  23  26
ENDBRANCH  22  23
ENDBRANCH  19  22
ENDBRANCH  18  21
ENDBRANCH   1  18
TORSDOF 12
ENDMDL
MODEL 2
REMARK VINA RESULT:      -8.7      4.026      5.143
REMARK  Name = NuBBE_1644
REMARK  17 active torsions:
REMARK  status: ('A' for Active; 'I' for Inactive)
REMARK    1  A    between atoms: C_1  and  C_2
REMARK    2  A    between atoms: C_2  and  C_3
REMARK    3  A    between atoms: C_4  and  C_5
REMARK    4  A    between atoms: C_5  and  C_6
REMARK    5  A    between atoms: C_6  and  C_7
REMARK    6  A    between atoms: C_7  and  C_8
REMARK    7  A    between atoms: C_9  and  C_10
REMARK    8  A    between atoms: C_10  and  C_11
REMARK    9  A    between atoms: C_11  and  C_12
REMARK   10  A    between atoms: C_12  and  C_13
REMARK   11  A    between atoms: C_14  and  C_15
REMARK   12  A    between atoms: C_15  and  C_16
REMARK   13  A    between atoms: C_16  and  C_17
REMARK   14  A    between atoms: C_17  and  C_18
REMARK   15  A    between atoms: C_19  and  C_20
REMARK   16  A    between atoms: C_20  and  C_21
REMARK   17  A    between atoms: C_23  and  O_24
REMARK                            x       y       z     vdW  Elec       q    Type
REMARK                         _______ _______ _______ _____ _____    ______ ____
ROOT
ATOM      1  C   LIG A   1      -5.500  -0.044 128.056  0.00  0.00    +0.034 C 
ENDROOT
BRANCH   1   2
ATOM      2  C   LIG A   1      -5.575   1.253 127.246  0.00  0.00    -0.076 C 
ATOM      3  C   LIG A   1      -4.443   1.561 126.312  0.00  0.00    +0.038 C 
ATOM      4  C   LIG A   1      -6.679   2.024 127.360  0.00  0.00    -0.023 C 
BRANCH   4   5
ATOM      5  C   LIG A   1      -7.007   3.327 126.668  0.00  0.00    +0.066 C 
BRANCH   5   6
ATOM      6  C   LIG A   1      -7.121   3.321 125.151  0.00  0.00    +0.002 A 
ATOM      7  C   LIG A   1      -6.130   3.987 124.390  0.00  0.00    +0.053 A 
ATOM      8  C   LIG A   1      -6.192   4.013 122.985  0.00  0.00    +0.118 A 
ATOM      9  C   LIG A   1      -7.219   3.383 122.291  0.00  0.00    +0.053 A 
ATOM     10  C   LIG A   1      -8.192   2.745 123.038  0.00  0.00    +0.009 A 
ATOM     11  C   LIG A   1      -9.413   2.045 122.600  0.00  0.00    +0.160 C 
ATOM     12  C   LIG A   1      -8.144   2.726 124.422  0.00  0.00    +0.139 A 
ATOM     13  O   LIG A   1      -9.255   2.092 124.977  0.00  0.00    -0.425 OA
ATOM     14  C   LIG A   1     -10.071   1.719 123.914  0.00  0.00    +0.317 C 
ATOM     15  O   LIG A   1     -11.135   1.190 124.040  0.00  0.00    -0.250 OA
BRANCH   8  16
ATOM     16  O   LIG A   1      -5.258   4.671 122.238  0.00  0.00    -0.507 OA
ATOM     17  H   LIG A   1      -4.373   4.372 122.498  0.00  0.00    +0.292 HD
ENDBRANCH   8  16
ENDBRANCH   5   6
ENDBRANCH   4   5
ENDBRANCH   1   2
BRANCH   1  18
ATOM     18  C   LIG A   1      -6.788  -0.489 128.762  0.00  0.00    +0.031 C 
BRANCH  18  21
ATOM     19  C   LIG A   1      -7.878  -2.833 128.345  0.00  0.00    -0.076 C 
ATOM     20  C   LIG A   1      -7.242  -3.577 129.486  0.00  0.00    +0.038 C 
ATOM     21  C   LIG A   1      -7.664  -1.523 128.103  0.00  0.00    -0.027 C 
BRANCH  19  22
ATOM     22  C   LIG A   1      -8.797  -3.709 127.500  0.00  0.00    +0.034 C 
BRANCH  22  23
ATOM     23  C   LIG A   1      -9.584  -3.069 126.338  0.00  0.00    +0.031 C 
BRANCH  23  26
ATOM     24  C   LIG A   1      -8.881  -2.219 123.983  0.00  0.00    -0.076 C 
ATOM     25  C   LIG A   1      -9.453  -3.332 123.162  0.00  0.00    +0.038 C 
ATOM     26  C   LIG A   1      -8.911  -2.168 125.331  0.00  0.00    -0.027 C 
BRANCH  24  27
ATOM     27  C   LIG A   1      -8.164  -1.121 123.215  0.00  0.00    +0.034 C 
BRANCH  27  28
ATOM     28  C   LIG A   1      -6.619  -1.071 123.283  0.00  0.00    +0.031 C 
BRANCH  28  32
ATOM     29  C   LIG A   1      -4.569  -4.412 123.738  0.00  0.00    +0.038 C 
ATOM     30  C   LIG A   1      -5.303  -3.136 124.062  0.00  0.00    -0.080 C 
ATOM     31  C   LIG A   1      -5.338  -2.832 125.532  0.00  0.00    +0.038 C 
ATOM     32  C   LIG A   1      -5.854  -2.365 123.103  0.00  0.00    -0.028 C 
ENDBRANCH  28  32
ENDBRANCH  27  28
ENDBRANCH  24  27
ENDBRANCH  23  26
ENDBRANCH  22  23
ENDBRANCH  19  22
ENDBRANCH  18  21
ENDBRANCH   1  18
TORSDOF 12
ENDMDL
MODEL 3
REMARK VINA RESULT:      -8.5      4.374      7.101
REMARK  Name = NuBBE_1644
REMARK  17 active torsions:
REMARK  status: ('A' for Active; 'I' for Inactive)
REMARK    1  A    between atoms: C_1  and  C_2
REMARK    2  A    between atoms: C_2  and  C_3
REMARK    3  A    between atoms: C_4  and  C_5
REMARK    4  A    between atoms: C_5  and  C_6
REMARK    5  A    between atoms: C_6  and  C_7
REMARK    6  A    between atoms: C_7  and  C_8
REMARK    7  A    between atoms: C_9  and  C_10
REMARK    8  A    between atoms: C_10  and  C_11
REMARK    9  A    between atoms: C_11  and  C_12
REMARK   10  A    between atoms: C_12  and  C_13
REMARK   11  A    between atoms: C_14  and  C_15
REMARK   12  A    between atoms: C_15  and  C_16
REMARK   13  A    between atoms: C_16  and  C_17
REMARK   14  A    between atoms: C_17  and  C_18
REMARK   15  A    between atoms: C_19  and  C_20
REMARK   16  A    between atoms: C_20  and  C_21
REMARK   17  A    between atoms: C_23  and  O_24
REMARK                            x       y       z     vdW  Elec       q    Type
REMARK                         _______ _______ _______ _____ _____    ______ ____
ROOT
ATOM      1  C   LIG A   1      -6.020   1.957 130.969  0.00  0.00    +0.034 C 
ENDROOT
BRANCH   1   2
ATOM      2  C   LIG A   1      -7.128   2.372 129.999  0.00  0.00    -0.076 C 
ATOM      3  C   LIG A   1      -8.099   1.319 129.554  0.00  0.00    +0.038 C 
ATOM      4  C   LIG A   1      -7.221   3.671 129.640  0.00  0.00    -0.023 C 
BRANCH   4   5
ATOM      5  C   LIG A   1      -8.220   4.338 128.722  0.00  0.00    +0.066 C 
BRANCH   5   6
ATOM      6  C   LIG A   1      -9.231   5.293 129.339  0.00  0.00    +0.002 A 
ATOM      7  C   LIG A   1      -9.553   5.153 130.710  0.00  0.00    +0.053 A 
ATOM      8  C   LIG A   1     -10.483   6.008 131.326  0.00  0.00    +0.118 A 
ATOM      9  C   LIG A   1     -11.115   7.025 130.619  0.00  0.00    +0.053 A 
ATOM     10  C   LIG A   1     -10.807   7.151 129.277  0.00  0.00    +0.009 A 
ATOM     11  C   LIG A   1     -11.343   8.083 128.267  0.00  0.00    +0.160 C 
ATOM     12  C   LIG A   1      -9.901   6.304 128.661  0.00  0.00    +0.139 A 
ATOM     13  O   LIG A   1      -9.791   6.558 127.294  0.00  0.00    -0.425 OA
ATOM     14  C   LIG A   1     -10.686   7.584 127.008  0.00  0.00    +0.317 C 
ATOM     15  O   LIG A   1     -10.878   8.018 125.912  0.00  0.00    -0.250 OA
BRANCH   8  16
ATOM     16  O   LIG A   1     -10.824   5.870 132.641  0.00  0.00    -0.507 OA
ATOM     17  H   LIG A   1     -11.565   5.249 132.716  0.00  0.00    +0.292 HD
ENDBRANCH   8  16
ENDBRANCH   5   6
ENDBRANCH   4   5
ENDBRANCH   1   2
BRANCH   1  18
ATOM     18  C   LIG A   1      -6.461   1.540 132.380  0.00  0.00    +0.031 C 
BRANCH  18  21
ATOM     19  C   LIG A   1      -8.201   3.081 133.587  0.00  0.00    -0.076 C 
ATOM     20  C   LIG A   1      -9.450   2.558 132.931  0.00  0.00    +0.038 C 
ATOM     21  C   LIG A   1      -6.969   2.596 133.328  0.00  0.00    -0.027 C 
BRANCH  19  22
ATOM     22  C   LIG A   1      -8.475   4.204 134.580  0.00  0.00    +0.034 C 
BRANCH  22  23
ATOM     23  C   LIG A   1      -7.698   5.530 134.448  0.00  0.00    +0.031 C 
BRANCH  23  26
ATOM     24  C   LIG A   1      -6.066   6.100 132.504  0.00  0.00    -0.076 C 
ATOM     25  C   LIG A   1      -4.785   5.690 133.158  0.00  0.00    +0.038 C 
ATOM     26  C   LIG A   1      -7.277   6.067 133.100  0.00  0.00    -0.027 C 
BRANCH  24  27
ATOM     27  C   LIG A   1      -5.951   6.653 131.092  0.00  0.00    +0.034 C 
BRANCH  27  28
ATOM     28  C   LIG A   1      -4.546   6.724 130.448  0.00  0.00    +0.031 C 
BRANCH  28  32
ATOM     29  C   LIG A   1      -2.732   4.254 127.962  0.00  0.00    +0.038 C 
ATOM     30  C   LIG A   1      -3.107   5.517 128.694  0.00  0.00    -0.080 C 
ATOM     31  C   LIG A   1      -2.311   6.712 128.257  0.00  0.00    +0.038 C 
ATOM     32  C   LIG A   1      -4.072   5.537 129.636  0.00  0.00    -0.028 C 
ENDBRANCH  28  32
ENDBRANCH  27  28
ENDBRANCH  24  27
ENDBRANCH  23  26
ENDBRANCH  22  23
ENDBRANCH  19  22
ENDBRANCH  18  21
ENDBRANCH   1  18
TORSDOF 12
ENDMDL
MODEL 4
REMARK VINA RESULT:      -8.3      4.173      5.077
REMARK  Name = NuBBE_1644
REMARK  17 active torsions:
REMARK  status: ('A' for Active; 'I' for Inactive)
REMARK    1  A    between atoms: C_1  and  C_2
REMARK    2  A    between atoms: C_2  and  C_3
REMARK    3  A    between atoms: C_4  and  C_5
REMARK    4  A    between atoms: C_5  and  C_6
REMARK    5  A    between atoms: C_6  and  C_7
REMARK    6  A    between atoms: C_7  and  C_8
REMARK    7  A    between atoms: C_9  and  C_10
REMARK    8  A    between atoms: C_10  and  C_11
REMARK    9  A    between atoms: C_11  and  C_12
REMARK   10  A    between atoms: C_12  and  C_13
REMARK   11  A    between atoms: C_14  and  C_15
REMARK   12  A    between atoms: C_15  and  C_16
REMARK   13  A    between atoms: C_16  and  C_17
REMARK   14  A    between atoms: C_17  and  C_18
REMARK   15  A    between atoms: C_19  and  C_20
REMARK   16  A    between atoms: C_20  and  C_21
REMARK   17  A    between atoms: C_23  and  O_24
REMARK                            x       y       z     vdW  Elec       q    Type
REMARK                         _______ _______ _______ _____ _____    ______ ____
ROOT
ATOM      1  C   LIG A   1      -5.659   0.014 127.986  0.00  0.00    +0.034 C 
ENDROOT
BRANCH   1   2
ATOM      2  C   LIG A   1      -5.937   1.226 127.094  0.00  0.00    -0.076 C 
ATOM      3  C   LIG A   1      -4.867   1.648 126.133  0.00  0.00    +0.038 C 
ATOM      4  C   LIG A   1      -7.150   1.817 127.165  0.00  0.00    -0.023 C 
BRANCH   4   5
ATOM      5  C   LIG A   1      -7.681   3.003 126.392  0.00  0.00    +0.066 C 
BRANCH   5   6
ATOM      6  C   LIG A   1      -8.151   2.772 124.964  0.00  0.00    +0.002 A 
ATOM      7  C   LIG A   1      -9.336   2.027 124.748  0.00  0.00    +0.053 A 
ATOM      8  C   LIG A   1      -9.810   1.784 123.447  0.00  0.00    +0.118 A 
ATOM      9  C   LIG A   1      -9.144   2.269 122.328  0.00  0.00    +0.053 A 
ATOM     10  C   LIG A   1      -7.981   2.985 122.542  0.00  0.00    +0.009 A 
ATOM     11  C   LIG A   1      -7.040   3.573 121.571  0.00  0.00    +0.160 C 
ATOM     12  C   LIG A   1      -7.501   3.218 123.820  0.00  0.00    +0.139 A 
ATOM     13  O   LIG A   1      -6.282   3.897 123.807  0.00  0.00    -0.425 OA
ATOM     14  C   LIG A   1      -5.943   4.077 122.470  0.00  0.00    +0.317 C 
ATOM     15  O   LIG A   1      -4.929   4.588 122.100  0.00  0.00    -0.250 OA
BRANCH   8  16
ATOM     16  O   LIG A   1     -10.936   1.046 123.221  0.00  0.00    -0.507 OA
ATOM     17  H   LIG A   1     -10.732   0.334 122.594  0.00  0.00    +0.292 HD
ENDBRANCH   8  16
ENDBRANCH   5   6
ENDBRANCH   4   5
ENDBRANCH   1   2
BRANCH   1  18
ATOM     18  C   LIG A   1      -6.801  -0.438 128.907  0.00  0.00    +0.031 C 
BRANCH  18  21
ATOM     19  C   LIG A   1      -7.869  -2.829 128.958  0.00  0.00    -0.076 C 
ATOM     20  C   LIG A   1      -7.193  -3.345 130.198  0.00  0.00    +0.038 C 
ATOM     21  C   LIG A   1      -7.679  -1.584 128.474  0.00  0.00    -0.027 C 
BRANCH  19  22
ATOM     22  C   LIG A   1      -8.798  -3.852 128.315  0.00  0.00    +0.034 C 
BRANCH  22  23
ATOM     23  C   LIG A   1      -9.163  -3.703 126.824  0.00  0.00    +0.031 C 
BRANCH  23  26
ATOM     24  C   LIG A   1      -8.743  -2.301 124.673  0.00  0.00    -0.076 C 
ATOM     25  C   LIG A   1      -9.336  -3.242 123.672  0.00  0.00    +0.038 C 
ATOM     26  C   LIG A   1      -8.641  -2.553 125.995  0.00  0.00    -0.027 C 
BRANCH  24  27
ATOM     27  C   LIG A   1      -8.163  -1.011 124.118  0.00  0.00    +0.034 C 
BRANCH  27  28
ATOM     28  C   LIG A   1      -6.625  -0.897 123.988  0.00  0.00    +0.031 C 
BRANCH  28  32
ATOM     29  C   LIG A   1      -4.480  -4.190 123.639  0.00  0.00    +0.038 C 
ATOM     30  C   LIG A   1      -5.202  -3.019 124.255  0.00  0.00    -0.080 C 
ATOM     31  C   LIG A   1      -5.100  -2.984 125.752  0.00  0.00    +0.038 C 
ATOM     32  C   LIG A   1      -5.858  -2.110 123.506  0.00  0.00    -0.028 C 
ENDBRANCH  28  32
ENDBRANCH  27  28
ENDBRANCH  24  27
ENDBRANCH  23  26
ENDBRANCH  22  23
ENDBRANCH  19  22
ENDBRANCH  18  21
ENDBRANCH   1  18
TORSDOF 12
ENDMDL
MODEL 5
REMARK VINA RESULT:      -8.3      4.137      6.337
REMARK  Name = NuBBE_1644
REMARK  17 active torsions:
REMARK  status: ('A' for Active; 'I' for Inactive)
REMARK    1  A    between atoms: C_1  and  C_2
REMARK    2  A    between atoms: C_2  and  C_3
REMARK    3  A    between atoms: C_4  and  C_5
REMARK    4  A    between atoms: C_5  and  C_6
REMARK    5  A    between atoms: C_6  and  C_7
REMARK    6  A    between atoms: C_7  and  C_8
REMARK    7  A    between atoms: C_9  and  C_10
REMARK    8  A    between atoms: C_10  and  C_11
REMARK    9  A    between atoms: C_11  and  C_12
REMARK   10  A    between atoms: C_12  and  C_13
REMARK   11  A    between atoms: C_14  and  C_15
REMARK   12  A    between atoms: C_15  and  C_16
REMARK   13  A    between atoms: C_16  and  C_17
REMARK   14  A    between atoms: C_17  and  C_18
REMARK   15  A    between atoms: C_19  and  C_20
REMARK   16  A    between atoms: C_20  and  C_21
REMARK   17  A    between atoms: C_23  and  O_24
REMARK                            x       y       z     vdW  Elec       q    Type
REMARK                         _______ _______ _______ _____ _____    ______ ____
ROOT
ATOM      1  C   LIG A   1      -5.849  -4.739 132.772  0.00  0.00    +0.034 C 
ENDROOT
BRANCH   1   2
ATOM      2  C   LIG A   1      -6.222  -3.266 132.954  0.00  0.00    -0.076 C 
ATOM      3  C   LIG A   1      -7.661  -2.935 133.215  0.00  0.00    +0.038 C 
ATOM      4  C   LIG A   1      -5.236  -2.342 132.937  0.00  0.00    -0.023 C 
BRANCH   4   5
ATOM      5  C   LIG A   1      -5.330  -0.843 133.107  0.00  0.00    +0.066 C 
BRANCH   5   6
ATOM      6  C   LIG A   1      -5.620  -0.001 131.874  0.00  0.00    +0.002 A 
ATOM      7  C   LIG A   1      -4.550   0.328 131.006  0.00  0.00    +0.053 A 
ATOM      8  C   LIG A   1      -4.766   1.106 129.855  0.00  0.00    +0.118 A 
ATOM      9  C   LIG A   1      -6.031   1.574 129.520  0.00  0.00    +0.053 A 
ATOM     10  C   LIG A   1      -7.071   1.260 130.376  0.00  0.00    +0.009 A 
ATOM     11  C   LIG A   1      -8.492   1.649 130.319  0.00  0.00    +0.160 C 
ATOM     12  C   LIG A   1      -6.864   0.505 131.518  0.00  0.00    +0.139 A 
ATOM     13  O   LIG A   1      -8.028   0.367 132.274  0.00  0.00    -0.425 OA
ATOM     14  C   LIG A   1      -9.017   1.090 131.614  0.00  0.00    +0.317 C 
ATOM     15  O   LIG A   1     -10.133   1.220 132.019  0.00  0.00    -0.250 OA
BRANCH   8  16
ATOM     16  O   LIG A   1      -3.741   1.454 129.023  0.00  0.00    -0.507 OA
ATOM     17  H   LIG A   1      -4.044   1.399 128.103  0.00  0.00    +0.292 HD
ENDBRANCH   8  16
ENDBRANCH   5   6
ENDBRANCH   4   5
ENDBRANCH   1   2
BRANCH   1  18
ATOM     18  C   LIG A   1      -5.341  -5.153 131.383  0.00  0.00    +0.031 C 
BRANCH  18  21
ATOM     19  C   LIG A   1      -4.726  -3.421 129.518  0.00  0.00    -0.076 C 
ATOM     20  C   LIG A   1      -3.246  -3.341 129.771  0.00  0.00    +0.038 C 
ATOM     21  C   LIG A   1      -5.556  -4.221 130.219  0.00  0.00    -0.027 C 
BRANCH  19  22
ATOM     22  C   LIG A   1      -5.186  -2.515 128.382  0.00  0.00    +0.034 C 
BRANCH  22  23
ATOM     23  C   LIG A   1      -6.587  -1.873 128.453  0.00  0.00    +0.031 C 
BRANCH  23  26
ATOM     24  C   LIG A   1      -8.546  -2.938 127.114  0.00  0.00    -0.076 C 
ATOM     25  C   LIG A   1      -8.763  -4.153 127.960  0.00  0.00    +0.038 C 
ATOM     26  C   LIG A   1      -7.580  -2.019 127.325  0.00  0.00    -0.027 C 
BRANCH  24  27
ATOM     27  C   LIG A   1      -9.452  -2.796 125.902  0.00  0.00    +0.034 C 
BRANCH  27  28
ATOM     28  C   LIG A   1      -8.968  -3.384 124.555  0.00  0.00    +0.031 C 
BRANCH  28  32
ATOM     29  C   LIG A   1      -5.067  -3.583 123.998  0.00  0.00    +0.038 C 
ATOM     30  C   LIG A   1      -6.470  -3.037 124.066  0.00  0.00    -0.080 C 
ATOM     31  C   LIG A   1      -6.560  -1.590 123.676  0.00  0.00    +0.038 C 
ATOM     32  C   LIG A   1      -7.517  -3.800 124.438  0.00  0.00    -0.028 C 
ENDBRANCH  28  32
ENDBRANCH  27  28
ENDBRANCH  24  27
ENDBRANCH  23  26
ENDBRANCH  22  23
ENDBRANCH  19  22
ENDBRANCH  18  21
ENDBRANCH   1  18
TORSDOF 12
ENDMDL
MODEL 6
REMARK VINA RESULT:      -8.3      1.450      2.375
REMARK  Name = NuBBE_1644
REMARK  17 active torsions:
REMARK  status: ('A' for Active; 'I' for Inactive)
REMARK    1  A    between atoms: C_1  and  C_2
REMARK    2  A    between atoms: C_2  and  C_3
REMARK    3  A    between atoms: C_4  and  C_5
REMARK    4  A    between atoms: C_5  and  C_6
REMARK    5  A    between atoms: C_6  and  C_7
REMARK    6  A    between atoms: C_7  and  C_8
REMARK    7  A    between atoms: C_9  and  C_10
REMARK    8  A    between atoms: C_10  and  C_11
REMARK    9  A    between atoms: C_11  and  C_12
REMARK   10  A    between atoms: C_12  and  C_13
REMARK   11  A    between atoms: C_14  and  C_15
REMARK   12  A    between atoms: C_15  and  C_16
REMARK   13  A    between atoms: C_16  and  C_17
REMARK   14  A    between atoms: C_17  and  C_18
REMARK   15  A    between atoms: C_19  and  C_20
REMARK   16  A    between atoms: C_20  and  C_21
REMARK   17  A    between atoms: C_23  and  O_24
REMARK                            x       y       z     vdW  Elec       q    Type
REMARK                         _______ _______ _______ _____ _____    ______ ____
ROOT
ATOM      1  C   LIG A   1      -8.684   2.257 132.648  0.00  0.00    +0.034 C 
ENDROOT
BRANCH   1   2
ATOM      2  C   LIG A   1      -8.287   3.496 131.841  0.00  0.00    -0.076 C 
ATOM      3  C   LIG A   1      -6.833   3.854 131.779  0.00  0.00    +0.038 C 
ATOM      4  C   LIG A   1      -9.250   4.168 131.172  0.00  0.00    -0.023 C 
BRANCH   4   5
ATOM      5  C   LIG A   1      -9.125   5.396 130.300  0.00  0.00    +0.066 C 
BRANCH   5   6
ATOM      6  C   LIG A   1     -10.362   6.260 130.102  0.00  0.00    +0.002 A 
ATOM      7  C   LIG A   1     -11.244   6.449 131.193  0.00  0.00    +0.053 A 
ATOM      8  C   LIG A   1     -12.402   7.236 131.058  0.00  0.00    +0.118 A 
ATOM      9  C   LIG A   1     -12.720   7.862 129.860  0.00  0.00    +0.053 A 
ATOM     10  C   LIG A   1     -11.863   7.665 128.793  0.00  0.00    +0.009 A 
ATOM     11  C   LIG A   1     -11.958   8.145 127.402  0.00  0.00    +0.160 C 
ATOM     12  C   LIG A   1     -10.728   6.881 128.914  0.00  0.00    +0.139 A 
ATOM     13  O   LIG A   1     -10.044   6.757 127.704  0.00  0.00    -0.425 OA
ATOM     14  C   LIG A   1     -10.785   7.457 126.757  0.00  0.00    +0.317 C 
ATOM     15  O   LIG A   1     -10.503   7.516 125.598  0.00  0.00    -0.250 OA
BRANCH   8  16
ATOM     16  O   LIG A   1     -13.275   7.407 132.094  0.00  0.00    -0.507 OA
ATOM     17  H   LIG A   1     -14.042   7.915 131.784  0.00  0.00    +0.292 HD
ENDBRANCH   8  16
ENDBRANCH   5   6
ENDBRANCH   4   5
ENDBRANCH   1   2
BRANCH   1  18
ATOM     18  C   LIG A   1      -9.474   1.173 131.900  0.00  0.00    +0.031 C 
BRANCH  18  21
ATOM     19  C   LIG A   1      -7.960  -0.145 130.219  0.00  0.00    -0.076 C 
ATOM     20  C   LIG A   1      -7.621   0.990 129.292  0.00  0.00    +0.038 C 
ATOM     21  C   LIG A   1      -8.731  -0.001 131.316  0.00  0.00    -0.027 C 
BRANCH  19  22
ATOM     22  C   LIG A   1      -7.333  -1.469 129.795  0.00  0.00    +0.034 C 
BRANCH  22  23
ATOM     23  C   LIG A   1      -8.240  -2.702 129.604  0.00  0.00    +0.031 C 
BRANCH  23  26
ATOM     24  C   LIG A   1      -8.447  -2.784 127.012  0.00  0.00    -0.076 C 
ATOM     25  C   LIG A   1      -8.370  -1.316 126.734  0.00  0.00    +0.038 C 
ATOM     26  C   LIG A   1      -8.440  -3.332 128.246  0.00  0.00    -0.027 C 
BRANCH  24  27
ATOM     27  C   LIG A   1      -8.611  -3.687 125.801  0.00  0.00    +0.034 C 
BRANCH  27  28
ATOM     28  C   LIG A   1      -7.800  -3.354 124.525  0.00  0.00    +0.031 C 
BRANCH  28  32
ATOM     29  C   LIG A   1      -4.194  -4.688 123.641  0.00  0.00    +0.038 C 
ATOM     30  C   LIG A   1      -5.335  -3.743 123.914  0.00  0.00    -0.080 C 
ATOM     31  C   LIG A   1      -4.946  -2.298 123.797  0.00  0.00    +0.038 C 
ATOM     32  C   LIG A   1      -6.571  -4.185 124.224  0.00  0.00    -0.028 C 
ENDBRANCH  28  32
ENDBRANCH  27  28
ENDBRANCH  24  27
ENDBRANCH  23  26
ENDBRANCH  22  23
ENDBRANCH  19  22
ENDBRANCH  18  21
ENDBRANCH   1  18
TORSDOF 12
ENDMDL
MODEL 7
REMARK VINA RESULT:      -8.1      4.073      5.377
REMARK  Name = NuBBE_1644
REMARK  17 active torsions:
REMARK  status: ('A' for Active; 'I' for Inactive)
REMARK    1  A    between atoms: C_1  and  C_2
REMARK    2  A    between atoms: C_2  and  C_3
REMARK    3  A    between atoms: C_4  and  C_5
REMARK    4  A    between atoms: C_5  and  C_6
REMARK    5  A    between atoms: C_6  and  C_7
REMARK    6  A    between atoms: C_7  and  C_8
REMARK    7  A    between atoms: C_9  and  C_10
REMARK    8  A    between atoms: C_10  and  C_11
REMARK    9  A    between atoms: C_11  and  C_12
REMARK   10  A    between atoms: C_12  and  C_13
REMARK   11  A    between atoms: C_14  and  C_15
REMARK   12  A    between atoms: C_15  and  C_16
REMARK   13  A    between atoms: C_16  and  C_17
REMARK   14  A    between atoms: C_17  and  C_18
REMARK   15  A    between atoms: C_19  and  C_20
REMARK   16  A    between atoms: C_20  and  C_21
REMARK   17  A    between atoms: C_23  and  O_24
REMARK                            x       y       z     vdW  Elec       q    Type
REMARK                         _______ _______ _______ _____ _____    ______ ____
ROOT
ATOM      1  C   LIG A   1      -3.768  -2.385 129.776  0.00  0.00    +0.034 C 
ENDROOT
BRANCH   1   2
ATOM      2  C   LIG A   1      -4.356  -0.991 130.010  0.00  0.00    -0.076 C 
ATOM      3  C   LIG A   1      -4.193  -0.382 131.370  0.00  0.00    +0.038 C 
ATOM      4  C   LIG A   1      -4.934  -0.350 128.971  0.00  0.00    -0.023 C 
BRANCH   4   5
ATOM      5  C   LIG A   1      -5.568   1.022 128.930  0.00  0.00    +0.066 C 
BRANCH   5   6
ATOM      6  C   LIG A   1      -5.065   2.010 127.889  0.00  0.00    +0.002 A 
ATOM      7  C   LIG A   1      -3.707   2.408 127.925  0.00  0.00    +0.053 A 
ATOM      8  C   LIG A   1      -3.195   3.321 126.987  0.00  0.00    +0.118 A 
ATOM      9  C   LIG A   1      -3.994   3.861 125.986  0.00  0.00    +0.053 A 
ATOM     10  C   LIG A   1      -5.323   3.479 125.961  0.00  0.00    +0.009 A 
ATOM     11  C   LIG A   1      -6.414   3.913 125.069  0.00  0.00    +0.160 C 
ATOM     12  C   LIG A   1      -5.838   2.590 126.890  0.00  0.00    +0.139 A 
ATOM     13  O   LIG A   1      -7.210   2.398 126.728  0.00  0.00    -0.425 OA
ATOM     14  C   LIG A   1      -7.604   3.221 125.678  0.00  0.00    +0.317 C 
ATOM     15  O   LIG A   1      -8.733   3.335 125.305  0.00  0.00    -0.250 OA
BRANCH   8  16
ATOM     16  O   LIG A   1      -1.894   3.734 127.025  0.00  0.00    -0.507 OA
ATOM     17  H   LIG A   1      -1.459   3.350 127.803  0.00  0.00    +0.292 HD
ENDBRANCH   8  16
ENDBRANCH   5   6
ENDBRANCH   4   5
ENDBRANCH   1   2
BRANCH   1  18
ATOM     18  C   LIG A   1      -4.665  -3.578 130.135  0.00  0.00    +0.031 C 
BRANCH  18  21
ATOM     19  C   LIG A   1      -7.263  -3.245 130.119  0.00  0.00    -0.076 C 
ATOM     20  C   LIG A   1      -7.409  -2.594 131.467  0.00  0.00    +0.038 C 
ATOM     21  C   LIG A   1      -6.074  -3.620 129.602  0.00  0.00    -0.027 C 
BRANCH  19  22
ATOM     22  C   LIG A   1      -8.593  -3.426 129.397  0.00  0.00    +0.034 C 
BRANCH  22  23
ATOM     23  C   LIG A   1      -8.610  -3.479 127.856  0.00  0.00    +0.031 C 
BRANCH  23  26
ATOM     24  C   LIG A   1      -8.372  -2.008 125.723  0.00  0.00    -0.076 C 
ATOM     25  C   LIG A   1      -9.066  -2.909 124.750  0.00  0.00    +0.038 C 
ATOM     26  C   LIG A   1      -8.152  -2.306 127.021  0.00  0.00    -0.027 C 
BRANCH  24  27
ATOM     27  C   LIG A   1      -7.831  -0.704 125.160  0.00  0.00    +0.034 C 
BRANCH  27  28
ATOM     28  C   LIG A   1      -6.298  -0.559 124.999  0.00  0.00    +0.031 C 
BRANCH  28  32
ATOM     29  C   LIG A   1      -4.505  -3.761 123.549  0.00  0.00    +0.038 C 
ATOM     30  C   LIG A   1      -5.362  -2.524 123.634  0.00  0.00    -0.080 C 
ATOM     31  C   LIG A   1      -6.051  -2.194 122.342  0.00  0.00    +0.038 C 
ATOM     32  C   LIG A   1      -5.482  -1.814 124.774  0.00  0.00    -0.028 C 
ENDBRANCH  28  32
ENDBRANCH  27  28
ENDBRANCH  24  27
ENDBRANCH  23  26
ENDBRANCH  22  23
ENDBRANCH  19  22
ENDBRANCH  18  21
ENDBRANCH   1  18
TORSDOF 12
ENDMDL
MODEL 8
REMARK VINA RESULT:      -8.1      3.932      6.649
REMARK  Name = NuBBE_1644
REMARK  17 active torsions:
REMARK  status: ('A' for Active; 'I' for Inactive)
REMARK    1  A    between atoms: C_1  and  C_2
REMARK    2  A    between atoms: C_2  and  C_3
REMARK    3  A    between atoms: C_4  and  C_5
REMARK    4  A    between atoms: C_5  and  C_6
REMARK    5  A    between atoms: C_6  and  C_7
REMARK    6  A    between atoms: C_7  and  C_8
REMARK    7  A    between atoms: C_9  and  C_10
REMARK    8  A    between atoms: C_10  and  C_11
REMARK    9  A    between atoms: C_11  and  C_12
REMARK   10  A    between atoms: C_12  and  C_13
REMARK   11  A    between atoms: C_14  and  C_15
REMARK   12  A    between atoms: C_15  and  C_16
REMARK   13  A    between atoms: C_16  and  C_17
REMARK   14  A    between atoms: C_17  and  C_18
REMARK   15  A    between atoms: C_19  and  C_20
REMARK   16  A    between atoms: C_20  and  C_21
REMARK   17  A    between atoms: C_23  and  O_24
REMARK                            x       y       z     vdW  Elec       q    Type
REMARK                         _______ _______ _______ _____ _____    ______ ____
ROOT
ATOM      1  C   LIG A   1      -6.934  -2.161 122.668  0.00  0.00    +0.034 C 
ENDROOT
BRANCH   1   2
ATOM      2  C   LIG A   1      -6.188  -1.701 123.923  0.00  0.00    -0.076 C 
ATOM      3  C   LIG A   1      -5.312  -2.698 124.620  0.00  0.00    +0.038 C 
ATOM      4  C   LIG A   1      -6.300  -0.411 124.306  0.00  0.00    -0.023 C 
BRANCH   4   5
ATOM      5  C   LIG A   1      -5.663   0.294 125.481  0.00  0.00    +0.066 C 
BRANCH   5   6
ATOM      6  C   LIG A   1      -6.005   1.759 125.707  0.00  0.00    +0.002 A 
ATOM      7  C   LIG A   1      -7.303   2.216 125.374  0.00  0.00    +0.053 A 
ATOM      8  C   LIG A   1      -7.667   3.561 125.561  0.00  0.00    +0.118 A 
ATOM      9  C   LIG A   1      -6.775   4.490 126.085  0.00  0.00    +0.053 A 
ATOM     10  C   LIG A   1      -5.504   4.043 126.396  0.00  0.00    +0.009 A 
ATOM     11  C   LIG A   1      -4.339   4.788 126.909  0.00  0.00    +0.160 C 
ATOM     12  C   LIG A   1      -5.135   2.722 126.203  0.00  0.00    +0.139 A 
ATOM     13  O   LIG A   1      -3.793   2.502 126.515  0.00  0.00    -0.425 OA
ATOM     14  C   LIG A   1      -3.265   3.734 126.889  0.00  0.00    +0.317 C 
ATOM     15  O   LIG A   1      -2.120   3.911 127.177  0.00  0.00    -0.250 OA
BRANCH   8  16
ATOM     16  O   LIG A   1      -8.907   4.022 125.222  0.00  0.00    -0.507 OA
ATOM     17  H   LIG A   1      -9.147   4.755 125.811  0.00  0.00    +0.292 HD
ENDBRANCH   8  16
ENDBRANCH   5   6
ENDBRANCH   4   5
ENDBRANCH   1   2
BRANCH   1  18
ATOM     18  C   LIG A   1      -8.441  -2.418 122.819  0.00  0.00    +0.031 C 
BRANCH  18  21
ATOM     19  C   LIG A   1      -9.360  -2.425 125.271  0.00  0.00    -0.076 C 
ATOM     20  C   LIG A   1      -9.419  -0.939 125.489  0.00  0.00    +0.038 C 
ATOM     21  C   LIG A   1      -8.958  -2.990 124.114  0.00  0.00    -0.027 C 
BRANCH  19  22
ATOM     22  C   LIG A   1      -9.814  -3.224 126.488  0.00  0.00    +0.034 C 
BRANCH  22  23
ATOM     23  C   LIG A   1      -8.781  -4.078 127.253  0.00  0.00    +0.031 C 
BRANCH  23  26
ATOM     24  C   LIG A   1      -7.712  -2.615 129.119  0.00  0.00    -0.076 C 
ATOM     25  C   LIG A   1      -7.187  -1.506 128.262  0.00  0.00    +0.038 C 
ATOM     26  C   LIG A   1      -8.338  -3.715 128.651  0.00  0.00    -0.027 C 
BRANCH  24  27
ATOM     27  C   LIG A   1      -7.443  -2.494 130.610  0.00  0.00    +0.034 C 
BRANCH  27  28
ATOM     28  C   LIG A   1      -6.370  -3.418 131.236  0.00  0.00    +0.031 C 
BRANCH  28  32
ATOM     29  C   LIG A   1      -3.100  -3.824 129.067  0.00  0.00    +0.038 C 
ATOM     30  C   LIG A   1      -4.156  -3.210 129.950  0.00  0.00    -0.080 C 
ATOM     31  C   LIG A   1      -3.870  -1.781 130.308  0.00  0.00    +0.038 C 
ATOM     32  C   LIG A   1      -5.241  -3.903 130.352  0.00  0.00    -0.028 C 
ENDBRANCH  28  32
ENDBRANCH  27  28
ENDBRANCH  24  27
ENDBRANCH  23  26
ENDBRANCH  22  23
ENDBRANCH  19  22
ENDBRANCH  18  21
ENDBRANCH   1  18
TORSDOF 12
ENDMDL
MODEL 9
REMARK VINA RESULT:      -8.1      1.167      2.381
REMARK  Name = NuBBE_1644
REMARK  17 active torsions:
REMARK  status: ('A' for Active; 'I' for Inactive)
REMARK    1  A    between atoms: C_1  and  C_2
REMARK    2  A    between atoms: C_2  and  C_3
REMARK    3  A    between atoms: C_4  and  C_5
REMARK    4  A    between atoms: C_5  and  C_6
REMARK    5  A    between atoms: C_6  and  C_7
REMARK    6  A    between atoms: C_7  and  C_8
REMARK    7  A    between atoms: C_9  and  C_10
REMARK    8  A    between atoms: C_10  and  C_11
REMARK    9  A    between atoms: C_11  and  C_12
REMARK   10  A    between atoms: C_12  and  C_13
REMARK   11  A    between atoms: C_14  and  C_15
REMARK   12  A    between atoms: C_15  and  C_16
REMARK   13  A    between atoms: C_16  and  C_17
REMARK   14  A    between atoms: C_17  and  C_18
REMARK   15  A    between atoms: C_19  and  C_20
REMARK   16  A    between atoms: C_20  and  C_21
REMARK   17  A    between atoms: C_23  and  O_24
REMARK                            x       y       z     vdW  Elec       q    Type
REMARK                         _______ _______ _______ _____ _____    ______ ____
ROOT
ATOM      1  C   LIG A   1      -8.168   1.030 130.102  0.00  0.00    +0.034 C 
ENDROOT
BRANCH   1   2
ATOM      2  C   LIG A   1      -7.874   2.531 130.160  0.00  0.00    -0.076 C 
ATOM      3  C   LIG A   1      -6.763   2.992 131.055  0.00  0.00    +0.038 C 
ATOM      4  C   LIG A   1      -8.580   3.360 129.360  0.00  0.00    -0.023 C 
BRANCH   4   5
ATOM      5  C   LIG A   1      -8.477   4.861 129.214  0.00  0.00    +0.066 C 
BRANCH   5   6
ATOM      6  C   LIG A   1      -9.720   5.693 129.494  0.00  0.00    +0.002 A 
ATOM      7  C   LIG A   1     -10.344   5.583 130.760  0.00  0.00    +0.053 A 
ATOM      8  C   LIG A   1     -11.496   6.328 131.066  0.00  0.00    +0.118 A 
ATOM      9  C   LIG A   1     -12.061   7.203 130.147  0.00  0.00    +0.053 A 
ATOM     10  C   LIG A   1     -11.456   7.299 128.906  0.00  0.00    +0.009 A 
ATOM     11  C   LIG A   1     -11.846   8.088 127.723  0.00  0.00    +0.160 C 
ATOM     12  C   LIG A   1     -10.328   6.559 128.594  0.00  0.00    +0.139 A 
ATOM     13  O   LIG A   1      -9.924   6.751 127.273  0.00  0.00    -0.425 OA
ATOM     14  C   LIG A   1     -10.846   7.621 126.699  0.00  0.00    +0.317 C 
ATOM     15  O   LIG A   1     -10.821   7.962 125.554  0.00  0.00    -0.250 OA
BRANCH   8  16
ATOM     16  O   LIG A   1     -12.124   6.214 132.273  0.00  0.00    -0.507 OA
ATOM     17  H   LIG A   1     -11.630   6.719 132.939  0.00  0.00    +0.292 HD
ENDBRANCH   8  16
ENDBRANCH   5   6
ENDBRANCH   4   5
ENDBRANCH   1   2
BRANCH   1  18
ATOM     18  C   LIG A   1      -7.560   0.256 128.923  0.00  0.00    +0.031 C 
BRANCH  18  21
ATOM     19  C   LIG A   1      -7.554  -2.188 127.981  0.00  0.00    -0.076 C 
ATOM     20  C   LIG A   1      -6.132  -2.232 127.496  0.00  0.00    +0.038 C 
ATOM     21  C   LIG A   1      -8.094  -1.115 128.596  0.00  0.00    -0.027 C 
BRANCH  19  22
ATOM     22  C   LIG A   1      -8.315  -3.482 127.718  0.00  0.00    +0.034 C 
BRANCH  22  23
ATOM     23  C   LIG A   1      -9.301  -3.546 126.533  0.00  0.00    +0.031 C 
BRANCH  23  26
ATOM     24  C   LIG A   1      -8.149  -2.996 124.266  0.00  0.00    -0.076 C 
ATOM     25  C   LIG A   1      -7.070  -4.032 124.305  0.00  0.00    +0.038 C 
ATOM     26  C   LIG A   1      -9.046  -2.786 125.253  0.00  0.00    -0.027 C 
BRANCH  24  27
ATOM     27  C   LIG A   1      -8.165  -2.091 123.045  0.00  0.00    +0.034 C 
BRANCH  27  28
ATOM     28  C   LIG A   1      -8.834  -0.701 123.176  0.00  0.00    +0.031 C 
BRANCH  28  32
ATOM     29  C   LIG A   1      -7.595   2.076 125.691  0.00  0.00    +0.038 C 
ATOM     30  C   LIG A   1      -8.448   1.008 125.056  0.00  0.00    -0.080 C 
ATOM     31  C   LIG A   1      -9.714   0.735 125.814  0.00  0.00    +0.038 C 
ATOM     32  C   LIG A   1      -8.083   0.386 123.916  0.00  0.00    -0.028 C 
ENDBRANCH  28  32
ENDBRANCH  27  28
ENDBRANCH  24  27
ENDBRANCH  23  26
ENDBRANCH  22  23
ENDBRANCH  19  22
ENDBRANCH  18  21
ENDBRANCH   1  18
TORSDOF 12
ENDMDL
