MODEL 1
REMARK VINA RESULT:      -4.5      0.000      0.000
REMARK  Name = NuBBE_2114
REMARK  7 active torsions:
REMARK  status: ('A' for Active; 'I' for Inactive)
REMARK    1  A    between atoms: C_2  and  C_3
REMARK    2  A    between atoms: C_3  and  C_4
REMARK    3  A    between atoms: C_4  and  C_5
REMARK    4  A    between atoms: C_5  and  C_6
REMARK    5  A    between atoms: C_6  and  C_7
REMARK    6  A    between atoms: C_7  and  C_8
REMARK    7  A    between atoms: C_8  and  C_9
REMARK                            x       y       z     vdW  Elec       q    Type
REMARK                         _______ _______ _______ _____ _____    ______ ____
ROOT
ATOM      1  C   LIG A   1      -7.493  -1.569 123.244  0.00  0.00    +0.000 C 
ENDROOT
BRANCH   1   2
ATOM      2  C   LIG A   1      -8.632  -2.376 122.602  0.00  0.00    +0.004 C 
BRANCH   2   3
ATOM      3  C   LIG A   1      -9.449  -3.220 123.592  0.00  0.00    +0.026 C 
BRANCH   3   5
ATOM      4  C   LIG A   1      -9.429  -3.062 126.098  0.00  0.00    +0.004 C 
ATOM      5  C   LIG A   1      -8.814  -3.370 124.945  0.00  0.00    -0.035 C 
ENDBRANCH   3   5
ENDBRANCH   2   3
ENDBRANCH   1   2
BRANCH   1   6
ATOM      6  C   LIG A   1      -6.120  -2.016 122.722  0.00  0.00    -0.000 C 
BRANCH   6   7
ATOM      7  C   LIG A   1      -5.184  -2.484 123.845  0.00  0.00    -0.000 C 
BRANCH   7   8
ATOM      8  C   LIG A   1      -5.322  -3.992 124.082  0.00  0.00    -0.003 C 
ATOM      9  C   LIG A   1      -4.198  -4.789 123.437  0.00  0.00    +0.004 C 
ENDBRANCH   7   8
ENDBRANCH   6   7
ENDBRANCH   1   6
TORSDOF 6
ENDMDL
MODEL 2
REMARK VINA RESULT:      -4.5      1.112      4.351
REMARK  Name = NuBBE_2114
REMARK  7 active torsions:
REMARK  status: ('A' for Active; 'I' for Inactive)
REMARK    1  A    between atoms: C_2  and  C_3
REMARK    2  A    between atoms: C_3  and  C_4
REMARK    3  A    between atoms: C_4  and  C_5
REMARK    4  A    between atoms: C_5  and  C_6
REMARK    5  A    between atoms: C_6  and  C_7
REMARK    6  A    between atoms: C_7  and  C_8
REMARK    7  A    between atoms: C_8  and  C_9
REMARK                            x       y       z     vdW  Elec       q    Type
REMARK                         _______ _______ _______ _____ _____    ______ ____
ROOT
ATOM      1  C   LIG A   1      -8.197  -2.900 123.398  0.00  0.00    +0.000 C 
ENDROOT
BRANCH   1   2
ATOM      2  C   LIG A   1      -6.835  -2.204 123.255  0.00  0.00    +0.004 C 
BRANCH   2   3
ATOM      3  C   LIG A   1      -5.759  -2.708 124.231  0.00  0.00    +0.026 C 
BRANCH   3   5
ATOM      4  C   LIG A   1      -4.503  -4.788 123.598  0.00  0.00    +0.004 C 
ATOM      5  C   LIG A   1      -4.631  -3.451 123.575  0.00  0.00    -0.035 C 
ENDBRANCH   3   5
ENDBRANCH   2   3
ENDBRANCH   1   2
BRANCH   1   6
ATOM      6  C   LIG A   1      -8.284  -3.710 124.700  0.00  0.00    -0.000 C 
BRANCH   6   7
ATOM      7  C   LIG A   1      -9.207  -3.062 125.740  0.00  0.00    -0.000 C 
BRANCH   7   8
ATOM      8  C   LIG A   1      -8.519  -2.975 127.107  0.00  0.00    -0.003 C 
ATOM      9  C   LIG A   1      -9.012  -4.038 128.077  0.00  0.00    +0.004 C 
ENDBRANCH   7   8
ENDBRANCH   6   7
ENDBRANCH   1   6
TORSDOF 6
ENDMDL
MODEL 3
REMARK VINA RESULT:      -4.4      1.279      1.933
REMARK  Name = NuBBE_2114
REMARK  7 active torsions:
REMARK  status: ('A' for Active; 'I' for Inactive)
REMARK    1  A    between atoms: C_2  and  C_3
REMARK    2  A    between atoms: C_3  and  C_4
REMARK    3  A    between atoms: C_4  and  C_5
REMARK    4  A    between atoms: C_5  and  C_6
REMARK    5  A    between atoms: C_6  and  C_7
REMARK    6  A    between atoms: C_7  and  C_8
REMARK    7  A    between atoms: C_8  and  C_9
REMARK                            x       y       z     vdW  Elec       q    Type
REMARK                         _______ _______ _______ _____ _____    ______ ____
ROOT
ATOM      1  C   LIG A   1      -8.113  -3.016 123.650  0.00  0.00    +0.000 C 
ENDROOT
BRANCH   1   2
ATOM      2  C   LIG A   1      -8.345  -3.862 124.912  0.00  0.00    +0.004 C 
BRANCH   2   3
ATOM      3  C   LIG A   1      -8.849  -3.067 126.126  0.00  0.00    +0.026 C 
BRANCH   3   5
ATOM      4  C   LIG A   1      -8.520  -3.420 128.590  0.00  0.00    +0.004 C 
ATOM      5  C   LIG A   1      -8.935  -3.867 127.394  0.00  0.00    -0.035 C 
ENDBRANCH   3   5
ENDBRANCH   2   3
ENDBRANCH   1   2
BRANCH   1   6
ATOM      6  C   LIG A   1      -6.863  -2.134 123.784  0.00  0.00    -0.000 C 
BRANCH   6   7
ATOM      7  C   LIG A   1      -5.644  -2.723 123.062  0.00  0.00    -0.000 C 
BRANCH   7   8
ATOM      8  C   LIG A   1      -4.767  -3.525 124.031  0.00  0.00    -0.003 C 
ATOM      9  C   LIG A   1      -4.340  -4.868 123.455  0.00  0.00    +0.004 C 
ENDBRANCH   7   8
ENDBRANCH   6   7
ENDBRANCH   1   6
TORSDOF 6
ENDMDL
MODEL 4
REMARK VINA RESULT:      -4.2     11.312     12.921
REMARK  Name = NuBBE_2114
REMARK  7 active torsions:
REMARK  status: ('A' for Active; 'I' for Inactive)
REMARK    1  A    between atoms: C_2  and  C_3
REMARK    2  A    between atoms: C_3  and  C_4
REMARK    3  A    between atoms: C_4  and  C_5
REMARK    4  A    between atoms: C_5  and  C_6
REMARK    5  A    between atoms: C_6  and  C_7
REMARK    6  A    between atoms: C_7  and  C_8
REMARK    7  A    between atoms: C_8  and  C_9
REMARK                            x       y       z     vdW  Elec       q    Type
REMARK                         _______ _______ _______ _____ _____    ______ ____
ROOT
ATOM      1  C   LIG A   1     -12.958   7.450 131.136  0.00  0.00    +0.000 C 
ENDROOT
BRANCH   1   2
ATOM      2  C   LIG A   1     -12.591   8.449 130.028  0.00  0.00    +0.004 C 
BRANCH   2   3
ATOM      3  C   LIG A   1     -13.119   8.074 128.634  0.00  0.00    +0.026 C 
BRANCH   3   5
ATOM      4  C   LIG A   1     -10.810   8.285 127.670  0.00  0.00    +0.004 C 
ATOM      5  C   LIG A   1     -12.045   7.760 127.632  0.00  0.00    -0.035 C 
ENDBRANCH   3   5
ENDBRANCH   2   3
ENDBRANCH   1   2
BRANCH   1   6
ATOM      6  C   LIG A   1     -11.734   6.648 131.601  0.00  0.00    -0.000 C 
BRANCH   6   7
ATOM      7  C   LIG A   1     -11.346   5.537 130.618  0.00  0.00    -0.000 C 
BRANCH   7   8
ATOM      8  C   LIG A   1      -9.861   5.624 130.249  0.00  0.00    -0.003 C 
ATOM      9  C   LIG A   1      -9.215   6.914 130.731  0.00  0.00    +0.004 C 
ENDBRANCH   7   8
ENDBRANCH   6   7
ENDBRANCH   1   6
TORSDOF 6
ENDMDL
MODEL 5
REMARK VINA RESULT:      -4.2     11.503     13.106
REMARK  Name = NuBBE_2114
REMARK  7 active torsions:
REMARK  status: ('A' for Active; 'I' for Inactive)
REMARK    1  A    between atoms: C_2  and  C_3
REMARK    2  A    between atoms: C_3  and  C_4
REMARK    3  A    between atoms: C_4  and  C_5
REMARK    4  A    between atoms: C_5  and  C_6
REMARK    5  A    between atoms: C_6  and  C_7
REMARK    6  A    between atoms: C_7  and  C_8
REMARK    7  A    between atoms: C_8  and  C_9
REMARK                            x       y       z     vdW  Elec       q    Type
REMARK                         _______ _______ _______ _____ _____    ______ ____
ROOT
ATOM      1  C   LIG A   1     -13.018   7.397 130.873  0.00  0.00    +0.000 C 
ENDROOT
BRANCH   1   2
ATOM      2  C   LIG A   1     -11.817   6.675 131.503  0.00  0.00    +0.004 C 
BRANCH   2   3
ATOM      3  C   LIG A   1     -11.162   5.622 130.597  0.00  0.00    +0.026 C 
BRANCH   3   5
ATOM      4  C   LIG A   1      -9.050   6.976 130.697  0.00  0.00    +0.004 C 
ATOM      5  C   LIG A   1      -9.708   5.870 130.314  0.00  0.00    -0.035 C 
ENDBRANCH   3   5
ENDBRANCH   2   3
ENDBRANCH   1   2
BRANCH   1   6
ATOM      6  C   LIG A   1     -12.570   8.552 129.965  0.00  0.00    -0.000 C 
BRANCH   6   7
ATOM      7  C   LIG A   1     -13.144   8.445 128.546  0.00  0.00    -0.000 C 
BRANCH   7   8
ATOM      8  C   LIG A   1     -12.184   7.687 127.622  0.00  0.00    -0.003 C 
ATOM      9  C   LIG A   1     -10.779   8.272 127.634  0.00  0.00    +0.004 C 
ENDBRANCH   7   8
ENDBRANCH   6   7
ENDBRANCH   1   6
TORSDOF 6
ENDMDL
MODEL 6
REMARK VINA RESULT:      -4.1      1.895      4.832
REMARK  Name = NuBBE_2114
REMARK  7 active torsions:
REMARK  status: ('A' for Active; 'I' for Inactive)
REMARK    1  A    between atoms: C_2  and  C_3
REMARK    2  A    between atoms: C_3  and  C_4
REMARK    3  A    between atoms: C_4  and  C_5
REMARK    4  A    between atoms: C_5  and  C_6
REMARK    5  A    between atoms: C_6  and  C_7
REMARK    6  A    between atoms: C_7  and  C_8
REMARK    7  A    between atoms: C_8  and  C_9
REMARK                            x       y       z     vdW  Elec       q    Type
REMARK                         _______ _______ _______ _____ _____    ______ ____
ROOT
ATOM      1  C   LIG A   1      -5.949  -2.254 126.341  0.00  0.00    +0.000 C 
ENDROOT
BRANCH   1   2
ATOM      2  C   LIG A   1      -5.832  -1.765 124.889  0.00  0.00    +0.004 C 
BRANCH   2   3
ATOM      3  C   LIG A   1      -5.892  -2.881 123.836  0.00  0.00    +0.026 C 
BRANCH   3   5
ATOM      4  C   LIG A   1      -4.216  -4.723 123.516  0.00  0.00    +0.004 C 
ATOM      5  C   LIG A   1      -4.551  -3.425 123.436  0.00  0.00    -0.035 C 
ENDBRANCH   3   5
ENDBRANCH   2   3
ENDBRANCH   1   2
BRANCH   1   6
ATOM      6  C   LIG A   1      -7.372  -2.065 126.888  0.00  0.00    -0.000 C 
BRANCH   6   7
ATOM      7  C   LIG A   1      -8.299  -3.237 126.542  0.00  0.00    -0.000 C 
BRANCH   7   8
ATOM      8  C   LIG A   1      -8.910  -3.846 127.808  0.00  0.00    -0.003 C 
ATOM      9  C   LIG A   1      -8.314  -3.264 129.082  0.00  0.00    +0.004 C 
ENDBRANCH   7   8
ENDBRANCH   6   7
ENDBRANCH   1   6
TORSDOF 6
ENDMDL
MODEL 7
REMARK VINA RESULT:      -4.0      2.018      3.592
REMARK  Name = NuBBE_2114
REMARK  7 active torsions:
REMARK  status: ('A' for Active; 'I' for Inactive)
REMARK    1  A    between atoms: C_2  and  C_3
REMARK    2  A    between atoms: C_3  and  C_4
REMARK    3  A    between atoms: C_4  and  C_5
REMARK    4  A    between atoms: C_5  and  C_6
REMARK    5  A    between atoms: C_6  and  C_7
REMARK    6  A    between atoms: C_7  and  C_8
REMARK    7  A    between atoms: C_8  and  C_9
REMARK                            x       y       z     vdW  Elec       q    Type
REMARK                         _______ _______ _______ _____ _____    ______ ____
ROOT
ATOM      1  C   LIG A   1      -9.291  -2.634 126.038  0.00  0.00    +0.000 C 
ENDROOT
BRANCH   1   2
ATOM      2  C   LIG A   1      -9.012  -3.639 127.167  0.00  0.00    +0.004 C 
BRANCH   2   3
ATOM      3  C   LIG A   1      -8.033  -3.134 128.238  0.00  0.00    +0.026 C 
BRANCH   3   5
ATOM      4  C   LIG A   1      -5.776  -2.252 127.579  0.00  0.00    +0.004 C 
ATOM      5  C   LIG A   1      -7.093  -2.064 127.761  0.00  0.00    -0.035 C 
ENDBRANCH   3   5
ENDBRANCH   2   3
ENDBRANCH   1   2
BRANCH   1   6
ATOM      6  C   LIG A   1      -9.063  -3.261 124.655  0.00  0.00    -0.000 C 
BRANCH   6   7
ATOM      7  C   LIG A   1      -7.661  -3.866 124.503  0.00  0.00    -0.000 C 
BRANCH   7   8
ATOM      8  C   LIG A   1      -6.672  -2.829 123.959  0.00  0.00    -0.003 C 
ATOM      9  C   LIG A   1      -5.249  -3.362 123.886  0.00  0.00    +0.004 C 
ENDBRANCH   7   8
ENDBRANCH   6   7
ENDBRANCH   1   6
TORSDOF 6
ENDMDL
MODEL 8
REMARK VINA RESULT:      -4.0      1.571      4.587
REMARK  Name = NuBBE_2114
REMARK  7 active torsions:
REMARK  status: ('A' for Active; 'I' for Inactive)
REMARK    1  A    between atoms: C_2  and  C_3
REMARK    2  A    between atoms: C_3  and  C_4
REMARK    3  A    between atoms: C_4  and  C_5
REMARK    4  A    between atoms: C_5  and  C_6
REMARK    5  A    between atoms: C_6  and  C_7
REMARK    6  A    between atoms: C_7  and  C_8
REMARK    7  A    between atoms: C_8  and  C_9
REMARK                            x       y       z     vdW  Elec       q    Type
REMARK                         _______ _______ _______ _____ _____    ______ ____
ROOT
ATOM      1  C   LIG A   1      -8.107  -3.541 124.239  0.00  0.00    +0.000 C 
ENDROOT
BRANCH   1   2
ATOM      2  C   LIG A   1      -6.710  -3.149 124.745  0.00  0.00    +0.004 C 
BRANCH   2   3
ATOM      3  C   LIG A   1      -5.772  -2.600 123.658  0.00  0.00    +0.026 C 
BRANCH   3   5
ATOM      4  C   LIG A   1      -4.489  -4.759 123.669  0.00  0.00    +0.004 C 
ATOM      5  C   LIG A   1      -4.553  -3.442 123.412  0.00  0.00    -0.035 C 
ENDBRANCH   3   5
ENDBRANCH   2   3
ENDBRANCH   1   2
BRANCH   1   6
ATOM      6  C   LIG A   1      -9.209  -3.059 125.194  0.00  0.00    -0.000 C 
BRANCH   6   7
ATOM      7  C   LIG A   1      -8.732  -1.941 126.130  0.00  0.00    -0.000 C 
BRANCH   7   8
ATOM      8  C   LIG A   1      -9.186  -0.568 125.622  0.00  0.00    -0.003 C 
ATOM      9  C   LIG A   1      -8.018   0.314 125.204  0.00  0.00    +0.004 C 
ENDBRANCH   7   8
ENDBRANCH   6   7
ENDBRANCH   1   6
TORSDOF 6
ENDMDL
MODEL 9
REMARK VINA RESULT:      -3.9      2.240      4.747
REMARK  Name = NuBBE_2114
REMARK  7 active torsions:
REMARK  status: ('A' for Active; 'I' for Inactive)
REMARK    1  A    between atoms: C_2  and  C_3
REMARK    2  A    between atoms: C_3  and  C_4
REMARK    3  A    between atoms: C_4  and  C_5
REMARK    4  A    between atoms: C_5  and  C_6
REMARK    5  A    between atoms: C_6  and  C_7
REMARK    6  A    between atoms: C_7  and  C_8
REMARK    7  A    between atoms: C_8  and  C_9
REMARK                            x       y       z     vdW  Elec       q    Type
REMARK                         _______ _______ _______ _____ _____    ______ ____
ROOT
ATOM      1  C   LIG A   1      -9.075  -2.876 125.542  0.00  0.00    +0.000 C 
ENDROOT
BRANCH   1   2
ATOM      2  C   LIG A   1      -8.235  -3.692 124.547  0.00  0.00    +0.004 C 
BRANCH   2   3
ATOM      3  C   LIG A   1      -7.052  -2.925 123.935  0.00  0.00    +0.026 C 
BRANCH   3   5
ATOM      4  C   LIG A   1      -4.612  -3.253 123.441  0.00  0.00    +0.004 C 
ATOM      5  C   LIG A   1      -5.721  -3.596 124.116  0.00  0.00    -0.035 C 
ENDBRANCH   3   5
ENDBRANCH   2   3
ENDBRANCH   1   2
BRANCH   1   6
ATOM      6  C   LIG A   1      -9.040  -3.493 126.948  0.00  0.00    -0.000 C 
BRANCH   6   7
ATOM      7  C   LIG A   1      -8.001  -2.829 127.860  0.00  0.00    -0.000 C 
BRANCH   7   8
ATOM      8  C   LIG A   1      -8.211  -3.239 129.322  0.00  0.00    -0.003 C 
ATOM      9  C   LIG A   1      -6.909  -3.615 130.015  0.00  0.00    +0.004 C 
ENDBRANCH   7   8
ENDBRANCH   6   7
ENDBRANCH   1   6
TORSDOF 6
ENDMDL
