MODEL 1
REMARK VINA RESULT:      -8.8      0.000      0.000
REMARK  Name = NuBBE_1522
REMARK  18 active torsions:
REMARK  status: ('A' for Active; 'I' for Inactive)
REMARK    1  A    between atoms: C_1  and  C_2
REMARK    2  A    between atoms: C_6  and  C_10
REMARK    3  A    between atoms: C_13  and  C_18
REMARK    4  A    between atoms: C_16  and  O_17
REMARK    5  A    between atoms: C_18  and  C_20
REMARK    6  A    between atoms: C_18  and  O_24
REMARK    7  A    between atoms: C_20  and  C_21
REMARK    8  A    between atoms: C_20  and  C_22
REMARK    9  A    between atoms: C_20  and  O_23
REMARK   10  A    between atoms: C_29  and  C_30
REMARK   11  A    between atoms: C_34  and  O_36
REMARK   12  A    between atoms: C_37  and  C_38
REMARK   13  A    between atoms: C_37  and  C_39
REMARK   14  A    between atoms: C_40  and  O_44
REMARK   15  A    between atoms: O_44  and  C_45
REMARK   16  A    between atoms: C_45  and  C_47
REMARK   17  A    between atoms: C_48  and  N_49
REMARK   18  A    between atoms: N_49  and  C_50
REMARK                            x       y       z     vdW  Elec       q    Type
REMARK                         _______ _______ _______ _____ _____    ______ ____
ROOT
ATOM      1  C   LIG A   1      -3.148   4.000 131.509  0.00  0.00    +0.014 C 
ATOM      2  C   LIG A   1      -3.438   5.030 130.374  0.00  0.00    +0.003 C 
ATOM      3  C   LIG A   1      -2.804   6.372 130.767  0.00  0.00    -0.015 C 
ATOM      4  C   LIG A   1      -3.490   7.158 131.846  0.00  0.00    -0.019 C 
ATOM      5  C   LIG A   1      -3.410   7.729 130.442  0.00  0.00    +0.016 C 
ATOM      6  C   LIG A   1      -2.413   7.458 132.902  0.00  0.00    +0.004 C 
ATOM      7  C   LIG A   1      -1.088   7.371 132.118  0.00  0.00    +0.005 C 
ATOM      8  C   LIG A   1      -1.305   6.375 130.990  0.00  0.00    +0.008 C 
ATOM      9  C   LIG A   1      -4.830   6.671 132.345  0.00  0.00    +0.008 C 
ATOM     10  C   LIG A   1      -5.709   5.964 131.293  0.00  0.00    +0.005 C 
ATOM     11  C   LIG A   1      -4.978   5.215 130.132  0.00  0.00    +0.004 C 
ATOM     12  C   LIG A   1      -5.719   3.930 129.567  0.00  0.00    -0.025 C 
ATOM     13  C   LIG A   1      -5.868   2.856 130.672  0.00  0.00    +0.012 C 
ATOM     14  C   LIG A   1      -4.949   3.434 128.281  0.00  0.00    +0.007 C 
ATOM     15  C   LIG A   1      -3.428   3.282 128.510  0.00  0.00    +0.036 C 
ATOM     16  C   LIG A   1      -2.761   4.531 129.071  0.00  0.00    +0.122 C 
ATOM     17  C   LIG A   1      -5.584   2.195 127.539  0.00  0.00    +0.006 C 
ATOM     18  C   LIG A   1      -5.282   0.849 128.239  0.00  0.00    +0.015 C 
ATOM     19  C   LIG A   1      -4.914   2.099 126.133  0.00  0.00    +0.015 C 
ATOM     20  C   LIG A   1      -7.125   2.397 127.313  0.00  0.00    +0.183 C 
ATOM     21  C   LIG A   1      -7.882   3.173 128.406  0.00  0.00    +0.046 C 
ATOM     22  C   LIG A   1      -7.134   4.327 129.070  0.00  0.00    +0.011 C 
ENDROOT
BRANCH   6  23
ATOM     23  C   LIG A   1      -2.652   8.754 133.698  0.00  0.00    +0.051 C 
ATOM     24  C   LIG A   1      -2.256  10.064 133.026  0.00  0.00    +0.043 C 
ATOM     25  C   LIG A   1      -1.345  10.804 134.010  0.00  0.00    +0.153 C 
ATOM     26  O   LIG A   1      -1.595  10.203 135.286  0.00  0.00    -0.345 OA
ATOM     27  C   LIG A   1      -2.015   8.851 135.089  0.00  0.00    +0.251 C 
BRANCH  27  28
ATOM     28  O   LIG A   1      -0.912   8.002 135.308  0.00  0.00    -0.367 OA
ATOM     29  H   LIG A   1      -1.215   7.129 135.003  0.00  0.00    +0.212 HD
ENDBRANCH  27  28
BRANCH  25  30
ATOM     30  C   LIG A   1       0.147  10.766 133.590  0.00  0.00    +0.174 C 
BRANCH  30  31
ATOM     31  C   LIG A   1       0.832  12.111 133.232  0.00  0.00    +0.089 C 
ATOM     32  C   LIG A   1       2.258  12.211 133.760  0.00  0.00    +0.044 C 
ATOM     33  C   LIG A   1       0.777  12.440 131.739  0.00  0.00    +0.044 C 
BRANCH  31  34
ATOM     34  O   LIG A   1       0.042  13.140 133.883  0.00  0.00    -0.387 OA
ATOM     35  H   LIG A   1       0.247  13.128 134.835  0.00  0.00    +0.210 HD
ENDBRANCH  31  34
ENDBRANCH  30  31
BRANCH  30  36
ATOM     36  O   LIG A   1       0.958  10.160 134.607  0.00  0.00    -0.386 OA
ATOM     37  H   LIG A   1       1.489   9.479 134.142  0.00  0.00    +0.210 HD
ENDBRANCH  30  36
ENDBRANCH  25  30
ENDBRANCH   6  23
BRANCH  16  38
ATOM     38  O   LIG A   1      -2.731   5.528 128.037  0.00  0.00    -0.391 OA
ATOM     39  H   LIG A   1      -2.158   5.227 127.323  0.00  0.00    +0.210 HD
ENDBRANCH  16  38
BRANCH  20  40
ATOM     40  O   LIG A   1      -7.817   1.120 127.282  0.00  0.00    -0.457 OA
BRANCH  40  41
ATOM     41  C   LIG A   1      -8.555   0.741 126.215  0.00  0.00    +0.341 C 
ATOM     42  O   LIG A   1      -9.701   1.064 125.957  0.00  0.00    -0.245 OA
BRANCH  41  43
ATOM     43  C   LIG A   1      -7.707  -0.122 125.348  0.00  0.00    +0.080 A 
ATOM     44  C   LIG A   1      -7.574   0.144 123.965  0.00  0.00    +0.041 A 
ATOM     45  C   LIG A   1      -6.776  -0.744 123.220  0.00  0.00    +0.024 A 
ATOM     46  C   LIG A   1      -6.179  -1.869 123.803  0.00  0.00    +0.002 A 
ATOM     47  C   LIG A   1      -6.330  -2.116 125.163  0.00  0.00    +0.001 A 
ATOM     48  C   LIG A   1      -7.089  -1.244 125.934  0.00  0.00    +0.017 A 
BRANCH  44  49
ATOM     49  N   LIG A   1      -8.071   1.332 123.395  0.00  0.00    -0.346 N 
ATOM     50  C   LIG A   1      -7.133   2.413 123.134  0.00  0.00    +0.125 C 
ATOM     51  H   LIG A   1      -8.644   1.129 122.570  0.00  0.00    +0.146 HD
ENDBRANCH  44  49
ENDBRANCH  41  43
ENDBRANCH  40  41
ENDBRANCH  20  40
TORSDOF 11
ENDMDL
MODEL 2
REMARK VINA RESULT:      -8.7      2.221      2.865
REMARK  Name = NuBBE_1522
REMARK  18 active torsions:
REMARK  status: ('A' for Active; 'I' for Inactive)
REMARK    1  A    between atoms: C_1  and  C_2
REMARK    2  A    between atoms: C_6  and  C_10
REMARK    3  A    between atoms: C_13  and  C_18
REMARK    4  A    between atoms: C_16  and  O_17
REMARK    5  A    between atoms: C_18  and  C_20
REMARK    6  A    between atoms: C_18  and  O_24
REMARK    7  A    between atoms: C_20  and  C_21
REMARK    8  A    between atoms: C_20  and  C_22
REMARK    9  A    between atoms: C_20  and  O_23
REMARK   10  A    between atoms: C_29  and  C_30
REMARK   11  A    between atoms: C_34  and  O_36
REMARK   12  A    between atoms: C_37  and  C_38
REMARK   13  A    between atoms: C_37  and  C_39
REMARK   14  A    between atoms: C_40  and  O_44
REMARK   15  A    between atoms: O_44  and  C_45
REMARK   16  A    between atoms: C_45  and  C_47
REMARK   17  A    between atoms: C_48  and  N_49
REMARK   18  A    between atoms: N_49  and  C_50
REMARK                            x       y       z     vdW  Elec       q    Type
REMARK                         _______ _______ _______ _____ _____    ______ ____
ROOT
ATOM      1  C   LIG A   1      -3.281   3.553 130.014  0.00  0.00    +0.014 C 
ATOM      2  C   LIG A   1      -4.191   4.666 129.410  0.00  0.00    +0.003 C 
ATOM      3  C   LIG A   1      -3.786   6.010 130.032  0.00  0.00    -0.015 C 
ATOM      4  C   LIG A   1      -4.197   6.252 131.455  0.00  0.00    -0.019 C 
ATOM      5  C   LIG A   1      -4.765   7.129 130.354  0.00  0.00    +0.016 C 
ATOM      6  C   LIG A   1      -2.911   6.633 132.207  0.00  0.00    +0.004 C 
ATOM      7  C   LIG A   1      -1.979   7.171 131.104  0.00  0.00    +0.005 C 
ATOM      8  C   LIG A   1      -2.352   6.452 129.818  0.00  0.00    +0.008 C 
ATOM      9  C   LIG A   1      -5.114   5.251 132.116  0.00  0.00    +0.008 C 
ATOM     10  C   LIG A   1      -6.125   4.561 131.177  0.00  0.00    +0.005 C 
ATOM     11  C   LIG A   1      -5.712   4.387 129.680  0.00  0.00    +0.004 C 
ATOM     12  C   LIG A   1      -6.289   3.100 128.952  0.00  0.00    -0.025 C 
ATOM     13  C   LIG A   1      -5.775   1.809 129.636  0.00  0.00    +0.012 C 
ATOM     14  C   LIG A   1      -5.945   3.199 127.414  0.00  0.00    +0.007 C 
ATOM     15  C   LIG A   1      -4.453   3.505 127.148  0.00  0.00    +0.036 C 
ATOM     16  C   LIG A   1      -3.936   4.736 127.882  0.00  0.00    +0.122 C 
ATOM     17  C   LIG A   1      -6.501   2.030 126.512  0.00  0.00    +0.006 C 
ATOM     18  C   LIG A   1      -5.663   0.733 126.616  0.00  0.00    +0.015 C 
ATOM     19  C   LIG A   1      -6.383   2.490 125.026  0.00  0.00    +0.015 C 
ATOM     20  C   LIG A   1      -8.021   1.762 126.803  0.00  0.00    +0.183 C 
ATOM     21  C   LIG A   1      -8.488   1.969 128.255  0.00  0.00    +0.046 C 
ATOM     22  C   LIG A   1      -7.838   3.115 129.027  0.00  0.00    +0.011 C 
ENDROOT
BRANCH   6  23
ATOM     23  C   LIG A   1      -3.138   7.555 133.420  0.00  0.00    +0.051 C 
ATOM     24  C   LIG A   1      -2.181   8.730 133.588  0.00  0.00    +0.043 C 
ATOM     25  C   LIG A   1      -1.628   8.645 135.013  0.00  0.00    +0.153 C 
ATOM     26  O   LIG A   1      -2.542   7.804 135.726  0.00  0.00    -0.345 OA
ATOM     27  C   LIG A   1      -3.158   6.900 134.806  0.00  0.00    +0.251 C 
BRANCH  27  28
ATOM     28  O   LIG A   1      -2.505   5.655 134.894  0.00  0.00    -0.367 OA
ATOM     29  H   LIG A   1      -3.051   5.057 134.353  0.00  0.00    +0.212 HD
ENDBRANCH  27  28
BRANCH  25  30
ATOM     30  C   LIG A   1      -0.162   8.144 135.059  0.00  0.00    +0.174 C 
BRANCH  30  31
ATOM     31  C   LIG A   1       0.387   7.636 136.418  0.00  0.00    +0.089 C 
ATOM     32  C   LIG A   1       1.849   7.209 136.347  0.00  0.00    +0.044 C 
ATOM     33  C   LIG A   1       0.159   8.619 137.568  0.00  0.00    +0.044 C 
BRANCH  31  34
ATOM     34  O   LIG A   1      -0.404   6.466 136.749  0.00  0.00    -0.387 OA
ATOM     35  H   LIG A   1      -1.080   6.727 137.399  0.00  0.00    +0.210 HD
ENDBRANCH  31  34
ENDBRANCH  30  31
BRANCH  30  36
ATOM     36  O   LIG A   1       0.054   7.083 134.117  0.00  0.00    -0.386 OA
ATOM     37  H   LIG A   1       0.368   7.524 133.298  0.00  0.00    +0.210 HD
ENDBRANCH  30  36
ENDBRANCH  25  30
ENDBRANCH   6  23
BRANCH  16  38
ATOM     38  O   LIG A   1      -4.514   5.900 127.270  0.00  0.00    -0.391 OA
ATOM     39  H   LIG A   1      -4.154   6.002 126.381  0.00  0.00    +0.210 HD
ENDBRANCH  16  38
BRANCH  20  40
ATOM     40  O   LIG A   1      -8.363   0.374 126.545  0.00  0.00    -0.457 OA
BRANCH  40  41
ATOM     41  C   LIG A   1      -9.070   0.010 125.453  0.00  0.00    +0.341 C 
ATOM     42  O   LIG A   1     -10.138   0.463 125.080  0.00  0.00    -0.245 OA
BRANCH  41  43
ATOM     43  C   LIG A   1      -8.296  -1.031 124.724  0.00  0.00    +0.080 A 
ATOM     44  C   LIG A   1      -8.308  -2.379 125.151  0.00  0.00    +0.041 A 
ATOM     45  C   LIG A   1      -7.521  -3.286 124.417  0.00  0.00    +0.024 A 
ATOM     46  C   LIG A   1      -6.722  -2.872 123.343  0.00  0.00    +0.002 A 
ATOM     47  C   LIG A   1      -6.718  -1.540 122.946  0.00  0.00    +0.001 A 
ATOM     48  C   LIG A   1      -7.505  -0.622 123.631  0.00  0.00    +0.017 A 
BRANCH  44  49
ATOM     49  N   LIG A   1      -9.196  -2.825 126.149  0.00  0.00    -0.346 N 
ATOM     50  C   LIG A   1      -8.636  -3.290 127.408  0.00  0.00    +0.125 C 
ATOM     51  H   LIG A   1      -9.944  -2.141 126.303  0.00  0.00    +0.146 HD
ENDBRANCH  44  49
ENDBRANCH  41  43
ENDBRANCH  40  41
ENDBRANCH  20  40
TORSDOF 11
ENDMDL
MODEL 3
REMARK VINA RESULT:      -8.4      1.573      2.435
REMARK  Name = NuBBE_1522
REMARK  18 active torsions:
REMARK  status: ('A' for Active; 'I' for Inactive)
REMARK    1  A    between atoms: C_1  and  C_2
REMARK    2  A    between atoms: C_6  and  C_10
REMARK    3  A    between atoms: C_13  and  C_18
REMARK    4  A    between atoms: C_16  and  O_17
REMARK    5  A    between atoms: C_18  and  C_20
REMARK    6  A    between atoms: C_18  and  O_24
REMARK    7  A    between atoms: C_20  and  C_21
REMARK    8  A    between atoms: C_20  and  C_22
REMARK    9  A    between atoms: C_20  and  O_23
REMARK   10  A    between atoms: C_29  and  C_30
REMARK   11  A    between atoms: C_34  and  O_36
REMARK   12  A    between atoms: C_37  and  C_38
REMARK   13  A    between atoms: C_37  and  C_39
REMARK   14  A    between atoms: C_40  and  O_44
REMARK   15  A    between atoms: O_44  and  C_45
REMARK   16  A    between atoms: C_45  and  C_47
REMARK   17  A    between atoms: C_48  and  N_49
REMARK   18  A    between atoms: N_49  and  C_50
REMARK                            x       y       z     vdW  Elec       q    Type
REMARK                         _______ _______ _______ _____ _____    ______ ____
ROOT
ATOM      1  C   LIG A   1      -3.128   5.135 128.886  0.00  0.00    +0.014 C 
ATOM      2  C   LIG A   1      -4.408   5.009 129.768  0.00  0.00    +0.003 C 
ATOM      3  C   LIG A   1      -4.362   6.103 130.845  0.00  0.00    -0.015 C 
ATOM      4  C   LIG A   1      -3.395   5.905 131.975  0.00  0.00    -0.019 C 
ATOM      5  C   LIG A   1      -4.885   5.926 132.262  0.00  0.00    +0.016 C 
ATOM      6  C   LIG A   1      -2.543   7.184 132.032  0.00  0.00    +0.004 C 
ATOM      7  C   LIG A   1      -3.432   8.254 131.368  0.00  0.00    +0.005 C 
ATOM      8  C   LIG A   1      -4.307   7.536 130.354  0.00  0.00    +0.008 C 
ATOM      9  C   LIG A   1      -2.668   4.584 132.071  0.00  0.00    +0.008 C 
ATOM     10  C   LIG A   1      -3.455   3.358 131.568  0.00  0.00    +0.005 C 
ATOM     11  C   LIG A   1      -4.515   3.596 130.444  0.00  0.00    +0.004 C 
ATOM     12  C   LIG A   1      -4.727   2.392 129.431  0.00  0.00    -0.025 C 
ATOM     13  C   LIG A   1      -3.420   2.091 128.658  0.00  0.00    +0.012 C 
ATOM     14  C   LIG A   1      -5.964   2.728 128.508  0.00  0.00    +0.007 C 
ATOM     15  C   LIG A   1      -5.874   4.132 127.868  0.00  0.00    +0.036 C 
ATOM     16  C   LIG A   1      -5.650   5.255 128.872  0.00  0.00    +0.122 C 
ATOM     17  C   LIG A   1      -6.369   1.607 127.475  0.00  0.00    +0.006 C 
ATOM     18  C   LIG A   1      -5.451   1.568 126.231  0.00  0.00    +0.015 C 
ATOM     19  C   LIG A   1      -7.792   1.960 126.938  0.00  0.00    +0.015 C 
ATOM     20  C   LIG A   1      -6.464   0.201 128.169  0.00  0.00    +0.183 C 
ATOM     21  C   LIG A   1      -5.473  -0.064 129.317  0.00  0.00    +0.046 C 
ATOM     22  C   LIG A   1      -5.138   1.121 130.221  0.00  0.00    +0.011 C 
ENDROOT
BRANCH   6  23
ATOM     23  C   LIG A   1      -2.002   7.519 133.435  0.00  0.00    +0.051 C 
ATOM     24  C   LIG A   1      -2.280   8.919 133.970  0.00  0.00    +0.043 C 
ATOM     25  C   LIG A   1      -0.930   9.503 134.396  0.00  0.00    +0.153 C 
ATOM     26  O   LIG A   1      -0.057   8.376 134.540  0.00  0.00    -0.345 OA
ATOM     27  C   LIG A   1      -0.498   7.332 133.670  0.00  0.00    +0.251 C 
BRANCH  27  28
ATOM     28  O   LIG A   1       0.300   7.346 132.510  0.00  0.00    -0.367 OA
ATOM     29  H   LIG A   1       0.236   6.439 132.160  0.00  0.00    +0.212 HD
ENDBRANCH  27  28
BRANCH  25  30
ATOM     30  C   LIG A   1      -0.401  10.573 133.407  0.00  0.00    +0.174 C 
BRANCH  30  31
ATOM     31  C   LIG A   1      -0.529  12.064 133.818  0.00  0.00    +0.089 C 
ATOM     32  C   LIG A   1       0.563  12.942 133.219  0.00  0.00    +0.044 C 
ATOM     33  C   LIG A   1      -1.915  12.650 133.545  0.00  0.00    +0.044 C 
BRANCH  31  34
ATOM     34  O   LIG A   1      -0.379  12.088 135.262  0.00  0.00    -0.387 OA
ATOM     35  H   LIG A   1      -0.234  13.010 135.539  0.00  0.00    +0.210 HD
ENDBRANCH  31  34
ENDBRANCH  30  31
BRANCH  30  36
ATOM     36  O   LIG A   1       0.985  10.359 133.102  0.00  0.00    -0.386 OA
ATOM     37  H   LIG A   1       1.279   9.654 133.719  0.00  0.00    +0.210 HD
ENDBRANCH  30  36
ENDBRANCH  25  30
ENDBRANCH   6  23
BRANCH  16  38
ATOM     38  O   LIG A   1      -6.859   5.431 129.626  0.00  0.00    -0.391 OA
ATOM     39  H   LIG A   1      -6.755   5.021 130.493  0.00  0.00    +0.210 HD
ENDBRANCH  16  38
BRANCH  20  40
ATOM     40  O   LIG A   1      -6.164  -0.864 127.228  0.00  0.00    -0.457 OA
BRANCH  40  41
ATOM     41  C   LIG A   1      -7.143  -1.529 126.576  0.00  0.00    +0.341 C 
ATOM     42  O   LIG A   1      -8.250  -1.814 126.998  0.00  0.00    -0.245 OA
BRANCH  41  43
ATOM     43  C   LIG A   1      -6.665  -1.826 125.199  0.00  0.00    +0.080 A 
ATOM     44  C   LIG A   1      -7.379  -1.370 124.066  0.00  0.00    +0.041 A 
ATOM     45  C   LIG A   1      -6.866  -1.726 122.804  0.00  0.00    +0.024 A 
ATOM     46  C   LIG A   1      -5.732  -2.536 122.669  0.00  0.00    +0.002 A 
ATOM     47  C   LIG A   1      -5.051  -2.981 123.796  0.00  0.00    +0.001 A 
ATOM     48  C   LIG A   1      -5.513  -2.625 125.057  0.00  0.00    +0.017 A 
BRANCH  44  49
ATOM     49  N   LIG A   1      -8.447  -0.460 124.190  0.00  0.00    -0.346 N 
ATOM     50  C   LIG A   1      -8.336   0.825 123.517  0.00  0.00    +0.125 C 
ATOM     51  H   LIG A   1      -9.340  -0.916 123.977  0.00  0.00    +0.146 HD
ENDBRANCH  44  49
ENDBRANCH  41  43
ENDBRANCH  40  41
ENDBRANCH  20  40
TORSDOF 11
ENDMDL
MODEL 4
REMARK VINA RESULT:      -8.4      2.963     12.159
REMARK  Name = NuBBE_1522
REMARK  18 active torsions:
REMARK  status: ('A' for Active; 'I' for Inactive)
REMARK    1  A    between atoms: C_1  and  C_2
REMARK    2  A    between atoms: C_6  and  C_10
REMARK    3  A    between atoms: C_13  and  C_18
REMARK    4  A    between atoms: C_16  and  O_17
REMARK    5  A    between atoms: C_18  and  C_20
REMARK    6  A    between atoms: C_18  and  O_24
REMARK    7  A    between atoms: C_20  and  C_21
REMARK    8  A    between atoms: C_20  and  C_22
REMARK    9  A    between atoms: C_20  and  O_23
REMARK   10  A    between atoms: C_29  and  C_30
REMARK   11  A    between atoms: C_34  and  O_36
REMARK   12  A    between atoms: C_37  and  C_38
REMARK   13  A    between atoms: C_37  and  C_39
REMARK   14  A    between atoms: C_40  and  O_44
REMARK   15  A    between atoms: O_44  and  C_45
REMARK   16  A    between atoms: C_45  and  C_47
REMARK   17  A    between atoms: C_48  and  N_49
REMARK   18  A    between atoms: N_49  and  C_50
REMARK                            x       y       z     vdW  Elec       q    Type
REMARK                         _______ _______ _______ _____ _____    ______ ____
ROOT
ATOM      1  C   LIG A   1      -4.217   2.749 130.242  0.00  0.00    +0.014 C 
ATOM      2  C   LIG A   1      -5.424   3.687 130.553  0.00  0.00    +0.003 C 
ATOM      3  C   LIG A   1      -6.671   3.113 129.866  0.00  0.00    -0.015 C 
ATOM      4  C   LIG A   1      -6.758   3.266 128.376  0.00  0.00    -0.019 C 
ATOM      5  C   LIG A   1      -7.776   3.963 129.259  0.00  0.00    +0.016 C 
ATOM      6  C   LIG A   1      -7.004   1.854 127.819  0.00  0.00    +0.004 C 
ATOM      7  C   LIG A   1      -7.636   1.092 129.001  0.00  0.00    +0.005 C 
ATOM      8  C   LIG A   1      -7.087   1.714 130.274  0.00  0.00    +0.008 C 
ATOM      9  C   LIG A   1      -5.716   4.112 127.681  0.00  0.00    +0.008 C 
ATOM     10  C   LIG A   1      -5.176   5.300 128.501  0.00  0.00    +0.005 C 
ATOM     11  C   LIG A   1      -5.166   5.154 130.057  0.00  0.00    +0.004 C 
ATOM     12  C   LIG A   1      -3.993   5.912 130.813  0.00  0.00    -0.025 C 
ATOM     13  C   LIG A   1      -2.615   5.361 130.374  0.00  0.00    +0.012 C 
ATOM     14  C   LIG A   1      -4.261   5.826 132.366  0.00  0.00    +0.007 C 
ATOM     15  C   LIG A   1      -4.546   4.386 132.850  0.00  0.00    +0.036 C 
ATOM     16  C   LIG A   1      -5.665   3.689 132.085  0.00  0.00    +0.122 C 
ATOM     17  C   LIG A   1      -3.226   6.587 133.282  0.00  0.00    +0.006 C 
ATOM     18  C   LIG A   1      -1.899   5.813 133.468  0.00  0.00    +0.015 C 
ATOM     19  C   LIG A   1      -3.854   6.695 134.706  0.00  0.00    +0.015 C 
ATOM     20  C   LIG A   1      -2.977   8.049 132.765  0.00  0.00    +0.183 C 
ATOM     21  C   LIG A   1      -3.027   8.254 131.240  0.00  0.00    +0.046 C 
ATOM     22  C   LIG A   1      -4.052   7.424 130.470  0.00  0.00    +0.011 C 
ENDROOT
BRANCH   6  23
ATOM     23  C   LIG A   1      -7.784   1.825 126.491  0.00  0.00    +0.051 C 
ATOM     24  C   LIG A   1      -9.058   0.989 126.452  0.00  0.00    +0.043 C 
ATOM     25  C   LIG A   1      -8.930   0.050 125.249  0.00  0.00    +0.153 C 
ATOM     26  O   LIG A   1      -7.918   0.632 124.419  0.00  0.00    -0.345 OA
ATOM     27  C   LIG A   1      -7.020   1.384 125.238  0.00  0.00    +0.251 C 
BRANCH  27  28
ATOM     28  O   LIG A   1      -5.870   0.605 125.475  0.00  0.00    -0.367 OA
ATOM     29  H   LIG A   1      -5.134   1.241 125.430  0.00  0.00    +0.212 HD
ENDBRANCH  27  28
BRANCH  25  30
ATOM     30  C   LIG A   1      -8.627  -1.414 125.661  0.00  0.00    +0.174 C 
BRANCH  30  31
ATOM     31  C   LIG A   1      -8.192  -2.402 124.547  0.00  0.00    +0.089 C 
ATOM     32  C   LIG A   1      -8.110  -3.845 125.032  0.00  0.00    +0.044 C 
ATOM     33  C   LIG A   1      -9.042  -2.298 123.279  0.00  0.00    +0.044 C 
BRANCH  31  34
ATOM     34  O   LIG A   1      -6.859  -1.987 124.152  0.00  0.00    -0.387 OA
ATOM     35  H   LIG A   1      -6.761  -1.039 124.351  0.00  0.00    +0.210 HD
ENDBRANCH  31  34
ENDBRANCH  30  31
BRANCH  30  36
ATOM     36  O   LIG A   1      -7.607  -1.470 126.668  0.00  0.00    -0.386 OA
ATOM     37  H   LIG A   1      -8.063  -1.252 127.510  0.00  0.00    +0.210 HD
ENDBRANCH  30  36
ENDBRANCH  25  30
ENDBRANCH   6  23
BRANCH  16  38
ATOM     38  O   LIG A   1      -6.911   4.298 132.456  0.00  0.00    -0.391 OA
ATOM     39  H   LIG A   1      -7.176   4.921 131.769  0.00  0.00    +0.210 HD
ENDBRANCH  16  38
BRANCH  20  40
ATOM     40  O   LIG A   1      -1.640   8.502 133.111  0.00  0.00    -0.457 OA
BRANCH  40  41
ATOM     41  C   LIG A   1      -1.441   9.520 133.977  0.00  0.00    +0.341 C 
ATOM     42  O   LIG A   1      -1.838   9.602 135.126  0.00  0.00    -0.245 OA
BRANCH  41  43
ATOM     43  C   LIG A   1      -0.590  10.540 133.304  0.00  0.00    +0.080 A 
ATOM     44  C   LIG A   1      -1.167  11.674 132.685  0.00  0.00    +0.041 A 
ATOM     45  C   LIG A   1      -0.286  12.568 132.049  0.00  0.00    +0.024 A 
ATOM     46  C   LIG A   1       1.093  12.327 131.983  0.00  0.00    +0.002 A 
ATOM     47  C   LIG A   1       1.637  11.202 132.591  0.00  0.00    +0.001 A 
ATOM     48  C   LIG A   1       0.799  10.312 133.253  0.00  0.00    +0.017 A 
BRANCH  44  49
ATOM     49  N   LIG A   1      -2.531  11.984 132.847  0.00  0.00    -0.346 N 
ATOM     50  C   LIG A   1      -2.878  13.276 133.420  0.00  0.00    +0.125 C 
ATOM     51  H   LIG A   1      -3.050  11.809 131.980  0.00  0.00    +0.146 HD
ENDBRANCH  44  49
ENDBRANCH  41  43
ENDBRANCH  40  41
ENDBRANCH  20  40
TORSDOF 11
ENDMDL
MODEL 5
REMARK VINA RESULT:      -8.4      5.111     12.610
REMARK  Name = NuBBE_1522
REMARK  18 active torsions:
REMARK  status: ('A' for Active; 'I' for Inactive)
REMARK    1  A    between atoms: C_1  and  C_2
REMARK    2  A    between atoms: C_6  and  C_10
REMARK    3  A    between atoms: C_13  and  C_18
REMARK    4  A    between atoms: C_16  and  O_17
REMARK    5  A    between atoms: C_18  and  C_20
REMARK    6  A    between atoms: C_18  and  O_24
REMARK    7  A    between atoms: C_20  and  C_21
REMARK    8  A    between atoms: C_20  and  C_22
REMARK    9  A    between atoms: C_20  and  O_23
REMARK   10  A    between atoms: C_29  and  C_30
REMARK   11  A    between atoms: C_34  and  O_36
REMARK   12  A    between atoms: C_37  and  C_38
REMARK   13  A    between atoms: C_37  and  C_39
REMARK   14  A    between atoms: C_40  and  O_44
REMARK   15  A    between atoms: O_44  and  C_45
REMARK   16  A    between atoms: C_45  and  C_47
REMARK   17  A    between atoms: C_48  and  N_49
REMARK   18  A    between atoms: N_49  and  C_50
REMARK                            x       y       z     vdW  Elec       q    Type
REMARK                         _______ _______ _______ _____ _____    ______ ____
ROOT
ATOM      1  C   LIG A   1      -5.952   4.155 129.967  0.00  0.00    +0.014 C 
ATOM      2  C   LIG A   1      -6.280   2.893 130.823  0.00  0.00    +0.003 C 
ATOM      3  C   LIG A   1      -6.562   1.724 129.869  0.00  0.00    -0.015 C 
ATOM      4  C   LIG A   1      -7.874   1.742 129.140  0.00  0.00    -0.019 C 
ATOM      5  C   LIG A   1      -7.588   0.634 130.137  0.00  0.00    +0.016 C 
ATOM      6  C   LIG A   1      -7.532   1.594 127.648  0.00  0.00    +0.004 C 
ATOM      7  C   LIG A   1      -6.153   0.906 127.649  0.00  0.00    +0.005 C 
ATOM      8  C   LIG A   1      -5.444   1.334 128.923  0.00  0.00    +0.008 C 
ATOM      9  C   LIG A   1      -8.887   2.798 129.516  0.00  0.00    +0.008 C 
ATOM     10  C   LIG A   1      -8.874   3.228 130.997  0.00  0.00    +0.005 C 
ATOM     11  C   LIG A   1      -7.515   3.129 131.762  0.00  0.00    +0.004 C 
ATOM     12  C   LIG A   1      -7.284   4.211 132.900  0.00  0.00    -0.025 C 
ATOM     13  C   LIG A   1      -7.275   5.639 132.302  0.00  0.00    +0.012 C 
ATOM     14  C   LIG A   1      -5.972   3.832 133.692  0.00  0.00    +0.007 C 
ATOM     15  C   LIG A   1      -4.763   3.570 132.765  0.00  0.00    +0.036 C 
ATOM     16  C   LIG A   1      -5.034   2.539 131.676  0.00  0.00    +0.122 C 
ATOM     17  C   LIG A   1      -5.617   4.767 134.913  0.00  0.00    +0.006 C 
ATOM     18  C   LIG A   1      -4.972   6.105 134.484  0.00  0.00    +0.015 C 
ATOM     19  C   LIG A   1      -4.536   4.031 135.764  0.00  0.00    +0.015 C 
ATOM     20  C   LIG A   1      -6.867   4.995 135.836  0.00  0.00    +0.183 C 
ATOM     21  C   LIG A   1      -8.236   5.050 135.134  0.00  0.00    +0.046 C 
ATOM     22  C   LIG A   1      -8.432   4.119 133.940  0.00  0.00    +0.011 C 
ENDROOT
BRANCH   6  23
ATOM     23  C   LIG A   1      -8.634   0.916 126.812  0.00  0.00    +0.051 C 
ATOM     24  C   LIG A   1      -8.465  -0.570 126.516  0.00  0.00    +0.043 C 
ATOM     25  C   LIG A   1      -8.598  -0.734 125.000  0.00  0.00    +0.153 C 
ATOM     26  O   LIG A   1      -9.254   0.456 124.545  0.00  0.00    -0.345 OA
ATOM     27  C   LIG A   1      -8.951   1.526 125.442  0.00  0.00    +0.251 C 
BRANCH  27  28
ATOM     28  O   LIG A   1      -7.924   2.309 124.878  0.00  0.00    -0.367 OA
ATOM     29  H   LIG A   1      -7.799   1.938 123.986  0.00  0.00    +0.212 HD
ENDBRANCH  27  28
BRANCH  25  30
ATOM     30  C   LIG A   1      -7.237  -0.995 124.304  0.00  0.00    +0.174 C 
BRANCH  30  31
ATOM     31  C   LIG A   1      -7.050  -2.345 123.564  0.00  0.00    +0.089 C 
ATOM     32  C   LIG A   1      -5.590  -2.666 123.272  0.00  0.00    +0.044 C 
ATOM     33  C   LIG A   1      -7.741  -3.518 124.261  0.00  0.00    +0.044 C 
BRANCH  31  34
ATOM     34  O   LIG A   1      -7.737  -2.195 122.293  0.00  0.00    -0.387 OA
ATOM     35  H   LIG A   1      -8.229  -3.015 122.112  0.00  0.00    +0.210 HD
ENDBRANCH  31  34
ENDBRANCH  30  31
BRANCH  30  36
ATOM     36  O   LIG A   1      -6.937   0.032 123.348  0.00  0.00    -0.386 OA
ATOM     37  H   LIG A   1      -7.784   0.506 123.203  0.00  0.00    +0.210 HD
ENDBRANCH  30  36
ENDBRANCH  25  30
ENDBRANCH   6  23
BRANCH  16  38
ATOM     38  O   LIG A   1      -5.126   1.246 132.293  0.00  0.00    -0.391 OA
ATOM     39  H   LIG A   1      -4.483   1.190 133.010  0.00  0.00    +0.210 HD
ENDBRANCH  16  38
BRANCH  20  40
ATOM     40  O   LIG A   1      -6.791   6.283 136.504  0.00  0.00    -0.457 OA
BRANCH  40  41
ATOM     41  C   LIG A   1      -6.958   6.398 137.840  0.00  0.00    +0.341 C 
ATOM     42  O   LIG A   1      -6.488   5.683 138.707  0.00  0.00    -0.245 OA
BRANCH  41  43
ATOM     43  C   LIG A   1      -7.790   7.604 138.101  0.00  0.00    +0.080 A 
ATOM     44  C   LIG A   1      -7.486   8.481 139.169  0.00  0.00    +0.041 A 
ATOM     45  C   LIG A   1      -8.347   9.577 139.357  0.00  0.00    +0.024 A 
ATOM     46  C   LIG A   1      -9.483   9.771 138.560  0.00  0.00    +0.002 A 
ATOM     47  C   LIG A   1      -9.768   8.892 137.522  0.00  0.00    +0.001 A 
ATOM     48  C   LIG A   1      -8.923   7.814 137.290  0.00  0.00    +0.017 A 
BRANCH  44  49
ATOM     49  N   LIG A   1      -6.286   8.362 139.897  0.00  0.00    -0.346 N 
ATOM     50  C   LIG A   1      -6.371   8.212 141.342  0.00  0.00    +0.125 C 
ATOM     51  H   LIG A   1      -5.678   7.648 139.483  0.00  0.00    +0.146 HD
ENDBRANCH  44  49
ENDBRANCH  41  43
ENDBRANCH  40  41
ENDBRANCH  20  40
TORSDOF 11
ENDMDL
MODEL 6
REMARK VINA RESULT:      -8.2      3.206     12.418
REMARK  Name = NuBBE_1522
REMARK  18 active torsions:
REMARK  status: ('A' for Active; 'I' for Inactive)
REMARK    1  A    between atoms: C_1  and  C_2
REMARK    2  A    between atoms: C_6  and  C_10
REMARK    3  A    between atoms: C_13  and  C_18
REMARK    4  A    between atoms: C_16  and  O_17
REMARK    5  A    between atoms: C_18  and  C_20
REMARK    6  A    between atoms: C_18  and  O_24
REMARK    7  A    between atoms: C_20  and  C_21
REMARK    8  A    between atoms: C_20  and  C_22
REMARK    9  A    between atoms: C_20  and  O_23
REMARK   10  A    between atoms: C_29  and  C_30
REMARK   11  A    between atoms: C_34  and  O_36
REMARK   12  A    between atoms: C_37  and  C_38
REMARK   13  A    between atoms: C_37  and  C_39
REMARK   14  A    between atoms: C_40  and  O_44
REMARK   15  A    between atoms: O_44  and  C_45
REMARK   16  A    between atoms: C_45  and  C_47
REMARK   17  A    between atoms: C_48  and  N_49
REMARK   18  A    between atoms: N_49  and  C_50
REMARK                            x       y       z     vdW  Elec       q    Type
REMARK                         _______ _______ _______ _____ _____    ______ ____
ROOT
ATOM      1  C   LIG A   1      -4.532   2.409 130.185  0.00  0.00    +0.014 C 
ATOM      2  C   LIG A   1      -5.744   3.336 130.509  0.00  0.00    +0.003 C 
ATOM      3  C   LIG A   1      -6.986   2.769 129.805  0.00  0.00    -0.015 C 
ATOM      4  C   LIG A   1      -7.066   2.951 128.318  0.00  0.00    -0.019 C 
ATOM      5  C   LIG A   1      -8.092   3.626 129.210  0.00  0.00    +0.016 C 
ATOM      6  C   LIG A   1      -7.302   1.549 127.732  0.00  0.00    +0.004 C 
ATOM      7  C   LIG A   1      -7.937   0.761 128.895  0.00  0.00    +0.005 C 
ATOM      8  C   LIG A   1      -7.396   1.360 130.183  0.00  0.00    +0.008 C 
ATOM      9  C   LIG A   1      -6.026   3.816 127.645  0.00  0.00    +0.008 C 
ATOM     10  C   LIG A   1      -5.495   4.990 128.492  0.00  0.00    +0.005 C 
ATOM     11  C   LIG A   1      -5.491   4.813 130.044  0.00  0.00    +0.004 C 
ATOM     12  C   LIG A   1      -4.326   5.562 130.820  0.00  0.00    -0.025 C 
ATOM     13  C   LIG A   1      -2.943   5.026 130.377  0.00  0.00    +0.012 C 
ATOM     14  C   LIG A   1      -4.601   5.443 132.370  0.00  0.00    +0.007 C 
ATOM     15  C   LIG A   1      -4.881   3.992 132.824  0.00  0.00    +0.036 C 
ATOM     16  C   LIG A   1      -5.992   3.305 132.040  0.00  0.00    +0.122 C 
ATOM     17  C   LIG A   1      -3.573   6.190 133.306  0.00  0.00    +0.006 C 
ATOM     18  C   LIG A   1      -2.243   5.420 133.482  0.00  0.00    +0.015 C 
ATOM     19  C   LIG A   1      -4.208   6.267 134.729  0.00  0.00    +0.015 C 
ATOM     20  C   LIG A   1      -3.329   7.664 132.819  0.00  0.00    +0.183 C 
ATOM     21  C   LIG A   1      -3.373   7.899 131.299  0.00  0.00    +0.046 C 
ATOM     22  C   LIG A   1      -4.390   7.080 130.507  0.00  0.00    +0.011 C 
ENDROOT
BRANCH   6  23
ATOM     23  C   LIG A   1      -8.077   1.544 126.400  0.00  0.00    +0.051 C 
ATOM     24  C   LIG A   1      -9.094   0.427 126.193  0.00  0.00    +0.043 C 
ATOM     25  C   LIG A   1      -8.754  -0.232 124.853  0.00  0.00    +0.153 C 
ATOM     26  O   LIG A   1      -7.943   0.719 124.155  0.00  0.00    -0.345 OA
ATOM     27  C   LIG A   1      -7.251   1.529 125.108  0.00  0.00    +0.251 C 
BRANCH  27  28
ATOM     28  O   LIG A   1      -5.935   1.043 125.239  0.00  0.00    -0.367 OA
ATOM     29  H   LIG A   1      -5.781   1.018 126.200  0.00  0.00    +0.212 HD
ENDBRANCH  27  28
BRANCH  25  30
ATOM     30  C   LIG A   1      -8.077  -1.617 125.022  0.00  0.00    +0.174 C 
BRANCH  30  31
ATOM     31  C   LIG A   1      -8.893  -2.874 124.620  0.00  0.00    +0.089 C 
ATOM     32  C   LIG A   1      -9.398  -2.821 123.184  0.00  0.00    +0.044 C 
ATOM     33  C   LIG A   1      -8.156  -4.186 124.894  0.00  0.00    +0.044 C 
BRANCH  31  34
ATOM     34  O   LIG A   1     -10.048  -2.891 125.499  0.00  0.00    -0.387 OA
ATOM     35  H   LIG A   1     -10.551  -3.707 125.329  0.00  0.00    +0.210 HD
ENDBRANCH  31  34
ENDBRANCH  30  31
BRANCH  30  36
ATOM     36  O   LIG A   1      -6.846  -1.686 124.289  0.00  0.00    -0.386 OA
ATOM     37  H   LIG A   1      -6.157  -1.363 124.910  0.00  0.00    +0.210 HD
ENDBRANCH  30  36
ENDBRANCH  25  30
ENDBRANCH   6  23
BRANCH  16  38
ATOM     38  O   LIG A   1      -7.243   3.901 132.417  0.00  0.00    -0.391 OA
ATOM     39  H   LIG A   1      -7.109   4.453 133.197  0.00  0.00    +0.210 HD
ENDBRANCH  16  38
BRANCH  20  40
ATOM     40  O   LIG A   1      -1.996   8.116 133.181  0.00  0.00    -0.457 OA
BRANCH  40  41
ATOM     41  C   LIG A   1      -1.798   9.010 134.174  0.00  0.00    +0.341 C 
ATOM     42  O   LIG A   1      -2.061   8.872 135.356  0.00  0.00    -0.245 OA
BRANCH  41  43
ATOM     43  C   LIG A   1      -1.140  10.211 133.592  0.00  0.00    +0.080 A 
ATOM     44  C   LIG A   1       0.151  10.608 134.011  0.00  0.00    +0.041 A 
ATOM     45  C   LIG A   1       0.679  11.775 133.426  0.00  0.00    +0.024 A 
ATOM     46  C   LIG A   1      -0.053  12.539 132.509  0.00  0.00    +0.002 A 
ATOM     47  C   LIG A   1      -1.324  12.135 132.118  0.00  0.00    +0.001 A 
ATOM     48  C   LIG A   1      -1.866  10.974 132.655  0.00  0.00    +0.017 A 
BRANCH  44  49
ATOM     49  N   LIG A   1       0.939   9.785 134.839  0.00  0.00    -0.346 N 
ATOM     50  C   LIG A   1       1.458  10.350 136.076  0.00  0.00    +0.125 C 
ATOM     51  H   LIG A   1       0.477   8.885 135.004  0.00  0.00    +0.146 HD
ENDBRANCH  44  49
ENDBRANCH  41  43
ENDBRANCH  40  41
ENDBRANCH  20  40
TORSDOF 11
ENDMDL
MODEL 7
REMARK VINA RESULT:      -8.1      6.790      9.341
REMARK  Name = NuBBE_1522
REMARK  18 active torsions:
REMARK  status: ('A' for Active; 'I' for Inactive)
REMARK    1  A    between atoms: C_1  and  C_2
REMARK    2  A    between atoms: C_6  and  C_10
REMARK    3  A    between atoms: C_13  and  C_18
REMARK    4  A    between atoms: C_16  and  O_17
REMARK    5  A    between atoms: C_18  and  C_20
REMARK    6  A    between atoms: C_18  and  O_24
REMARK    7  A    between atoms: C_20  and  C_21
REMARK    8  A    between atoms: C_20  and  C_22
REMARK    9  A    between atoms: C_20  and  O_23
REMARK   10  A    between atoms: C_29  and  C_30
REMARK   11  A    between atoms: C_34  and  O_36
REMARK   12  A    between atoms: C_37  and  C_38
REMARK   13  A    between atoms: C_37  and  C_39
REMARK   14  A    between atoms: C_40  and  O_44
REMARK   15  A    between atoms: O_44  and  C_45
REMARK   16  A    between atoms: C_45  and  C_47
REMARK   17  A    between atoms: C_48  and  N_49
REMARK   18  A    between atoms: N_49  and  C_50
REMARK                            x       y       z     vdW  Elec       q    Type
REMARK                         _______ _______ _______ _____ _____    ______ ____
ROOT
ATOM      1  C   LIG A   1      -7.714  -2.955 130.403  0.00  0.00    +0.014 C 
ATOM      2  C   LIG A   1      -6.229  -2.567 130.123  0.00  0.00    +0.003 C 
ATOM      3  C   LIG A   1      -5.328  -3.435 131.013  0.00  0.00    -0.015 C 
ATOM      4  C   LIG A   1      -5.287  -3.097 132.474  0.00  0.00    -0.019 C 
ATOM      5  C   LIG A   1      -4.028  -2.952 131.637  0.00  0.00    +0.016 C 
ATOM      6  C   LIG A   1      -5.615  -4.400 133.221  0.00  0.00    +0.004 C 
ATOM      7  C   LIG A   1      -5.234  -5.509 132.219  0.00  0.00    +0.005 C 
ATOM      8  C   LIG A   1      -5.433  -4.936 130.826  0.00  0.00    +0.008 C 
ATOM      9  C   LIG A   1      -5.984  -1.839 132.938  0.00  0.00    +0.008 C 
ATOM     10  C   LIG A   1      -5.994  -0.678 131.925  0.00  0.00    +0.005 C 
ATOM     11  C   LIG A   1      -5.959  -1.047 130.406  0.00  0.00    +0.004 C 
ATOM     12  C   LIG A   1      -6.719  -0.047 129.436  0.00  0.00    -0.025 C 
ATOM     13  C   LIG A   1      -8.228   0.003 129.775  0.00  0.00    +0.012 C 
ATOM     14  C   LIG A   1      -6.403  -0.460 127.945  0.00  0.00    +0.007 C 
ATOM     15  C   LIG A   1      -6.639  -1.964 127.673  0.00  0.00    +0.036 C 
ATOM     16  C   LIG A   1      -5.908  -2.887 128.640  0.00  0.00    +0.122 C 
ATOM     17  C   LIG A   1      -7.025   0.469 126.832  0.00  0.00    +0.006 C 
ATOM     18  C   LIG A   1      -8.528   0.200 126.588  0.00  0.00    +0.015 C 
ATOM     19  C   LIG A   1      -6.311   0.127 125.487  0.00  0.00    +0.015 C 
ATOM     20  C   LIG A   1      -6.749   1.985 127.138  0.00  0.00    +0.183 C 
ATOM     21  C   LIG A   1      -6.724   2.390 128.623  0.00  0.00    +0.046 C 
ATOM     22  C   LIG A   1      -6.129   1.379 129.600  0.00  0.00    +0.011 C 
ENDROOT
BRANCH   6  23
ATOM     23  C   LIG A   1      -4.986  -4.501 134.623  0.00  0.00    +0.051 C 
ATOM     24  C   LIG A   1      -4.362  -3.233 135.196  0.00  0.00    +0.043 C 
ATOM     25  C   LIG A   1      -2.936  -3.599 135.618  0.00  0.00    +0.153 C 
ATOM     26  O   LIG A   1      -2.924  -5.027 135.722  0.00  0.00    -0.345 OA
ATOM     27  C   LIG A   1      -3.904  -5.566 134.833  0.00  0.00    +0.251 C 
BRANCH  27  28
ATOM     28  O   LIG A   1      -3.256  -6.006 133.662  0.00  0.00    -0.367 OA
ATOM     29  H   LIG A   1      -3.506  -5.352 132.986  0.00  0.00    +0.212 HD
ENDBRANCH  27  28
BRANCH  25  30
ATOM     30  C   LIG A   1      -1.862  -3.040 134.648  0.00  0.00    +0.174 C 
BRANCH  30  31
ATOM     31  C   LIG A   1      -1.020  -1.827 135.123  0.00  0.00    +0.089 C 
ATOM     32  C   LIG A   1      -0.637  -1.910 136.596  0.00  0.00    +0.044 C 
ATOM     33  C   LIG A   1       0.209  -1.565 134.251  0.00  0.00    +0.044 C 
BRANCH  31  34
ATOM     34  O   LIG A   1      -1.871  -0.664 134.949  0.00  0.00    -0.387 OA
ATOM     35  H   LIG A   1      -1.895  -0.173 135.789  0.00  0.00    +0.210 HD
ENDBRANCH  31  34
ENDBRANCH  30  31
BRANCH  30  36
ATOM     36  O   LIG A   1      -0.924  -4.057 134.270  0.00  0.00    -0.386 OA
ATOM     37  H   LIG A   1      -1.470  -4.798 133.928  0.00  0.00    +0.210 HD
ENDBRANCH  30  36
ENDBRANCH  25  30
ENDBRANCH   6  23
BRANCH  16  38
ATOM     38  O   LIG A   1      -4.504  -2.826 128.344  0.00  0.00    -0.391 OA
ATOM     39  H   LIG A   1      -4.016  -2.649 129.158  0.00  0.00    +0.210 HD
ENDBRANCH  16  38
BRANCH  20  40
ATOM     40  O   LIG A   1      -7.799   2.825 126.588  0.00  0.00    -0.457 OA
BRANCH  40  41
ATOM     41  C   LIG A   1      -7.530   4.041 126.063  0.00  0.00    +0.341 C 
ATOM     42  O   LIG A   1      -7.567   5.116 126.634  0.00  0.00    -0.245 OA
BRANCH  41  43
ATOM     43  C   LIG A   1      -7.121   3.853 124.645  0.00  0.00    +0.080 A 
ATOM     44  C   LIG A   1      -7.924   3.110 123.748  0.00  0.00    +0.041 A 
ATOM     45  C   LIG A   1      -7.441   2.961 122.435  0.00  0.00    +0.024 A 
ATOM     46  C   LIG A   1      -6.201   3.478 122.039  0.00  0.00    +0.002 A 
ATOM     47  C   LIG A   1      -5.424   4.198 122.940  0.00  0.00    +0.001 A 
ATOM     48  C   LIG A   1      -5.883   4.388 124.237  0.00  0.00    +0.017 A 
BRANCH  44  49
ATOM     49  N   LIG A   1      -9.221   2.689 124.101  0.00  0.00    -0.346 N 
ATOM     50  C   LIG A   1      -9.787   1.545 123.402  0.00  0.00    +0.125 C 
ATOM     51  H   LIG A   1      -9.307   2.585 125.117  0.00  0.00    +0.146 HD
ENDBRANCH  44  49
ENDBRANCH  41  43
ENDBRANCH  40  41
ENDBRANCH  20  40
TORSDOF 11
ENDMDL
MODEL 8
REMARK VINA RESULT:      -8.1      2.351      3.518
REMARK  Name = NuBBE_1522
REMARK  18 active torsions:
REMARK  status: ('A' for Active; 'I' for Inactive)
REMARK    1  A    between atoms: C_1  and  C_2
REMARK    2  A    between atoms: C_6  and  C_10
REMARK    3  A    between atoms: C_13  and  C_18
REMARK    4  A    between atoms: C_16  and  O_17
REMARK    5  A    between atoms: C_18  and  C_20
REMARK    6  A    between atoms: C_18  and  O_24
REMARK    7  A    between atoms: C_20  and  C_21
REMARK    8  A    between atoms: C_20  and  C_22
REMARK    9  A    between atoms: C_20  and  O_23
REMARK   10  A    between atoms: C_29  and  C_30
REMARK   11  A    between atoms: C_34  and  O_36
REMARK   12  A    between atoms: C_37  and  C_38
REMARK   13  A    between atoms: C_37  and  C_39
REMARK   14  A    between atoms: C_40  and  O_44
REMARK   15  A    between atoms: O_44  and  C_45
REMARK   16  A    between atoms: C_45  and  C_47
REMARK   17  A    between atoms: C_48  and  N_49
REMARK   18  A    between atoms: N_49  and  C_50
REMARK                            x       y       z     vdW  Elec       q    Type
REMARK                         _______ _______ _______ _____ _____    ______ ____
ROOT
ATOM      1  C   LIG A   1      -5.045   5.388 132.211  0.00  0.00    +0.014 C 
ATOM      2  C   LIG A   1      -3.736   4.542 132.144  0.00  0.00    +0.003 C 
ATOM      3  C   LIG A   1      -2.617   5.327 132.843  0.00  0.00    -0.015 C 
ATOM      4  C   LIG A   1      -2.056   6.510 132.109  0.00  0.00    -0.019 C 
ATOM      5  C   LIG A   1      -1.163   5.317 132.398  0.00  0.00    +0.016 C 
ATOM      6  C   LIG A   1      -2.156   7.698 133.080  0.00  0.00    +0.004 C 
ATOM      7  C   LIG A   1      -2.193   7.039 134.473  0.00  0.00    +0.005 C 
ATOM      8  C   LIG A   1      -2.841   5.675 134.301  0.00  0.00    +0.008 C 
ATOM      9  C   LIG A   1      -2.497   6.743 130.683  0.00  0.00    +0.008 C 
ATOM     10  C   LIG A   1      -2.812   5.469 129.873  0.00  0.00    +0.005 C 
ATOM     11  C   LIG A   1      -3.323   4.222 130.663  0.00  0.00    +0.004 C 
ATOM     12  C   LIG A   1      -4.331   3.277 129.884  0.00  0.00    -0.025 C 
ATOM     13  C   LIG A   1      -5.625   4.044 129.516  0.00  0.00    +0.012 C 
ATOM     14  C   LIG A   1      -4.572   1.978 130.750  0.00  0.00    +0.007 C 
ATOM     15  C   LIG A   1      -4.948   2.293 132.216  0.00  0.00    +0.036 C 
ATOM     16  C   LIG A   1      -3.964   3.219 132.920  0.00  0.00    +0.122 C 
ATOM     17  C   LIG A   1      -5.504   0.885 130.098  0.00  0.00    +0.006 C 
ATOM     18  C   LIG A   1      -7.008   1.232 130.200  0.00  0.00    +0.015 C 
ATOM     19  C   LIG A   1      -5.318  -0.432 130.914  0.00  0.00    +0.015 C 
ATOM     20  C   LIG A   1      -5.078   0.585 128.616  0.00  0.00    +0.183 C 
ATOM     21  C   LIG A   1      -4.521   1.772 127.810  0.00  0.00    +0.046 C 
ATOM     22  C   LIG A   1      -3.664   2.779 128.575  0.00  0.00    +0.011 C 
ENDROOT
BRANCH   6  23
ATOM     23  C   LIG A   1      -1.083   8.782 132.865  0.00  0.00    +0.051 C 
ATOM     24  C   LIG A   1       0.223   8.628 133.636  0.00  0.00    +0.043 C 
ATOM     25  C   LIG A   1       0.456   9.951 134.372  0.00  0.00    +0.153 C 
ATOM     26  O   LIG A   1      -0.371  10.910 133.702  0.00  0.00    -0.345 OA
ATOM     27  C   LIG A   1      -1.492  10.236 133.126  0.00  0.00    +0.251 C 
BRANCH  27  28
ATOM     28  O   LIG A   1      -2.603  10.407 133.975  0.00  0.00    -0.367 OA
ATOM     29  H   LIG A   1      -2.226  10.764 134.799  0.00  0.00    +0.212 HD
ENDBRANCH  27  28
BRANCH  25  30
ATOM     30  C   LIG A   1       0.175   9.847 135.894  0.00  0.00    +0.174 C 
BRANCH  30  31
ATOM     31  C   LIG A   1       1.393   9.832 136.854  0.00  0.00    +0.089 C 
ATOM     32  C   LIG A   1       1.975   8.438 137.055  0.00  0.00    +0.044 C 
ATOM     33  C   LIG A   1       2.484  10.831 136.464  0.00  0.00    +0.044 C 
BRANCH  31  34
ATOM     34  O   LIG A   1       0.889  10.293 138.135  0.00  0.00    -0.387 OA
ATOM     35  H   LIG A   1       0.910   9.547 138.760  0.00  0.00    +0.210 HD
ENDBRANCH  31  34
ENDBRANCH  30  31
BRANCH  30  36
ATOM     36  O   LIG A   1      -0.674  10.914 136.339  0.00  0.00    -0.386 OA
ATOM     37  H   LIG A   1      -0.117  11.454 136.941  0.00  0.00    +0.210 HD
ENDBRANCH  30  36
ENDBRANCH  25  30
ENDBRANCH   6  23
BRANCH  16  38
ATOM     38  O   LIG A   1      -2.750   2.489 133.154  0.00  0.00    -0.391 OA
ATOM     39  H   LIG A   1      -2.542   2.515 134.096  0.00  0.00    +0.210 HD
ENDBRANCH  16  38
BRANCH  20  40
ATOM     40  O   LIG A   1      -6.219   0.159 127.824  0.00  0.00    -0.457 OA
BRANCH  40  41
ATOM     41  C   LIG A   1      -6.115  -0.830 126.909  0.00  0.00    +0.341 C 
ATOM     42  O   LIG A   1      -5.344  -0.887 125.968  0.00  0.00    -0.245 OA
BRANCH  41  43
ATOM     43  C   LIG A   1      -7.087  -1.898 127.268  0.00  0.00    +0.080 A 
ATOM     44  C   LIG A   1      -8.041  -2.359 126.331  0.00  0.00    +0.041 A 
ATOM     45  C   LIG A   1      -8.938  -3.350 126.771  0.00  0.00    +0.024 A 
ATOM     46  C   LIG A   1      -8.927  -3.826 128.088  0.00  0.00    +0.002 A 
ATOM     47  C   LIG A   1      -7.986  -3.353 128.995  0.00  0.00    +0.001 A 
ATOM     48  C   LIG A   1      -7.067  -2.394 128.587  0.00  0.00    +0.017 A 
BRANCH  44  49
ATOM     49  N   LIG A   1      -7.985  -1.974 124.977  0.00  0.00    -0.346 N 
ATOM     50  C   LIG A   1      -8.685  -2.794 124.000  0.00  0.00    +0.125 C 
ATOM     51  H   LIG A   1      -8.221  -0.982 124.870  0.00  0.00    +0.146 HD
ENDBRANCH  44  49
ENDBRANCH  41  43
ENDBRANCH  40  41
ENDBRANCH  20  40
TORSDOF 11
ENDMDL
MODEL 9
REMARK VINA RESULT:      -8.0      7.826     12.055
REMARK  Name = NuBBE_1522
REMARK  18 active torsions:
REMARK  status: ('A' for Active; 'I' for Inactive)
REMARK    1  A    between atoms: C_1  and  C_2
REMARK    2  A    between atoms: C_6  and  C_10
REMARK    3  A    between atoms: C_13  and  C_18
REMARK    4  A    between atoms: C_16  and  O_17
REMARK    5  A    between atoms: C_18  and  C_20
REMARK    6  A    between atoms: C_18  and  O_24
REMARK    7  A    between atoms: C_20  and  C_21
REMARK    8  A    between atoms: C_20  and  C_22
REMARK    9  A    between atoms: C_20  and  O_23
REMARK   10  A    between atoms: C_29  and  C_30
REMARK   11  A    between atoms: C_34  and  O_36
REMARK   12  A    between atoms: C_37  and  C_38
REMARK   13  A    between atoms: C_37  and  C_39
REMARK   14  A    between atoms: C_40  and  O_44
REMARK   15  A    between atoms: O_44  and  C_45
REMARK   16  A    between atoms: C_45  and  C_47
REMARK   17  A    between atoms: C_48  and  N_49
REMARK   18  A    between atoms: N_49  and  C_50
REMARK                            x       y       z     vdW  Elec       q    Type
REMARK                         _______ _______ _______ _____ _____    ______ ____
ROOT
ATOM      1  C   LIG A   1      -5.132  -1.273 130.902  0.00  0.00    +0.014 C 
ATOM      2  C   LIG A   1      -6.105  -2.461 130.631  0.00  0.00    +0.003 C 
ATOM      3  C   LIG A   1      -6.593  -2.364 129.178  0.00  0.00    -0.015 C 
ATOM      4  C   LIG A   1      -7.596  -1.291 128.869  0.00  0.00    -0.019 C 
ATOM      5  C   LIG A   1      -7.992  -2.749 128.722  0.00  0.00    +0.016 C 
ATOM      6  C   LIG A   1      -7.011  -0.491 127.693  0.00  0.00    +0.004 C 
ATOM      7  C   LIG A   1      -6.042  -1.480 127.015  0.00  0.00    +0.005 C 
ATOM      8  C   LIG A   1      -5.529  -2.413 128.100  0.00  0.00    +0.008 C 
ATOM      9  C   LIG A   1      -8.180  -0.504 130.019  0.00  0.00    +0.008 C 
ATOM     10  C   LIG A   1      -8.336  -1.283 131.340  0.00  0.00    +0.005 C 
ATOM     11  C   LIG A   1      -7.331  -2.448 131.611  0.00  0.00    +0.004 C 
ATOM     12  C   LIG A   1      -6.964  -2.702 133.134  0.00  0.00    -0.025 C 
ATOM     13  C   LIG A   1      -6.271  -1.458 133.743  0.00  0.00    +0.012 C 
ATOM     14  C   LIG A   1      -6.114  -4.029 133.230  0.00  0.00    +0.007 C 
ATOM     15  C   LIG A   1      -4.925  -4.056 132.243  0.00  0.00    +0.036 C 
ATOM     16  C   LIG A   1      -5.319  -3.788 130.796  0.00  0.00    +0.122 C 
ATOM     17  C   LIG A   1      -5.711  -4.479 134.687  0.00  0.00    +0.006 C 
ATOM     18  C   LIG A   1      -4.521  -3.676 135.263  0.00  0.00    +0.015 C 
ATOM     19  C   LIG A   1      -5.219  -5.958 134.599  0.00  0.00    +0.015 C 
ATOM     20  C   LIG A   1      -6.950  -4.453 135.653  0.00  0.00    +0.183 C 
ATOM     21  C   LIG A   1      -7.995  -3.352 135.395  0.00  0.00    +0.046 C 
ATOM     22  C   LIG A   1      -8.261  -2.986 133.937  0.00  0.00    +0.011 C 
ENDROOT
BRANCH   6  23
ATOM     23  C   LIG A   1      -8.070   0.160 126.784  0.00  0.00    +0.051 C 
ATOM     24  C   LIG A   1      -7.805   0.137 125.283  0.00  0.00    +0.043 C 
ATOM     25  C   LIG A   1      -7.934   1.581 124.791  0.00  0.00    +0.153 C 
ATOM     26  O   LIG A   1      -8.670   2.266 125.812  0.00  0.00    -0.345 OA
ATOM     27  C   LIG A   1      -8.434   1.623 127.066  0.00  0.00    +0.251 C 
BRANCH  27  28
ATOM     28  O   LIG A   1      -7.464   2.360 127.774  0.00  0.00    -0.367 OA
ATOM     29  H   LIG A   1      -6.678   2.339 127.200  0.00  0.00    +0.212 HD
ENDBRANCH  27  28
BRANCH  25  30
ATOM     30  C   LIG A   1      -6.563   2.231 124.475  0.00  0.00    +0.174 C 
BRANCH  30  31
ATOM     31  C   LIG A   1      -6.545   3.737 124.102  0.00  0.00    +0.089 C 
ATOM     32  C   LIG A   1      -6.045   4.625 125.235  0.00  0.00    +0.044 C 
ATOM     33  C   LIG A   1      -5.792   4.030 122.803  0.00  0.00    +0.044 C 
BRANCH  31  34
ATOM     34  O   LIG A   1      -7.927   4.092 123.834  0.00  0.00    -0.387 OA
ATOM     35  H   LIG A   1      -7.962   5.038 123.609  0.00  0.00    +0.210 HD
ENDBRANCH  31  34
ENDBRANCH  30  31
BRANCH  30  36
ATOM     36  O   LIG A   1      -5.650   2.079 125.571  0.00  0.00    -0.386 OA
ATOM     37  H   LIG A   1      -5.289   2.977 125.734  0.00  0.00    +0.210 HD
ENDBRANCH  30  36
ENDBRANCH  25  30
ENDBRANCH   6  23
BRANCH  16  38
ATOM     38  O   LIG A   1      -6.039  -4.931 130.307  0.00  0.00    -0.391 OA
ATOM     39  H   LIG A   1      -5.445  -5.478 129.779  0.00  0.00    +0.210 HD
ENDBRANCH  16  38
BRANCH  20  40
ATOM     40  O   LIG A   1      -6.536  -4.195 137.022  0.00  0.00    -0.457 OA
BRANCH  40  41
ATOM     41  C   LIG A   1      -7.309  -4.547 138.073  0.00  0.00    +0.341 C 
ATOM     42  O   LIG A   1      -7.532  -5.673 138.481  0.00  0.00    -0.245 OA
BRANCH  41  43
ATOM     43  C   LIG A   1      -7.823  -3.303 138.707  0.00  0.00    +0.080 A 
ATOM     44  C   LIG A   1      -9.195  -3.162 139.025  0.00  0.00    +0.041 A 
ATOM     45  C   LIG A   1      -9.593  -1.939 139.594  0.00  0.00    +0.024 A 
ATOM     46  C   LIG A   1      -8.691  -0.887 139.794  0.00  0.00    +0.002 A 
ATOM     47  C   LIG A   1      -7.349  -1.044 139.467  0.00  0.00    +0.001 A 
ATOM     48  C   LIG A   1      -6.915  -2.249 138.928  0.00  0.00    +0.017 A 
BRANCH  44  49
ATOM     49  N   LIG A   1     -10.083  -4.251 138.939  0.00  0.00    -0.346 N 
ATOM     50  C   LIG A   1     -11.329  -4.066 138.210  0.00  0.00    +0.125 C 
ATOM     51  H   LIG A   1      -9.594  -5.098 138.630  0.00  0.00    +0.146 HD
ENDBRANCH  44  49
ENDBRANCH  41  43
ENDBRANCH  40  41
ENDBRANCH  20  40
TORSDOF 11
ENDMDL
