MODEL 1
REMARK VINA RESULT:      -8.3      0.000      0.000
REMARK  Name = NuBBE_547
REMARK  4 active torsions:
REMARK  status: ('A' for Active; 'I' for Inactive)
REMARK    1  A    between atoms: C_2  and  C_3
REMARK    2  A    between atoms: C_2  and  C_11
REMARK    3  A    between atoms: C_6  and  O_7
REMARK    4  A    between atoms: O_7  and  C_8
REMARK                            x       y       z     vdW  Elec       q    Type
REMARK                         _______ _______ _______ _____ _____    ______ ____
ROOT
ATOM      1  C   LIG A   1      -6.974   1.852 124.706  0.00  0.00    +0.119 A 
ATOM      2  N   LIG A   1      -5.883   2.257 125.423  0.00  0.00    -0.251 NA
ATOM      3  C   LIG A   1      -5.131   1.308 126.004  0.00  0.00    +0.112 A 
ATOM      4  C   LIG A   1      -5.396  -0.042 125.908  0.00  0.00    +0.028 A 
ATOM      5  C   LIG A   1      -6.518  -0.463 125.191  0.00  0.00    -0.011 A 
ATOM      6  C   LIG A   1      -6.788  -1.839 125.095  0.00  0.00    +0.058 A 
ATOM      7  C   LIG A   1      -7.902  -2.242 124.398  0.00  0.00    +0.167 A 
ATOM      8  O   LIG A   1      -8.298  -3.530 124.213  0.00  0.00    -0.453 OA
ATOM      9  C   LIG A   1      -9.491  -3.334 123.426  0.00  0.00    +0.466 C 
ATOM     10  O   LIG A   1      -9.787  -1.944 123.176  0.00  0.00    -0.453 OA
ATOM     11  C   LIG A   1      -8.745  -1.340 123.804  0.00  0.00    +0.167 A 
ATOM     12  C   LIG A   1      -8.510   0.019 123.863  0.00  0.00    +0.060 A 
ATOM     13  C   LIG A   1      -7.370   0.499 124.568  0.00  0.00    +0.015 A 
ENDROOT
BRANCH   1  15
ATOM     14  O   LIG A   1      -8.544   3.640 124.733  0.00  0.00    -0.285 OA
ATOM     15  C   LIG A   1      -7.731   2.988 124.082  0.00  0.00    +0.212 C 
BRANCH  15  16
ATOM     16  C   LIG A   1      -7.485   3.382 122.662  0.00  0.00    +0.024 A 
ATOM     17  C   LIG A   1      -8.579   3.411 121.787  0.00  0.00    +0.015 A 
ATOM     18  C   LIG A   1      -8.411   3.785 120.449  0.00  0.00    +0.046 A 
ATOM     19  C   LIG A   1      -7.149   4.136 119.973  0.00  0.00    +0.120 A 
ATOM     20  C   LIG A   1      -6.049   4.064 120.826  0.00  0.00    +0.046 A 
ATOM     21  C   LIG A   1      -6.211   3.686 122.165  0.00  0.00    +0.015 A 
BRANCH  19  22
ATOM     22  O   LIG A   1      -6.876   4.524 118.687  0.00  0.00    -0.495 OA
ATOM     23  C   LIG A   1      -5.970   5.616 118.565  0.00  0.00    +0.277 C 
ENDBRANCH  19  22
ENDBRANCH  15  16
ENDBRANCH   1  15
TORSDOF 3
ENDMDL
MODEL 2
REMARK VINA RESULT:      -7.5      2.516      3.630
REMARK  Name = NuBBE_547
REMARK  4 active torsions:
REMARK  status: ('A' for Active; 'I' for Inactive)
REMARK    1  A    between atoms: C_2  and  C_3
REMARK    2  A    between atoms: C_2  and  C_11
REMARK    3  A    between atoms: C_6  and  O_7
REMARK    4  A    between atoms: O_7  and  C_8
REMARK                            x       y       z     vdW  Elec       q    Type
REMARK                         _______ _______ _______ _____ _____    ______ ____
ROOT
ATOM      1  C   LIG A   1      -9.065  -0.194 124.228  0.00  0.00    +0.119 A 
ATOM      2  N   LIG A   1      -9.415  -0.752 123.031  0.00  0.00    -0.251 NA
ATOM      3  C   LIG A   1      -9.404  -2.092 122.939  0.00  0.00    +0.112 A 
ATOM      4  C   LIG A   1      -9.069  -2.925 123.985  0.00  0.00    +0.028 A 
ATOM      5  C   LIG A   1      -8.695  -2.363 125.207  0.00  0.00    -0.011 A 
ATOM      6  C   LIG A   1      -8.352  -3.214 126.272  0.00  0.00    +0.058 A 
ATOM      7  C   LIG A   1      -7.973  -2.651 127.468  0.00  0.00    +0.167 A 
ATOM      8  O   LIG A   1      -7.615  -3.334 128.587  0.00  0.00    -0.453 OA
ATOM      9  C   LIG A   1      -7.336  -2.243 129.490  0.00  0.00    +0.466 C 
ATOM     10  O   LIG A   1      -7.514  -0.944 128.887  0.00  0.00    -0.453 OA
ATOM     11  C   LIG A   1      -7.921  -1.292 127.638  0.00  0.00    +0.167 A 
ATOM     12  C   LIG A   1      -8.261  -0.421 126.622  0.00  0.00    +0.060 A 
ATOM     13  C   LIG A   1      -8.666  -0.944 125.362  0.00  0.00    +0.015 A 
ENDROOT
BRANCH   1  15
ATOM     14  O   LIG A   1      -9.764   1.911 125.093  0.00  0.00    -0.285 OA
ATOM     15  C   LIG A   1      -9.132   1.306 124.229  0.00  0.00    +0.212 C 
BRANCH  15  16
ATOM     16  C   LIG A   1      -8.398   2.105 123.202  0.00  0.00    +0.024 A 
ATOM     17  C   LIG A   1      -7.005   2.202 123.314  0.00  0.00    +0.015 A 
ATOM     18  C   LIG A   1      -6.264   2.925 122.373  0.00  0.00    +0.046 A 
ATOM     19  C   LIG A   1      -6.907   3.558 121.311  0.00  0.00    +0.120 A 
ATOM     20  C   LIG A   1      -8.297   3.505 121.220  0.00  0.00    +0.046 A 
ATOM     21  C   LIG A   1      -9.044   2.785 122.161  0.00  0.00    +0.015 A 
BRANCH  19  22
ATOM     22  O   LIG A   1      -6.277   4.283 120.334  0.00  0.00    -0.495 OA
ATOM     23  C   LIG A   1      -7.045   4.502 119.154  0.00  0.00    +0.277 C 
ENDBRANCH  19  22
ENDBRANCH  15  16
ENDBRANCH   1  15
TORSDOF 3
ENDMDL
MODEL 3
REMARK VINA RESULT:      -7.4      2.063      6.414
REMARK  Name = NuBBE_547
REMARK  4 active torsions:
REMARK  status: ('A' for Active; 'I' for Inactive)
REMARK    1  A    between atoms: C_2  and  C_3
REMARK    2  A    between atoms: C_2  and  C_11
REMARK    3  A    between atoms: C_6  and  O_7
REMARK    4  A    between atoms: O_7  and  C_8
REMARK                            x       y       z     vdW  Elec       q    Type
REMARK                         _______ _______ _______ _____ _____    ______ ____
ROOT
ATOM      1  C   LIG A   1      -7.791   1.462 125.329  0.00  0.00    +0.119 A 
ATOM      2  N   LIG A   1      -7.923   1.685 126.671  0.00  0.00    -0.251 NA
ATOM      3  C   LIG A   1      -7.374   2.802 127.176  0.00  0.00    +0.112 A 
ATOM      4  C   LIG A   1      -6.697   3.730 126.414  0.00  0.00    +0.028 A 
ATOM      5  C   LIG A   1      -6.542   3.503 125.045  0.00  0.00    -0.011 A 
ATOM      6  C   LIG A   1      -5.850   4.450 124.271  0.00  0.00    +0.058 A 
ATOM      7  C   LIG A   1      -5.694   4.210 122.926  0.00  0.00    +0.167 A 
ATOM      8  O   LIG A   1      -5.054   5.024 122.045  0.00  0.00    -0.453 OA
ATOM      9  C   LIG A   1      -5.211   4.275 120.823  0.00  0.00    +0.466 C 
ATOM     10  O   LIG A   1      -5.919   3.030 121.004  0.00  0.00    -0.453 OA
ATOM     11  C   LIG A   1      -6.190   3.078 122.335  0.00  0.00    +0.167 A 
ATOM     12  C   LIG A   1      -6.886   2.129 123.056  0.00  0.00    +0.060 A 
ATOM     13  C   LIG A   1      -7.086   2.323 124.452  0.00  0.00    +0.015 A 
ENDROOT
BRANCH   1  15
ATOM     14  O   LIG A   1      -9.660   0.179 124.606  0.00  0.00    -0.285 OA
ATOM     15  C   LIG A   1      -8.459   0.201 124.866  0.00  0.00    +0.212 C 
BRANCH  15  16
ATOM     16  C   LIG A   1      -7.672  -1.054 124.670  0.00  0.00    +0.024 A 
ATOM     17  C   LIG A   1      -8.371  -2.232 124.375  0.00  0.00    +0.015 A 
ATOM     18  C   LIG A   1      -7.686  -3.434 124.167  0.00  0.00    +0.046 A 
ATOM     19  C   LIG A   1      -6.296  -3.471 124.251  0.00  0.00    +0.120 A 
ATOM     20  C   LIG A   1      -5.597  -2.314 124.590  0.00  0.00    +0.046 A 
ATOM     21  C   LIG A   1      -6.279  -1.109 124.802  0.00  0.00    +0.015 A 
BRANCH  19  22
ATOM     22  O   LIG A   1      -5.529  -4.591 124.058  0.00  0.00    -0.495 OA
ATOM     23  C   LIG A   1      -4.234  -4.350 123.515  0.00  0.00    +0.277 C 
ENDBRANCH  19  22
ENDBRANCH  15  16
ENDBRANCH   1  15
TORSDOF 3
ENDMDL
MODEL 4
REMARK VINA RESULT:      -7.2      7.536     10.090
REMARK  Name = NuBBE_547
REMARK  4 active torsions:
REMARK  status: ('A' for Active; 'I' for Inactive)
REMARK    1  A    between atoms: C_2  and  C_3
REMARK    2  A    between atoms: C_2  and  C_11
REMARK    3  A    between atoms: C_6  and  O_7
REMARK    4  A    between atoms: O_7  and  C_8
REMARK                            x       y       z     vdW  Elec       q    Type
REMARK                         _______ _______ _______ _____ _____    ______ ____
ROOT
ATOM      1  C   LIG A   1      -4.997   6.167 132.559  0.00  0.00    +0.119 A 
ATOM      2  N   LIG A   1      -4.532   5.560 133.692  0.00  0.00    -0.251 NA
ATOM      3  C   LIG A   1      -5.433   5.016 134.525  0.00  0.00    +0.112 A 
ATOM      4  C   LIG A   1      -6.793   5.031 134.293  0.00  0.00    +0.028 A 
ATOM      5  C   LIG A   1      -7.279   5.662 133.147  0.00  0.00    -0.011 A 
ATOM      6  C   LIG A   1      -8.664   5.678 132.913  0.00  0.00    +0.058 A 
ATOM      7  C   LIG A   1      -9.133   6.313 131.787  0.00  0.00    +0.167 A 
ATOM      8  O   LIG A   1     -10.438   6.414 131.419  0.00  0.00    -0.453 OA
ATOM      9  C   LIG A   1     -10.315   7.160 130.191  0.00  0.00    +0.466 C 
ATOM     10  O   LIG A   1      -8.951   7.501 129.865  0.00  0.00    -0.453 OA
ATOM     11  C   LIG A   1      -8.286   6.926 130.902  0.00  0.00    +0.167 A 
ATOM     12  C   LIG A   1      -6.918   6.924 131.087  0.00  0.00    +0.060 A 
ATOM     13  C   LIG A   1      -6.371   6.278 132.232  0.00  0.00    +0.015 A 
ENDROOT
BRANCH   1  15
ATOM     14  O   LIG A   1      -3.321   7.758 131.993  0.00  0.00    -0.285 OA
ATOM     15  C   LIG A   1      -3.907   6.721 131.689  0.00  0.00    +0.212 C 
BRANCH  15  16
ATOM     16  C   LIG A   1      -3.478   6.004 130.451  0.00  0.00    +0.024 A 
ATOM     17  C   LIG A   1      -2.843   6.746 129.446  0.00  0.00    +0.015 A 
ATOM     18  C   LIG A   1      -2.407   6.126 128.270  0.00  0.00    +0.046 A 
ATOM     19  C   LIG A   1      -2.600   4.758 128.087  0.00  0.00    +0.120 A 
ATOM     20  C   LIG A   1      -3.273   4.023 129.062  0.00  0.00    +0.046 A 
ATOM     21  C   LIG A   1      -3.714   4.640 130.239  0.00  0.00    +0.015 A 
BRANCH  19  22
ATOM     22  O   LIG A   1      -2.206   4.052 126.981  0.00  0.00    -0.495 OA
ATOM     23  C   LIG A   1      -3.045   2.953 126.634  0.00  0.00    +0.277 C 
ENDBRANCH  19  22
ENDBRANCH  15  16
ENDBRANCH   1  15
TORSDOF 3
ENDMDL
MODEL 5
REMARK VINA RESULT:      -7.2      2.820      7.649
REMARK  Name = NuBBE_547
REMARK  4 active torsions:
REMARK  status: ('A' for Active; 'I' for Inactive)
REMARK    1  A    between atoms: C_2  and  C_3
REMARK    2  A    between atoms: C_2  and  C_11
REMARK    3  A    between atoms: C_6  and  O_7
REMARK    4  A    between atoms: O_7  and  C_8
REMARK                            x       y       z     vdW  Elec       q    Type
REMARK                         _______ _______ _______ _____ _____    ______ ____
ROOT
ATOM      1  C   LIG A   1      -8.363  -0.660 123.730  0.00  0.00    +0.119 A 
ATOM      2  N   LIG A   1      -9.522  -0.920 123.054  0.00  0.00    -0.251 NA
ATOM      3  C   LIG A   1     -10.200   0.125 122.551  0.00  0.00    +0.112 A 
ATOM      4  C   LIG A   1      -9.784   1.434 122.675  0.00  0.00    +0.028 A 
ATOM      5  C   LIG A   1      -8.610   1.710 123.378  0.00  0.00    -0.011 A 
ATOM      6  C   LIG A   1      -8.190   3.045 123.505  0.00  0.00    +0.058 A 
ATOM      7  C   LIG A   1      -7.039   3.307 124.210  0.00  0.00    +0.167 A 
ATOM      8  O   LIG A   1      -6.501   4.538 124.421  0.00  0.00    -0.453 OA
ATOM      9  C   LIG A   1      -5.334   4.193 125.195  0.00  0.00    +0.466 C 
ATOM     10  O   LIG A   1      -5.213   2.776 125.444  0.00  0.00    -0.453 OA
ATOM     11  C   LIG A   1      -6.305   2.304 124.787  0.00  0.00    +0.167 A 
ATOM     12  C   LIG A   1      -6.676   0.979 124.677  0.00  0.00    +0.060 A 
ATOM     13  C   LIG A   1      -7.856   0.643 123.955  0.00  0.00    +0.015 A 
ENDROOT
BRANCH   1  15
ATOM     14  O   LIG A   1      -6.956  -2.564 123.490  0.00  0.00    -0.285 OA
ATOM     15  C   LIG A   1      -7.675  -1.897 124.230  0.00  0.00    +0.212 C 
BRANCH  15  16
ATOM     16  C   LIG A   1      -7.814  -2.327 125.654  0.00  0.00    +0.024 A 
ATOM     17  C   LIG A   1      -8.889  -3.163 125.988  0.00  0.00    +0.015 A 
ATOM     18  C   LIG A   1      -9.062  -3.609 127.303  0.00  0.00    +0.046 A 
ATOM     19  C   LIG A   1      -8.163  -3.225 128.297  0.00  0.00    +0.120 A 
ATOM     20  C   LIG A   1      -7.119  -2.357 127.980  0.00  0.00    +0.046 A 
ATOM     21  C   LIG A   1      -6.944  -1.905 126.667  0.00  0.00    +0.015 A 
BRANCH  19  22
ATOM     22  O   LIG A   1      -8.235  -3.610 129.610  0.00  0.00    -0.495 OA
ATOM     23  C   LIG A   1      -7.470  -2.820 130.515  0.00  0.00    +0.277 C 
ENDBRANCH  19  22
ENDBRANCH  15  16
ENDBRANCH   1  15
TORSDOF 3
ENDMDL
MODEL 6
REMARK VINA RESULT:      -7.2      3.268      7.957
REMARK  Name = NuBBE_547
REMARK  4 active torsions:
REMARK  status: ('A' for Active; 'I' for Inactive)
REMARK    1  A    between atoms: C_2  and  C_3
REMARK    2  A    between atoms: C_2  and  C_11
REMARK    3  A    between atoms: C_6  and  O_7
REMARK    4  A    between atoms: O_7  and  C_8
REMARK                            x       y       z     vdW  Elec       q    Type
REMARK                         _______ _______ _______ _____ _____    ______ ____
ROOT
ATOM      1  C   LIG A   1      -8.034  -1.751 124.844  0.00  0.00    +0.119 A 
ATOM      2  N   LIG A   1      -7.530  -2.638 123.934  0.00  0.00    -0.251 NA
ATOM      3  C   LIG A   1      -6.868  -2.141 122.877  0.00  0.00    +0.112 A 
ATOM      4  C   LIG A   1      -6.665  -0.793 122.670  0.00  0.00    +0.028 A 
ATOM      5  C   LIG A   1      -7.189   0.121 123.585  0.00  0.00    -0.011 A 
ATOM      6  C   LIG A   1      -6.982   1.494 123.371  0.00  0.00    +0.058 A 
ATOM      7  C   LIG A   1      -7.513   2.387 124.272  0.00  0.00    +0.167 A 
ATOM      8  O   LIG A   1      -7.400   3.740 124.206  0.00  0.00    -0.453 OA
ATOM      9  C   LIG A   1      -8.132   4.128 125.388  0.00  0.00    +0.466 C 
ATOM     10  O   LIG A   1      -8.676   3.007 126.115  0.00  0.00    -0.453 OA
ATOM     11  C   LIG A   1      -8.234   1.968 125.359  0.00  0.00    +0.167 A 
ATOM     12  C   LIG A   1      -8.450   0.629 125.613  0.00  0.00    +0.060 A 
ATOM     13  C   LIG A   1      -7.921  -0.344 124.719  0.00  0.00    +0.015 A 
ENDROOT
BRANCH   1  15
ATOM     14  O   LIG A   1      -9.912  -2.753 125.907  0.00  0.00    -0.285 OA
ATOM     15  C   LIG A   1      -8.735  -2.411 125.995  0.00  0.00    +0.212 C 
BRANCH  15  16
ATOM     16  C   LIG A   1      -8.007  -2.707 127.266  0.00  0.00    +0.024 A 
ATOM     17  C   LIG A   1      -6.681  -2.269 127.384  0.00  0.00    +0.015 A 
ATOM     18  C   LIG A   1      -5.954  -2.505 128.556  0.00  0.00    +0.046 A 
ATOM     19  C   LIG A   1      -6.545  -3.182 129.622  0.00  0.00    +0.120 A 
ATOM     20  C   LIG A   1      -7.848  -3.662 129.493  0.00  0.00    +0.046 A 
ATOM     21  C   LIG A   1      -8.578  -3.430 128.321  0.00  0.00    +0.015 A 
BRANCH  19  22
ATOM     22  O   LIG A   1      -5.927  -3.458 130.813  0.00  0.00    -0.495 OA
ATOM     23  C   LIG A   1      -5.522  -4.813 130.984  0.00  0.00    +0.277 C 
ENDBRANCH  19  22
ENDBRANCH  15  16
ENDBRANCH   1  15
TORSDOF 3
ENDMDL
MODEL 7
REMARK VINA RESULT:      -7.2     10.315     13.318
REMARK  Name = NuBBE_547
REMARK  4 active torsions:
REMARK  status: ('A' for Active; 'I' for Inactive)
REMARK    1  A    between atoms: C_2  and  C_3
REMARK    2  A    between atoms: C_2  and  C_11
REMARK    3  A    between atoms: C_6  and  O_7
REMARK    4  A    between atoms: O_7  and  C_8
REMARK                            x       y       z     vdW  Elec       q    Type
REMARK                         _______ _______ _______ _____ _____    ______ ____
ROOT
ATOM      1  C   LIG A   1      -7.694   5.611 133.159  0.00  0.00    +0.119 A 
ATOM      2  N   LIG A   1      -6.363   5.759 132.885  0.00  0.00    -0.251 NA
ATOM      3  C   LIG A   1      -6.026   6.410 131.760  0.00  0.00    +0.112 A 
ATOM      4  C   LIG A   1      -6.946   6.939 130.880  0.00  0.00    +0.028 A 
ATOM      5  C   LIG A   1      -8.307   6.779 131.143  0.00  0.00    -0.011 A 
ATOM      6  C   LIG A   1      -9.243   7.318 130.244  0.00  0.00    +0.058 A 
ATOM      7  C   LIG A   1     -10.582   7.143 130.507  0.00  0.00    +0.167 A 
ATOM      8  O   LIG A   1     -11.607   7.602 129.740  0.00  0.00    -0.453 OA
ATOM      9  C   LIG A   1     -12.741   7.132 130.497  0.00  0.00    +0.466 C 
ATOM     10  O   LIG A   1     -12.371   6.393 131.680  0.00  0.00    -0.453 OA
ATOM     11  C   LIG A   1     -11.015   6.460 131.613  0.00  0.00    +0.167 A 
ATOM     12  C   LIG A   1     -10.129   5.926 132.527  0.00  0.00    +0.060 A 
ATOM     13  C   LIG A   1      -8.730   6.078 132.313  0.00  0.00    +0.015 A 
ENDROOT
BRANCH   1  15
ATOM     14  O   LIG A   1      -8.569   3.822 134.462  0.00  0.00    -0.285 OA
ATOM     15  C   LIG A   1      -7.960   4.890 134.448  0.00  0.00    +0.212 C 
BRANCH  15  16
ATOM     16  C   LIG A   1      -7.455   5.432 135.746  0.00  0.00    +0.024 A 
ATOM     17  C   LIG A   1      -8.195   6.446 136.370  0.00  0.00    +0.015 A 
ATOM     18  C   LIG A   1      -7.779   6.982 137.593  0.00  0.00    +0.046 A 
ATOM     19  C   LIG A   1      -6.620   6.509 138.206  0.00  0.00    +0.120 A 
ATOM     20  C   LIG A   1      -5.854   5.535 137.569  0.00  0.00    +0.046 A 
ATOM     21  C   LIG A   1      -6.265   4.998 136.342  0.00  0.00    +0.015 A 
BRANCH  19  22
ATOM     22  O   LIG A   1      -6.128   6.958 139.404  0.00  0.00    -0.495 OA
ATOM     23  C   LIG A   1      -6.851   8.040 139.986  0.00  0.00    +0.277 C 
ENDBRANCH  19  22
ENDBRANCH  15  16
ENDBRANCH   1  15
TORSDOF 3
ENDMDL
MODEL 8
REMARK VINA RESULT:      -7.1      8.768     10.199
REMARK  Name = NuBBE_547
REMARK  4 active torsions:
REMARK  status: ('A' for Active; 'I' for Inactive)
REMARK    1  A    between atoms: C_2  and  C_3
REMARK    2  A    between atoms: C_2  and  C_11
REMARK    3  A    between atoms: C_6  and  O_7
REMARK    4  A    between atoms: O_7  and  C_8
REMARK                            x       y       z     vdW  Elec       q    Type
REMARK                         _______ _______ _______ _____ _____    ______ ____
ROOT
ATOM      1  C   LIG A   1      -8.501   4.953 131.595  0.00  0.00    +0.119 A 
ATOM      2  N   LIG A   1      -9.029   3.692 131.592  0.00  0.00    -0.251 NA
ATOM      3  C   LIG A   1      -8.250   2.689 131.157  0.00  0.00    +0.112 A 
ATOM      4  C   LIG A   1      -6.952   2.864 130.724  0.00  0.00    +0.028 A 
ATOM      5  C   LIG A   1      -6.410   4.150 130.709  0.00  0.00    -0.011 A 
ATOM      6  C   LIG A   1      -5.088   4.326 130.266  0.00  0.00    +0.058 A 
ATOM      7  C   LIG A   1      -4.567   5.599 130.243  0.00  0.00    +0.167 A 
ATOM      8  O   LIG A   1      -3.310   5.934 129.845  0.00  0.00    -0.453 OA
ATOM      9  C   LIG A   1      -3.339   7.363 130.039  0.00  0.00    +0.466 C 
ATOM     10  O   LIG A   1      -4.608   7.847 130.527  0.00  0.00    -0.453 OA
ATOM     11  C   LIG A   1      -5.304   6.685 130.635  0.00  0.00    +0.167 A 
ATOM     12  C   LIG A   1      -6.601   6.555 131.089  0.00  0.00    +0.060 A 
ATOM     13  C   LIG A   1      -7.195   5.262 131.140  0.00  0.00    +0.015 A 
ENDROOT
BRANCH   1  15
ATOM     14  O   LIG A   1      -9.407   6.348 133.297  0.00  0.00    -0.285 OA
ATOM     15  C   LIG A   1      -9.446   5.994 132.121  0.00  0.00    +0.212 C 
BRANCH  15  16
ATOM     16  C   LIG A   1     -10.432   6.658 131.216  0.00  0.00    +0.024 A 
ATOM     17  C   LIG A   1     -11.783   6.643 131.590  0.00  0.00    +0.015 A 
ATOM     18  C   LIG A   1     -12.750   7.261 130.789  0.00  0.00    +0.046 A 
ATOM     19  C   LIG A   1     -12.377   7.899 129.608  0.00  0.00    +0.120 A 
ATOM     20  C   LIG A   1     -11.042   7.877 129.207  0.00  0.00    +0.046 A 
ATOM     21  C   LIG A   1     -10.071   7.258 130.003  0.00  0.00    +0.015 A 
BRANCH  19  22
ATOM     22  O   LIG A   1     -13.240   8.539 128.758  0.00  0.00    -0.495 OA
ATOM     23  C   LIG A   1     -13.379   9.940 128.978  0.00  0.00    +0.277 C 
ENDBRANCH  19  22
ENDBRANCH  15  16
ENDBRANCH   1  15
TORSDOF 3
ENDMDL
MODEL 9
REMARK VINA RESULT:      -7.0      7.379      9.390
REMARK  Name = NuBBE_547
REMARK  4 active torsions:
REMARK  status: ('A' for Active; 'I' for Inactive)
REMARK    1  A    between atoms: C_2  and  C_3
REMARK    2  A    between atoms: C_2  and  C_11
REMARK    3  A    between atoms: C_6  and  O_7
REMARK    4  A    between atoms: O_7  and  C_8
REMARK                            x       y       z     vdW  Elec       q    Type
REMARK                         _______ _______ _______ _____ _____    ______ ____
ROOT
ATOM      1  C   LIG A   1      -9.406   5.406 130.911  0.00  0.00    +0.119 A 
ATOM      2  N   LIG A   1      -9.377   5.844 132.205  0.00  0.00    -0.251 NA
ATOM      3  C   LIG A   1      -8.184   5.894 132.821  0.00  0.00    +0.112 A 
ATOM      4  C   LIG A   1      -6.998   5.536 132.215  0.00  0.00    +0.028 A 
ATOM      5  C   LIG A   1      -7.020   5.073 130.899  0.00  0.00    -0.011 A 
ATOM      6  C   LIG A   1      -5.810   4.707 130.285  0.00  0.00    +0.058 A 
ATOM      7  C   LIG A   1      -5.845   4.240 128.992  0.00  0.00    +0.167 A 
ATOM      8  O   LIG A   1      -4.767   3.849 128.261  0.00  0.00    -0.453 OA
ATOM      9  C   LIG A   1      -5.403   3.476 127.022  0.00  0.00    +0.466 C 
ATOM     10  O   LIG A   1      -6.838   3.633 127.047  0.00  0.00    -0.453 OA
ATOM     11  C   LIG A   1      -7.022   4.122 128.301  0.00  0.00    +0.167 A 
ATOM     12  C   LIG A   1      -8.231   4.481 128.863  0.00  0.00    +0.060 A 
ATOM     13  C   LIG A   1      -8.260   4.977 130.197  0.00  0.00    +0.015 A 
ENDROOT
BRANCH   1  15
ATOM     14  O   LIG A   1     -11.378   4.359 130.086  0.00  0.00    -0.285 OA
ATOM     15  C   LIG A   1     -10.782   5.410 130.311  0.00  0.00    +0.212 C 
BRANCH  15  16
ATOM     16  C   LIG A   1     -11.481   6.696 130.009  0.00  0.00    +0.024 A 
ATOM     17  C   LIG A   1     -11.100   7.399 128.859  0.00  0.00    +0.015 A 
ATOM     18  C   LIG A   1     -11.729   8.602 128.518  0.00  0.00    +0.046 A 
ATOM     19  C   LIG A   1     -12.745   9.113 129.324  0.00  0.00    +0.120 A 
ATOM     20  C   LIG A   1     -13.096   8.443 130.494  0.00  0.00    +0.046 A 
ATOM     21  C   LIG A   1     -12.467   7.241 130.841  0.00  0.00    +0.015 A 
BRANCH  19  22
ATOM     22  O   LIG A   1     -13.429  10.275 129.078  0.00  0.00    -0.495 OA
ATOM     23  C   LIG A   1     -13.515  11.171 130.183  0.00  0.00    +0.277 C 
ENDBRANCH  19  22
ENDBRANCH  15  16
ENDBRANCH   1  15
TORSDOF 3
ENDMDL
