MODEL 1
REMARK VINA RESULT:      -8.7      0.000      0.000
REMARK  Name = NuBBE_1637
REMARK  17 active torsions:
REMARK  status: ('A' for Active; 'I' for Inactive)
REMARK    1  A    between atoms: C_1  and  C_2
REMARK    2  A    between atoms: C_7  and  C_9
REMARK    3  A    between atoms: C_7  and  C_27
REMARK    4  A    between atoms: C_9  and  C_10
REMARK    5  A    between atoms: C_10  and  C_11
REMARK    6  A    between atoms: C_12  and  C_13
REMARK    7  A    between atoms: C_12  and  C_26
REMARK    8  A    between atoms: C_13  and  C_14
REMARK    9  A    between atoms: C_14  and  C_15
REMARK   10  A    between atoms: C_16  and  C_17
REMARK   11  A    between atoms: C_16  and  C_23
REMARK   12  A    between atoms: C_17  and  C_18
REMARK   13  A    between atoms: C_18  and  C_19
REMARK   14  A    between atoms: C_20  and  C_21
REMARK   15  A    between atoms: C_20  and  C_22
REMARK   16  A    between atoms: C_23  and  O_25
REMARK   17  A    between atoms: C_29  and  O_31
REMARK                            x       y       z     vdW  Elec       q    Type
REMARK                         _______ _______ _______ _____ _____    ______ ____
ROOT
ATOM      1  C   LIG A   1      -7.676   1.279 130.167  0.00  0.00    -0.028 C 
ATOM      2  C   LIG A   1      -8.715   1.259 131.018  0.00  0.00    -0.076 C 
ATOM      3  C   LIG A   1      -9.136   0.098 131.812  0.00  0.00    +0.038 C 
ENDROOT
BRANCH   1   4
ATOM      4  C   LIG A   1      -6.630   0.284 129.672  0.00  0.00    +0.031 C 
BRANCH   4   5
ATOM      5  C   LIG A   1      -6.553  -0.253 128.214  0.00  0.00    +0.051 C 
BRANCH   5  12
ATOM      6  C   LIG A   1      -5.565  -2.458 123.792  0.00  0.00    +0.048 C 
ATOM      7  C   LIG A   1      -6.880  -2.627 124.498  0.00  0.00    -0.005 A 
ATOM      8  C   LIG A   1      -7.046  -2.499 125.900  0.00  0.00    +0.128 A 
ATOM      9  C   LIG A   1      -8.291  -2.779 126.493  0.00  0.00    -0.002 A 
ATOM     10  C   LIG A   1      -8.438  -2.775 128.001  0.00  0.00    +0.043 C 
ATOM     11  C   LIG A   1      -7.086  -2.772 128.690  0.00  0.00    +0.052 C 
ATOM     12  C   LIG A   1      -6.119  -1.773 128.022  0.00  0.00    +0.108 C 
ATOM     13  O   LIG A   1      -5.944  -2.103 126.625  0.00  0.00    -0.485 OA
ATOM     14  C   LIG A   1      -4.776  -2.079 128.719  0.00  0.00    +0.056 C 
ATOM     15  C   LIG A   1      -9.387  -3.078 125.647  0.00  0.00    +0.052 A 
ATOM     16  C   LIG A   1      -9.208  -3.200 124.263  0.00  0.00    +0.118 A 
ATOM     17  C   LIG A   1      -7.969  -2.988 123.691  0.00  0.00    +0.052 A 
BRANCH  16  18
ATOM     18  O   LIG A   1     -10.213  -3.552 123.408  0.00  0.00    -0.507 OA
ATOM     19  H   LIG A   1     -10.976  -3.871 123.911  0.00  0.00    +0.292 HD
ENDBRANCH  16  18
ENDBRANCH   5  12
ENDBRANCH   4   5
ENDBRANCH   1   4
BRANCH   2  20
ATOM     20  C   LIG A   1      -9.543   2.558 131.305  0.00  0.00    +0.034 C 
BRANCH  20  21
ATOM     21  C   LIG A   1      -9.395   3.814 130.384  0.00  0.00    +0.032 C 
BRANCH  21  22
ATOM     22  C   LIG A   1     -10.613   4.716 130.440  0.00  0.00    -0.016 C 
ATOM     23  C   LIG A   1     -10.673   5.896 131.045  0.00  0.00    +0.033 C 
BRANCH  23  24
ATOM     24  C   LIG A   1      -9.364   6.335 131.556  0.00  0.00    +0.333 C 
ATOM     25  O   LIG A   1      -8.638   6.317 132.443  0.00  0.00    -0.245 OA
BRANCH  24  26
ATOM     26  O   LIG A   1      -9.070   7.198 130.630  0.00  0.00    -0.477 OA
ATOM     27  H   LIG A   1      -9.971   7.533 130.806  0.00  0.00    +0.295 HD
ENDBRANCH  24  26
ENDBRANCH  23  24
BRANCH  23  28
ATOM     28  C   LIG A   1     -12.016   6.622 131.454  0.00  0.00    +0.046 C 
BRANCH  28  29
ATOM     29  C   LIG A   1     -13.036   7.288 130.396  0.00  0.00    +0.032 C 
BRANCH  29  30
ATOM     30  C   LIG A   1     -12.941   6.928 128.889  0.00  0.00    -0.028 C 
ATOM     31  C   LIG A   1     -12.102   7.390 127.908  0.00  0.00    -0.080 C 
ATOM     32  C   LIG A   1     -10.940   8.403 127.941  0.00  0.00    +0.038 C 
ATOM     33  C   LIG A   1     -12.382   7.077 126.468  0.00  0.00    +0.038 C 
ENDBRANCH  29  30
ENDBRANCH  28  29
ENDBRANCH  23  28
ENDBRANCH  21  22
ENDBRANCH  20  21
ENDBRANCH   2  20
TORSDOF 12
ENDMDL
MODEL 2
REMARK VINA RESULT:      -8.4      4.460      6.186
REMARK  Name = NuBBE_1637
REMARK  17 active torsions:
REMARK  status: ('A' for Active; 'I' for Inactive)
REMARK    1  A    between atoms: C_1  and  C_2
REMARK    2  A    between atoms: C_7  and  C_9
REMARK    3  A    between atoms: C_7  and  C_27
REMARK    4  A    between atoms: C_9  and  C_10
REMARK    5  A    between atoms: C_10  and  C_11
REMARK    6  A    between atoms: C_12  and  C_13
REMARK    7  A    between atoms: C_12  and  C_26
REMARK    8  A    between atoms: C_13  and  C_14
REMARK    9  A    between atoms: C_14  and  C_15
REMARK   10  A    between atoms: C_16  and  C_17
REMARK   11  A    between atoms: C_16  and  C_23
REMARK   12  A    between atoms: C_17  and  C_18
REMARK   13  A    between atoms: C_18  and  C_19
REMARK   14  A    between atoms: C_20  and  C_21
REMARK   15  A    between atoms: C_20  and  C_22
REMARK   16  A    between atoms: C_23  and  O_25
REMARK   17  A    between atoms: C_29  and  O_31
REMARK                            x       y       z     vdW  Elec       q    Type
REMARK                         _______ _______ _______ _____ _____    ______ ____
ROOT
ATOM      1  C   LIG A   1      -4.752   0.971 128.745  0.00  0.00    -0.028 C 
ATOM      2  C   LIG A   1      -5.697   1.388 127.887  0.00  0.00    -0.076 C 
ATOM      3  C   LIG A   1      -7.145   1.251 128.088  0.00  0.00    +0.038 C 
ENDROOT
BRANCH   1   4
ATOM      4  C   LIG A   1      -4.718   0.254 130.091  0.00  0.00    +0.031 C 
BRANCH   4   5
ATOM      5  C   LIG A   1      -5.445  -1.090 130.385  0.00  0.00    +0.051 C 
BRANCH   5  12
ATOM      6  C   LIG A   1      -5.551  -1.374 125.356  0.00  0.00    +0.048 C 
ATOM      7  C   LIG A   1      -6.624  -1.977 126.218  0.00  0.00    -0.005 A 
ATOM      8  C   LIG A   1      -6.420  -2.392 127.558  0.00  0.00    +0.128 A 
ATOM      9  C   LIG A   1      -7.449  -3.045 128.260  0.00  0.00    -0.002 A 
ATOM     10  C   LIG A   1      -7.193  -3.609 129.643  0.00  0.00    +0.043 C 
ATOM     11  C   LIG A   1      -5.709  -3.659 129.955  0.00  0.00    +0.052 C 
ATOM     12  C   LIG A   1      -5.003  -2.357 129.527  0.00  0.00    +0.108 C 
ATOM     13  O   LIG A   1      -5.187  -2.129 128.111  0.00  0.00    -0.485 OA
ATOM     14  C   LIG A   1      -3.510  -2.696 129.729  0.00  0.00    +0.056 C 
ATOM     15  C   LIG A   1      -8.714  -3.174 127.634  0.00  0.00    +0.052 A 
ATOM     16  C   LIG A   1      -8.901  -2.759 126.310  0.00  0.00    +0.118 A 
ATOM     17  C   LIG A   1      -7.868  -2.175 125.601  0.00  0.00    +0.052 A 
BRANCH  16  18
ATOM     18  O   LIG A   1     -10.078  -2.919 125.635  0.00  0.00    -0.507 OA
ATOM     19  H   LIG A   1      -9.900  -3.072 124.696  0.00  0.00    +0.292 HD
ENDBRANCH  16  18
ENDBRANCH   5  12
ENDBRANCH   4   5
ENDBRANCH   1   4
BRANCH   2  20
ATOM     20  C   LIG A   1      -5.310   2.167 126.583  0.00  0.00    +0.034 C 
BRANCH  20  21
ATOM     21  C   LIG A   1      -6.103   3.447 126.157  0.00  0.00    +0.032 C 
BRANCH  21  22
ATOM     22  C   LIG A   1      -6.222   3.576 124.651  0.00  0.00    -0.016 C 
ATOM     23  C   LIG A   1      -7.326   3.371 123.942  0.00  0.00    +0.033 C 
BRANCH  23  24
ATOM     24  C   LIG A   1      -8.505   3.135 124.791  0.00  0.00    +0.333 C 
ATOM     25  O   LIG A   1      -9.246   2.356 125.189  0.00  0.00    -0.245 OA
BRANCH  24  26
ATOM     26  O   LIG A   1      -8.854   4.370 124.992  0.00  0.00    -0.477 OA
ATOM     27  H   LIG A   1      -8.251   4.550 124.244  0.00  0.00    +0.295 HD
ENDBRANCH  24  26
ENDBRANCH  23  24
BRANCH  23  28
ATOM     28  C   LIG A   1      -7.349   3.101 122.386  0.00  0.00    +0.046 C 
BRANCH  28  29
ATOM     29  C   LIG A   1      -6.034   3.111 121.452  0.00  0.00    +0.032 C 
BRANCH  29  30
ATOM     30  C   LIG A   1      -5.755   4.315 120.512  0.00  0.00    -0.028 C 
ATOM     31  C   LIG A   1      -6.462   4.801 119.443  0.00  0.00    -0.080 C 
ATOM     32  C   LIG A   1      -7.793   4.356 118.802  0.00  0.00    +0.038 C 
ATOM     33  C   LIG A   1      -5.846   5.822 118.533  0.00  0.00    +0.038 C 
ENDBRANCH  29  30
ENDBRANCH  28  29
ENDBRANCH  23  28
ENDBRANCH  21  22
ENDBRANCH  20  21
ENDBRANCH   2  20
TORSDOF 12
ENDMDL
MODEL 3
REMARK VINA RESULT:      -8.1      1.455      2.054
REMARK  Name = NuBBE_1637
REMARK  17 active torsions:
REMARK  status: ('A' for Active; 'I' for Inactive)
REMARK    1  A    between atoms: C_1  and  C_2
REMARK    2  A    between atoms: C_7  and  C_9
REMARK    3  A    between atoms: C_7  and  C_27
REMARK    4  A    between atoms: C_9  and  C_10
REMARK    5  A    between atoms: C_10  and  C_11
REMARK    6  A    between atoms: C_12  and  C_13
REMARK    7  A    between atoms: C_12  and  C_26
REMARK    8  A    between atoms: C_13  and  C_14
REMARK    9  A    between atoms: C_14  and  C_15
REMARK   10  A    between atoms: C_16  and  C_17
REMARK   11  A    between atoms: C_16  and  C_23
REMARK   12  A    between atoms: C_17  and  C_18
REMARK   13  A    between atoms: C_18  and  C_19
REMARK   14  A    between atoms: C_20  and  C_21
REMARK   15  A    between atoms: C_20  and  C_22
REMARK   16  A    between atoms: C_23  and  O_25
REMARK   17  A    between atoms: C_29  and  O_31
REMARK                            x       y       z     vdW  Elec       q    Type
REMARK                         _______ _______ _______ _____ _____    ______ ____
ROOT
ATOM      1  C   LIG A   1      -7.766   0.716 130.607  0.00  0.00    -0.028 C 
ATOM      2  C   LIG A   1      -6.926   1.186 131.543  0.00  0.00    -0.076 C 
ATOM      3  C   LIG A   1      -5.542   0.739 131.739  0.00  0.00    +0.038 C 
ENDROOT
BRANCH   1   4
ATOM      4  C   LIG A   1      -7.719  -0.341 129.506  0.00  0.00    +0.031 C 
BRANCH   4   5
ATOM      5  C   LIG A   1      -6.506  -0.565 128.559  0.00  0.00    +0.051 C 
BRANCH   5  12
ATOM      6  C   LIG A   1      -5.484  -2.436 123.994  0.00  0.00    +0.048 C 
ATOM      7  C   LIG A   1      -6.813  -2.639 124.667  0.00  0.00    -0.005 A 
ATOM      8  C   LIG A   1      -6.997  -2.618 126.072  0.00  0.00    +0.128 A 
ATOM      9  C   LIG A   1      -8.254  -2.923 126.625  0.00  0.00    -0.002 A 
ATOM     10  C   LIG A   1      -8.423  -3.033 128.126  0.00  0.00    +0.043 C 
ATOM     11  C   LIG A   1      -7.081  -3.104 128.831  0.00  0.00    +0.052 C 
ATOM     12  C   LIG A   1      -6.090  -2.072 128.256  0.00  0.00    +0.108 C 
ATOM     13  O   LIG A   1      -5.900  -2.295 126.840  0.00  0.00    -0.485 OA
ATOM     14  C   LIG A   1      -4.762  -2.453 128.945  0.00  0.00    +0.056 C 
ATOM     15  C   LIG A   1      -9.342  -3.139 125.743  0.00  0.00    +0.052 A 
ATOM     16  C   LIG A   1      -9.145  -3.156 124.356  0.00  0.00    +0.118 A 
ATOM     17  C   LIG A   1      -7.894  -2.919 123.819  0.00  0.00    +0.052 A 
BRANCH  16  18
ATOM     18  O   LIG A   1     -10.142  -3.425 123.463  0.00  0.00    -0.507 OA
ATOM     19  H   LIG A   1     -10.063  -2.839 122.696  0.00  0.00    +0.292 HD
ENDBRANCH  16  18
ENDBRANCH   5  12
ENDBRANCH   4   5
ENDBRANCH   1   4
BRANCH   2  20
ATOM     20  C   LIG A   1      -7.352   2.363 132.486  0.00  0.00    +0.034 C 
BRANCH  20  21
ATOM     21  C   LIG A   1      -8.865   2.660 132.751  0.00  0.00    +0.032 C 
BRANCH  21  22
ATOM     22  C   LIG A   1      -9.169   4.146 132.748  0.00  0.00    -0.016 C 
ATOM     23  C   LIG A   1      -9.667   4.831 131.726  0.00  0.00    +0.033 C 
BRANCH  23  24
ATOM     24  C   LIG A   1     -10.045   3.965 130.597  0.00  0.00    +0.333 C 
ATOM     25  O   LIG A   1      -9.687   3.443 129.642  0.00  0.00    -0.245 OA
BRANCH  24  26
ATOM     26  O   LIG A   1     -11.334   3.988 130.754  0.00  0.00    -0.477 OA
ATOM     27  H   LIG A   1     -11.137   3.482 131.567  0.00  0.00    +0.295 HD
ENDBRANCH  24  26
ENDBRANCH  23  24
BRANCH  23  28
ATOM     28  C   LIG A   1      -9.590   6.403 131.584  0.00  0.00    +0.046 C 
BRANCH  28  29
ATOM     29  C   LIG A   1      -9.586   7.179 130.169  0.00  0.00    +0.032 C 
BRANCH  29  30
ATOM     30  C   LIG A   1     -10.902   7.335 129.362  0.00  0.00    -0.028 C 
ATOM     31  C   LIG A   1     -12.205   7.431 129.779  0.00  0.00    -0.080 C 
ATOM     32  C   LIG A   1     -12.835   7.447 131.187  0.00  0.00    +0.038 C 
ATOM     33  C   LIG A   1     -13.325   7.312 128.789  0.00  0.00    +0.038 C 
ENDBRANCH  29  30
ENDBRANCH  28  29
ENDBRANCH  23  28
ENDBRANCH  21  22
ENDBRANCH  20  21
ENDBRANCH   2  20
TORSDOF 12
ENDMDL
MODEL 4
REMARK VINA RESULT:      -8.1      4.011      7.865
REMARK  Name = NuBBE_1637
REMARK  17 active torsions:
REMARK  status: ('A' for Active; 'I' for Inactive)
REMARK    1  A    between atoms: C_1  and  C_2
REMARK    2  A    between atoms: C_7  and  C_9
REMARK    3  A    between atoms: C_7  and  C_27
REMARK    4  A    between atoms: C_9  and  C_10
REMARK    5  A    between atoms: C_10  and  C_11
REMARK    6  A    between atoms: C_12  and  C_13
REMARK    7  A    between atoms: C_12  and  C_26
REMARK    8  A    between atoms: C_13  and  C_14
REMARK    9  A    between atoms: C_14  and  C_15
REMARK   10  A    between atoms: C_16  and  C_17
REMARK   11  A    between atoms: C_16  and  C_23
REMARK   12  A    between atoms: C_17  and  C_18
REMARK   13  A    between atoms: C_18  and  C_19
REMARK   14  A    between atoms: C_20  and  C_21
REMARK   15  A    between atoms: C_20  and  C_22
REMARK   16  A    between atoms: C_23  and  O_25
REMARK   17  A    between atoms: C_29  and  O_31
REMARK                            x       y       z     vdW  Elec       q    Type
REMARK                         _______ _______ _______ _____ _____    ______ ____
ROOT
ATOM      1  C   LIG A   1      -5.915  -1.712 125.840  0.00  0.00    -0.028 C 
ATOM      2  C   LIG A   1      -5.930  -2.294 124.630  0.00  0.00    -0.076 C 
ATOM      3  C   LIG A   1      -5.218  -3.526 124.274  0.00  0.00    +0.038 C 
ENDROOT
BRANCH   1   4
ATOM      4  C   LIG A   1      -5.250  -1.977 127.188  0.00  0.00    +0.031 C 
BRANCH   4   5
ATOM      5  C   LIG A   1      -5.970  -2.622 128.407  0.00  0.00    +0.051 C 
BRANCH   5  12
ATOM      6  C   LIG A   1      -8.502   1.502 127.005  0.00  0.00    +0.048 C 
ATOM      7  C   LIG A   1      -8.168   1.213 128.441  0.00  0.00    -0.005 A 
ATOM      8  C   LIG A   1      -7.952  -0.090 128.955  0.00  0.00    +0.128 A 
ATOM      9  C   LIG A   1      -7.749  -0.281 130.334  0.00  0.00    -0.002 A 
ATOM     10  C   LIG A   1      -7.652  -1.680 130.906  0.00  0.00    +0.043 C 
ATOM     11  C   LIG A   1      -8.116  -2.722 129.905  0.00  0.00    +0.052 C 
ATOM     12  C   LIG A   1      -7.550  -2.438 128.498  0.00  0.00    +0.108 C 
ATOM     13  O   LIG A   1      -7.958  -1.126 128.049  0.00  0.00    -0.485 OA
ATOM     14  C   LIG A   1      -8.299  -3.460 127.616  0.00  0.00    +0.056 C 
ATOM     15  C   LIG A   1      -7.658   0.863 131.165  0.00  0.00    +0.052 A 
ATOM     16  C   LIG A   1      -7.873   2.145 130.643  0.00  0.00    +0.118 A 
ATOM     17  C   LIG A   1      -8.136   2.323 129.298  0.00  0.00    +0.052 A 
BRANCH  16  18
ATOM     18  O   LIG A   1      -7.864   3.275 131.409  0.00  0.00    -0.507 OA
ATOM     19  H   LIG A   1      -8.614   3.264 132.021  0.00  0.00    +0.292 HD
ENDBRANCH  16  18
ENDBRANCH   5  12
ENDBRANCH   4   5
ENDBRANCH   1   4
BRANCH   2  20
ATOM     20  C   LIG A   1      -6.820  -1.720 123.475  0.00  0.00    +0.034 C 
BRANCH  20  21
ATOM     21  C   LIG A   1      -8.096  -0.874 123.800  0.00  0.00    +0.032 C 
BRANCH  21  22
ATOM     22  C   LIG A   1      -7.886   0.606 123.545  0.00  0.00    -0.016 C 
ATOM     23  C   LIG A   1      -8.815   1.457 123.127  0.00  0.00    +0.033 C 
BRANCH  23  24
ATOM     24  C   LIG A   1     -10.152   0.846 123.062  0.00  0.00    +0.333 C 
ATOM     25  O   LIG A   1     -10.866   0.191 122.450  0.00  0.00    -0.245 OA
BRANCH  24  26
ATOM     26  O   LIG A   1     -10.709   1.486 124.046  0.00  0.00    -0.477 OA
ATOM     27  H   LIG A   1     -11.499   0.966 123.796  0.00  0.00    +0.295 HD
ENDBRANCH  24  26
ENDBRANCH  23  24
BRANCH  23  28
ATOM     28  C   LIG A   1      -8.507   2.864 122.477  0.00  0.00    +0.046 C 
BRANCH  28  29
ATOM     29  C   LIG A   1      -7.018   3.412 122.183  0.00  0.00    +0.032 C 
BRANCH  29  30
ATOM     30  C   LIG A   1      -6.663   3.993 120.787  0.00  0.00    -0.028 C 
ATOM     31  C   LIG A   1      -5.607   4.767 120.380  0.00  0.00    -0.080 C 
ATOM     32  C   LIG A   1      -4.383   5.319 121.140  0.00  0.00    +0.038 C 
ATOM     33  C   LIG A   1      -5.626   5.419 119.030  0.00  0.00    +0.038 C 
ENDBRANCH  29  30
ENDBRANCH  28  29
ENDBRANCH  23  28
ENDBRANCH  21  22
ENDBRANCH  20  21
ENDBRANCH   2  20
TORSDOF 12
ENDMDL
MODEL 5
REMARK VINA RESULT:      -8.1      3.982      6.904
REMARK  Name = NuBBE_1637
REMARK  17 active torsions:
REMARK  status: ('A' for Active; 'I' for Inactive)
REMARK    1  A    between atoms: C_1  and  C_2
REMARK    2  A    between atoms: C_7  and  C_9
REMARK    3  A    between atoms: C_7  and  C_27
REMARK    4  A    between atoms: C_9  and  C_10
REMARK    5  A    between atoms: C_10  and  C_11
REMARK    6  A    between atoms: C_12  and  C_13
REMARK    7  A    between atoms: C_12  and  C_26
REMARK    8  A    between atoms: C_13  and  C_14
REMARK    9  A    between atoms: C_14  and  C_15
REMARK   10  A    between atoms: C_16  and  C_17
REMARK   11  A    between atoms: C_16  and  C_23
REMARK   12  A    between atoms: C_17  and  C_18
REMARK   13  A    between atoms: C_18  and  C_19
REMARK   14  A    between atoms: C_20  and  C_21
REMARK   15  A    between atoms: C_20  and  C_22
REMARK   16  A    between atoms: C_23  and  O_25
REMARK   17  A    between atoms: C_29  and  O_31
REMARK                            x       y       z     vdW  Elec       q    Type
REMARK                         _______ _______ _______ _____ _____    ______ ____
ROOT
ATOM      1  C   LIG A   1      -7.123   1.835 123.520  0.00  0.00    -0.028 C 
ATOM      2  C   LIG A   1      -6.828   2.941 122.818  0.00  0.00    -0.076 C 
ATOM      3  C   LIG A   1      -7.532   3.391 121.611  0.00  0.00    +0.038 C 
ENDROOT
BRANCH   1   4
ATOM      4  C   LIG A   1      -8.128   0.692 123.414  0.00  0.00    +0.031 C 
BRANCH   4   5
ATOM      5  C   LIG A   1      -8.464  -0.289 124.575  0.00  0.00    +0.051 C 
BRANCH   5  12
ATOM      6  C   LIG A   1      -9.047  -3.903 128.037  0.00  0.00    +0.048 C 
ATOM      7  C   LIG A   1      -7.785  -3.096 127.922  0.00  0.00    -0.005 A 
ATOM      8  C   LIG A   1      -7.350  -2.476 126.724  0.00  0.00    +0.128 A 
ATOM      9  C   LIG A   1      -6.103  -1.828 126.675  0.00  0.00    -0.002 A 
ATOM     10  C   LIG A   1      -5.575  -1.282 125.365  0.00  0.00    +0.043 C 
ATOM     11  C   LIG A   1      -6.369  -1.809 124.184  0.00  0.00    +0.052 C 
ATOM     12  C   LIG A   1      -7.885  -1.769 124.465  0.00  0.00    +0.108 C 
ATOM     13  O   LIG A   1      -8.198  -2.549 125.641  0.00  0.00    -0.485 OA
ATOM     14  C   LIG A   1      -8.477  -2.530 123.259  0.00  0.00    +0.056 C 
ATOM     15  C   LIG A   1      -5.354  -1.720 127.873  0.00  0.00    +0.052 A 
ATOM     16  C   LIG A   1      -5.796  -2.338 129.050  0.00  0.00    +0.118 A 
ATOM     17  C   LIG A   1      -6.993  -3.028 129.077  0.00  0.00    +0.052 A 
BRANCH  16  18
ATOM     18  O   LIG A   1      -5.084  -2.322 130.215  0.00  0.00    -0.507 OA
ATOM     19  H   LIG A   1      -4.241  -1.865 130.079  0.00  0.00    +0.292 HD
ENDBRANCH  16  18
ENDBRANCH   5  12
ENDBRANCH   4   5
ENDBRANCH   1   4
BRANCH   2  20
ATOM     20  C   LIG A   1      -5.713   3.928 123.307  0.00  0.00    +0.034 C 
BRANCH  20  21
ATOM     21  C   LIG A   1      -5.992   4.924 124.481  0.00  0.00    +0.032 C 
BRANCH  21  22
ATOM     22  C   LIG A   1      -5.700   4.311 125.837  0.00  0.00    -0.016 C 
ATOM     23  C   LIG A   1      -6.596   4.079 126.789  0.00  0.00    +0.033 C 
BRANCH  23  24
ATOM     24  C   LIG A   1      -7.974   4.348 126.345  0.00  0.00    +0.333 C 
ATOM     25  O   LIG A   1      -8.715   4.297 125.472  0.00  0.00    -0.245 OA
BRANCH  24  26
ATOM     26  O   LIG A   1      -8.371   5.060 127.355  0.00  0.00    -0.477 OA
ATOM     27  H   LIG A   1      -8.580   4.190 127.749  0.00  0.00    +0.295 HD
ENDBRANCH  24  26
ENDBRANCH  23  24
BRANCH  23  28
ATOM     28  C   LIG A   1      -6.240   3.840 128.310  0.00  0.00    +0.046 C 
BRANCH  28  29
ATOM     29  C   LIG A   1      -5.131   2.784 128.818  0.00  0.00    +0.032 C 
BRANCH  29  30
ATOM     30  C   LIG A   1      -3.827   2.571 128.004  0.00  0.00    -0.028 C 
ATOM     31  C   LIG A   1      -2.814   3.440 127.690  0.00  0.00    -0.080 C 
ATOM     32  C   LIG A   1      -2.584   4.923 128.046  0.00  0.00    +0.038 C 
ATOM     33  C   LIG A   1      -1.785   3.061 126.667  0.00  0.00    +0.038 C 
ENDBRANCH  29  30
ENDBRANCH  28  29
ENDBRANCH  23  28
ENDBRANCH  21  22
ENDBRANCH  20  21
ENDBRANCH   2  20
TORSDOF 12
ENDMDL
MODEL 6
REMARK VINA RESULT:      -8.1      3.698      5.882
REMARK  Name = NuBBE_1637
REMARK  17 active torsions:
REMARK  status: ('A' for Active; 'I' for Inactive)
REMARK    1  A    between atoms: C_1  and  C_2
REMARK    2  A    between atoms: C_7  and  C_9
REMARK    3  A    between atoms: C_7  and  C_27
REMARK    4  A    between atoms: C_9  and  C_10
REMARK    5  A    between atoms: C_10  and  C_11
REMARK    6  A    between atoms: C_12  and  C_13
REMARK    7  A    between atoms: C_12  and  C_26
REMARK    8  A    between atoms: C_13  and  C_14
REMARK    9  A    between atoms: C_14  and  C_15
REMARK   10  A    between atoms: C_16  and  C_17
REMARK   11  A    between atoms: C_16  and  C_23
REMARK   12  A    between atoms: C_17  and  C_18
REMARK   13  A    between atoms: C_18  and  C_19
REMARK   14  A    between atoms: C_20  and  C_21
REMARK   15  A    between atoms: C_20  and  C_22
REMARK   16  A    between atoms: C_23  and  O_25
REMARK   17  A    between atoms: C_29  and  O_31
REMARK                            x       y       z     vdW  Elec       q    Type
REMARK                         _______ _______ _______ _____ _____    ______ ____
ROOT
ATOM      1  C   LIG A   1      -8.632  -3.423 128.217  0.00  0.00    -0.028 C 
ATOM      2  C   LIG A   1      -7.563  -2.945 128.872  0.00  0.00    -0.076 C 
ATOM      3  C   LIG A   1      -6.322  -2.478 128.242  0.00  0.00    +0.038 C 
ENDROOT
BRANCH   1   4
ATOM      4  C   LIG A   1      -9.009  -3.697 126.763  0.00  0.00    +0.031 C 
BRANCH   4   5
ATOM      5  C   LIG A   1      -9.217  -2.590 125.690  0.00  0.00    +0.051 C 
BRANCH   5  12
ATOM      6  C   LIG A   1      -5.403   0.691 125.962  0.00  0.00    +0.048 C 
ATOM      7  C   LIG A   1      -6.629   0.951 125.133  0.00  0.00    -0.005 A 
ATOM      8  C   LIG A   1      -7.453  -0.072 124.600  0.00  0.00    +0.128 A 
ATOM      9  C   LIG A   1      -8.522   0.255 123.746  0.00  0.00    -0.002 A 
ATOM     10  C   LIG A   1      -9.321  -0.839 123.067  0.00  0.00    +0.043 C 
ATOM     11  C   LIG A   1      -8.623  -2.182 123.173  0.00  0.00    +0.052 C 
ATOM     12  C   LIG A   1      -8.074  -2.418 124.594  0.00  0.00    +0.108 C 
ATOM     13  O   LIG A   1      -7.148  -1.367 124.955  0.00  0.00    -0.485 OA
ATOM     14  C   LIG A   1      -7.237  -3.705 124.429  0.00  0.00    +0.056 C 
ATOM     15  C   LIG A   1      -8.814   1.624 123.527  0.00  0.00    +0.052 A 
ATOM     16  C   LIG A   1      -7.991   2.624 124.061  0.00  0.00    +0.118 A 
ATOM     17  C   LIG A   1      -6.903   2.296 124.848  0.00  0.00    +0.052 A 
BRANCH  16  18
ATOM     18  O   LIG A   1      -8.185   3.955 123.828  0.00  0.00    -0.507 OA
ATOM     19  H   LIG A   1      -7.642   4.241 123.079  0.00  0.00    +0.292 HD
ENDBRANCH  16  18
ENDBRANCH   5  12
ENDBRANCH   4   5
ENDBRANCH   1   4
BRANCH   2  20
ATOM     20  C   LIG A   1      -7.591  -2.760 130.428  0.00  0.00    +0.034 C 
BRANCH  20  21
ATOM     21  C   LIG A   1      -7.130  -1.413 131.077  0.00  0.00    +0.032 C 
BRANCH  21  22
ATOM     22  C   LIG A   1      -8.262  -0.410 131.186  0.00  0.00    -0.016 C 
ATOM     23  C   LIG A   1      -8.349   0.733 130.516  0.00  0.00    +0.033 C 
BRANCH  23  24
ATOM     24  C   LIG A   1      -7.281   0.882 129.514  0.00  0.00    +0.333 C 
ATOM     25  O   LIG A   1      -6.213   1.248 129.315  0.00  0.00    -0.245 OA
BRANCH  24  26
ATOM     26  O   LIG A   1      -7.971   0.612 128.448  0.00  0.00    -0.477 OA
ATOM     27  H   LIG A   1      -7.093   0.560 128.022  0.00  0.00    +0.295 HD
ENDBRANCH  24  26
ENDBRANCH  23  24
BRANCH  23  28
ATOM     28  C   LIG A   1      -9.284   1.939 130.927  0.00  0.00    +0.046 C 
BRANCH  28  29
ATOM     29  C   LIG A   1      -9.838   2.177 132.423  0.00  0.00    +0.032 C 
BRANCH  29  30
ATOM     30  C   LIG A   1      -9.193   3.260 133.330  0.00  0.00    -0.028 C 
ATOM     31  C   LIG A   1      -7.910   3.394 133.794  0.00  0.00    -0.080 C 
ATOM     32  C   LIG A   1      -6.642   2.545 133.569  0.00  0.00    +0.038 C 
ATOM     33  C   LIG A   1      -7.598   4.388 134.872  0.00  0.00    +0.038 C 
ENDBRANCH  29  30
ENDBRANCH  28  29
ENDBRANCH  23  28
ENDBRANCH  21  22
ENDBRANCH  20  21
ENDBRANCH   2  20
TORSDOF 12
ENDMDL
MODEL 7
REMARK VINA RESULT:      -8.0      2.727      4.218
REMARK  Name = NuBBE_1637
REMARK  17 active torsions:
REMARK  status: ('A' for Active; 'I' for Inactive)
REMARK    1  A    between atoms: C_1  and  C_2
REMARK    2  A    between atoms: C_7  and  C_9
REMARK    3  A    between atoms: C_7  and  C_27
REMARK    4  A    between atoms: C_9  and  C_10
REMARK    5  A    between atoms: C_10  and  C_11
REMARK    6  A    between atoms: C_12  and  C_13
REMARK    7  A    between atoms: C_12  and  C_26
REMARK    8  A    between atoms: C_13  and  C_14
REMARK    9  A    between atoms: C_14  and  C_15
REMARK   10  A    between atoms: C_16  and  C_17
REMARK   11  A    between atoms: C_16  and  C_23
REMARK   12  A    between atoms: C_17  and  C_18
REMARK   13  A    between atoms: C_18  and  C_19
REMARK   14  A    between atoms: C_20  and  C_21
REMARK   15  A    between atoms: C_20  and  C_22
REMARK   16  A    between atoms: C_23  and  O_25
REMARK   17  A    between atoms: C_29  and  O_31
REMARK                            x       y       z     vdW  Elec       q    Type
REMARK                         _______ _______ _______ _____ _____    ______ ____
ROOT
ATOM      1  C   LIG A   1      -7.812  -1.250 127.767  0.00  0.00    -0.028 C 
ATOM      2  C   LIG A   1      -7.745  -1.005 129.085  0.00  0.00    -0.076 C 
ATOM      3  C   LIG A   1      -7.723  -2.029 130.137  0.00  0.00    +0.038 C 
ENDROOT
BRANCH   1   4
ATOM      4  C   LIG A   1      -7.909  -2.483 126.873  0.00  0.00    +0.031 C 
BRANCH   4   5
ATOM      5  C   LIG A   1      -8.442  -2.465 125.411  0.00  0.00    +0.051 C 
BRANCH   5  12
ATOM      6  C   LIG A   1      -5.274   1.387 126.128  0.00  0.00    +0.048 C 
ATOM      7  C   LIG A   1      -6.619   1.562 125.480  0.00  0.00    -0.005 A 
ATOM      8  C   LIG A   1      -7.304   0.529 124.793  0.00  0.00    +0.128 A 
ATOM      9  C   LIG A   1      -8.510   0.805 124.123  0.00  0.00    -0.002 A 
ATOM     10  C   LIG A   1      -9.176  -0.260 123.277  0.00  0.00    +0.043 C 
ATOM     11  C   LIG A   1      -8.241  -1.426 123.016  0.00  0.00    +0.052 C 
ATOM     12  C   LIG A   1      -7.490  -1.839 124.298  0.00  0.00    +0.108 C 
ATOM     13  O   LIG A   1      -6.731  -0.723 124.816  0.00  0.00    -0.485 OA
ATOM     14  C   LIG A   1      -6.463  -2.867 123.777  0.00  0.00    +0.056 C 
ATOM     15  C   LIG A   1      -9.068   2.102 124.248  0.00  0.00    +0.052 A 
ATOM     16  C   LIG A   1      -8.378   3.113 124.930  0.00  0.00    +0.118 A 
ATOM     17  C   LIG A   1      -7.162   2.854 125.533  0.00  0.00    +0.052 A 
BRANCH  16  18
ATOM     18  O   LIG A   1      -8.836   4.396 125.025  0.00  0.00    -0.507 OA
ATOM     19  H   LIG A   1      -9.681   4.479 124.561  0.00  0.00    +0.292 HD
ENDBRANCH  16  18
ENDBRANCH   5  12
ENDBRANCH   4   5
ENDBRANCH   1   4
BRANCH   2  20
ATOM     20  C   LIG A   1      -7.594   0.459 129.624  0.00  0.00    +0.034 C 
BRANCH  20  21
ATOM     21  C   LIG A   1      -8.255   1.657 128.865  0.00  0.00    +0.032 C 
BRANCH  21  22
ATOM     22  C   LIG A   1      -8.938   2.629 129.807  0.00  0.00    -0.016 C 
ATOM     23  C   LIG A   1      -8.699   3.933 129.879  0.00  0.00    +0.033 C 
BRANCH  23  24
ATOM     24  C   LIG A   1      -7.779   4.396 128.828  0.00  0.00    +0.333 C 
ATOM     25  O   LIG A   1      -6.684   4.578 128.539  0.00  0.00    -0.245 OA
BRANCH  24  26
ATOM     26  O   LIG A   1      -8.649   4.927 128.023  0.00  0.00    -0.477 OA
ATOM     27  H   LIG A   1      -8.407   5.756 128.481  0.00  0.00    +0.295 HD
ENDBRANCH  24  26
ENDBRANCH  23  24
BRANCH  23  28
ATOM     28  C   LIG A   1      -9.090   4.845 131.109  0.00  0.00    +0.046 C 
BRANCH  28  29
ATOM     29  C   LIG A   1     -10.285   5.929 131.080  0.00  0.00    +0.032 C 
BRANCH  29  30
ATOM     30  C   LIG A   1     -10.238   7.113 130.077  0.00  0.00    -0.028 C 
ATOM     31  C   LIG A   1     -11.095   7.469 129.068  0.00  0.00    -0.080 C 
ATOM     32  C   LIG A   1     -12.420   6.850 128.578  0.00  0.00    +0.038 C 
ATOM     33  C   LIG A   1     -10.691   8.511 128.068  0.00  0.00    +0.038 C 
ENDBRANCH  29  30
ENDBRANCH  28  29
ENDBRANCH  23  28
ENDBRANCH  21  22
ENDBRANCH  20  21
ENDBRANCH   2  20
TORSDOF 12
ENDMDL
MODEL 8
REMARK VINA RESULT:      -8.0      3.585      5.322
REMARK  Name = NuBBE_1637
REMARK  17 active torsions:
REMARK  status: ('A' for Active; 'I' for Inactive)
REMARK    1  A    between atoms: C_1  and  C_2
REMARK    2  A    between atoms: C_7  and  C_9
REMARK    3  A    between atoms: C_7  and  C_27
REMARK    4  A    between atoms: C_9  and  C_10
REMARK    5  A    between atoms: C_10  and  C_11
REMARK    6  A    between atoms: C_12  and  C_13
REMARK    7  A    between atoms: C_12  and  C_26
REMARK    8  A    between atoms: C_13  and  C_14
REMARK    9  A    between atoms: C_14  and  C_15
REMARK   10  A    between atoms: C_16  and  C_17
REMARK   11  A    between atoms: C_16  and  C_23
REMARK   12  A    between atoms: C_17  and  C_18
REMARK   13  A    between atoms: C_18  and  C_19
REMARK   14  A    between atoms: C_20  and  C_21
REMARK   15  A    between atoms: C_20  and  C_22
REMARK   16  A    between atoms: C_23  and  O_25
REMARK   17  A    between atoms: C_29  and  O_31
REMARK                            x       y       z     vdW  Elec       q    Type
REMARK                         _______ _______ _______ _____ _____    ______ ____
ROOT
ATOM      1  C   LIG A   1      -5.455   4.871 130.781  0.00  0.00    -0.028 C 
ATOM      2  C   LIG A   1      -5.563   6.150 131.175  0.00  0.00    -0.076 C 
ATOM      3  C   LIG A   1      -4.440   7.074 131.373  0.00  0.00    +0.038 C 
ENDROOT
BRANCH   1   4
ATOM      4  C   LIG A   1      -4.320   3.911 130.437  0.00  0.00    +0.031 C 
BRANCH   4   5
ATOM      5  C   LIG A   1      -3.125   4.266 129.506  0.00  0.00    +0.051 C 
BRANCH   5  12
ATOM      6  C   LIG A   1      -7.704   4.250 127.402  0.00  0.00    +0.048 C 
ATOM      7  C   LIG A   1      -6.655   3.233 127.051  0.00  0.00    -0.005 A 
ATOM      8  C   LIG A   1      -5.261   3.461 127.175  0.00  0.00    +0.128 A 
ATOM      9  C   LIG A   1      -4.344   2.495 126.724  0.00  0.00    -0.002 A 
ATOM     10  C   LIG A   1      -2.858   2.790 126.730  0.00  0.00    +0.043 C 
ATOM     11  C   LIG A   1      -2.586   4.267 126.944  0.00  0.00    +0.052 C 
ATOM     12  C   LIG A   1      -3.476   4.844 128.063  0.00  0.00    +0.108 C 
ATOM     13  O   LIG A   1      -4.873   4.655 127.742  0.00  0.00    -0.485 OA
ATOM     14  C   LIG A   1      -3.203   6.361 127.970  0.00  0.00    +0.056 C 
ATOM     15  C   LIG A   1      -4.848   1.258 126.252  0.00  0.00    +0.052 A 
ATOM     16  C   LIG A   1      -6.228   1.046 126.136  0.00  0.00    +0.118 A 
ATOM     17  C   LIG A   1      -7.126   2.024 126.521  0.00  0.00    +0.052 A 
BRANCH  16  18
ATOM     18  O   LIG A   1      -6.768  -0.100 125.626  0.00  0.00    -0.507 OA
ATOM     19  H   LIG A   1      -6.109  -0.562 125.087  0.00  0.00    +0.292 HD
ENDBRANCH  16  18
ENDBRANCH   5  12
ENDBRANCH   4   5
ENDBRANCH   1   4
BRANCH   2  20
ATOM     20  C   LIG A   1      -6.970   6.811 131.381  0.00  0.00    +0.034 C 
BRANCH  20  21
ATOM     21  C   LIG A   1      -8.200   6.338 130.537  0.00  0.00    +0.032 C 
BRANCH  21  22
ATOM     22  C   LIG A   1      -9.519   6.734 131.172  0.00  0.00    -0.016 C 
ATOM     23  C   LIG A   1     -10.614   5.984 131.211  0.00  0.00    +0.033 C 
BRANCH  23  24
ATOM     24  C   LIG A   1     -10.387   4.627 130.687  0.00  0.00    +0.333 C 
ATOM     25  O   LIG A   1     -10.396   3.957 129.758  0.00  0.00    -0.245 OA
BRANCH  24  26
ATOM     26  O   LIG A   1     -10.304   3.992 131.816  0.00  0.00    -0.477 OA
ATOM     27  H   LIG A   1     -10.593   3.225 131.284  0.00  0.00    +0.295 HD
ENDBRANCH  24  26
ENDBRANCH  23  24
BRANCH  23  28
ATOM     28  C   LIG A   1     -12.067   6.541 131.488  0.00  0.00    +0.046 C 
BRANCH  28  29
ATOM     29  C   LIG A   1     -12.947   7.339 130.397  0.00  0.00    +0.032 C 
BRANCH  29  30
ATOM     30  C   LIG A   1     -12.845   6.971 128.893  0.00  0.00    -0.028 C 
ATOM     31  C   LIG A   1     -11.964   7.384 127.926  0.00  0.00    -0.080 C 
ATOM     32  C   LIG A   1     -10.749   8.332 127.980  0.00  0.00    +0.038 C 
ATOM     33  C   LIG A   1     -12.234   7.084 126.482  0.00  0.00    +0.038 C 
ENDBRANCH  29  30
ENDBRANCH  28  29
ENDBRANCH  23  28
ENDBRANCH  21  22
ENDBRANCH  20  21
ENDBRANCH   2  20
TORSDOF 12
ENDMDL
MODEL 9
REMARK VINA RESULT:      -8.0      4.819      5.506
REMARK  Name = NuBBE_1637
REMARK  17 active torsions:
REMARK  status: ('A' for Active; 'I' for Inactive)
REMARK    1  A    between atoms: C_1  and  C_2
REMARK    2  A    between atoms: C_7  and  C_9
REMARK    3  A    between atoms: C_7  and  C_27
REMARK    4  A    between atoms: C_9  and  C_10
REMARK    5  A    between atoms: C_10  and  C_11
REMARK    6  A    between atoms: C_12  and  C_13
REMARK    7  A    between atoms: C_12  and  C_26
REMARK    8  A    between atoms: C_13  and  C_14
REMARK    9  A    between atoms: C_14  and  C_15
REMARK   10  A    between atoms: C_16  and  C_17
REMARK   11  A    between atoms: C_16  and  C_23
REMARK   12  A    between atoms: C_17  and  C_18
REMARK   13  A    between atoms: C_18  and  C_19
REMARK   14  A    between atoms: C_20  and  C_21
REMARK   15  A    between atoms: C_20  and  C_22
REMARK   16  A    between atoms: C_23  and  O_25
REMARK   17  A    between atoms: C_29  and  O_31
REMARK                            x       y       z     vdW  Elec       q    Type
REMARK                         _______ _______ _______ _____ _____    ______ ____
ROOT
ATOM      1  C   LIG A   1      -5.091   1.691 129.327  0.00  0.00    -0.028 C 
ATOM      2  C   LIG A   1      -4.648   2.607 130.204  0.00  0.00    -0.076 C 
ATOM      3  C   LIG A   1      -3.936   2.309 131.452  0.00  0.00    +0.038 C 
ENDROOT
BRANCH   1   4
ATOM      4  C   LIG A   1      -5.099   0.169 129.226  0.00  0.00    +0.031 C 
BRANCH   4   5
ATOM      5  C   LIG A   1      -6.223  -0.657 128.535  0.00  0.00    +0.051 C 
BRANCH   5  12
ATOM      6  C   LIG A   1      -5.422  -2.542 123.931  0.00  0.00    +0.048 C 
ATOM      7  C   LIG A   1      -6.744  -2.672 124.634  0.00  0.00    -0.005 A 
ATOM      8  C   LIG A   1      -6.894  -2.653 126.044  0.00  0.00    +0.128 A 
ATOM      9  C   LIG A   1      -8.153  -2.888 126.624  0.00  0.00    -0.002 A 
ATOM     10  C   LIG A   1      -8.294  -3.002 128.128  0.00  0.00    +0.043 C 
ATOM     11  C   LIG A   1      -6.943  -3.160 128.800  0.00  0.00    +0.052 C 
ATOM     12  C   LIG A   1      -5.906  -2.184 128.209  0.00  0.00    +0.108 C 
ATOM     13  O   LIG A   1      -5.762  -2.404 126.788  0.00  0.00    -0.485 OA
ATOM     14  C   LIG A   1      -4.587  -2.649 128.864  0.00  0.00    +0.056 C 
ATOM     15  C   LIG A   1      -9.273  -3.030 125.766  0.00  0.00    +0.052 A 
ATOM     16  C   LIG A   1      -9.109  -3.046 124.375  0.00  0.00    +0.118 A 
ATOM     17  C   LIG A   1      -7.859  -2.879 123.810  0.00  0.00    +0.052 A 
BRANCH  16  18
ATOM     18  O   LIG A   1     -10.141  -3.246 123.504  0.00  0.00    -0.507 OA
ATOM     19  H   LIG A   1      -9.875  -2.980 122.612  0.00  0.00    +0.292 HD
ENDBRANCH  16  18
ENDBRANCH   5  12
ENDBRANCH   4   5
ENDBRANCH   1   4
BRANCH   2  20
ATOM     20  C   LIG A   1      -4.790   4.139 129.905  0.00  0.00    +0.034 C 
BRANCH  20  21
ATOM     21  C   LIG A   1      -4.095   4.772 128.654  0.00  0.00    +0.032 C 
BRANCH  21  22
ATOM     22  C   LIG A   1      -4.863   4.508 127.373  0.00  0.00    -0.016 C 
ATOM     23  C   LIG A   1      -4.389   3.881 126.304  0.00  0.00    +0.033 C 
BRANCH  23  24
ATOM     24  C   LIG A   1      -3.048   3.317 126.528  0.00  0.00    +0.333 C 
ATOM     25  O   LIG A   1      -1.924   3.535 126.575  0.00  0.00    -0.245 OA
BRANCH  24  26
ATOM     26  O   LIG A   1      -3.356   2.056 126.495  0.00  0.00    -0.477 OA
ATOM     27  H   LIG A   1      -3.443   2.212 125.534  0.00  0.00    +0.295 HD
ENDBRANCH  24  26
ENDBRANCH  23  24
BRANCH  23  28
ATOM     28  C   LIG A   1      -5.026   3.974 124.860  0.00  0.00    +0.046 C 
BRANCH  28  29
ATOM     29  C   LIG A   1      -6.201   3.004 124.331  0.00  0.00    +0.032 C 
BRANCH  29  30
ATOM     30  C   LIG A   1      -7.007   2.138 125.336  0.00  0.00    -0.028 C 
ATOM     31  C   LIG A   1      -7.983   1.197 125.128  0.00  0.00    -0.080 C 
ATOM     32  C   LIG A   1      -8.615   0.639 123.836  0.00  0.00    +0.038 C 
ATOM     33  C   LIG A   1      -8.795   0.685 126.280  0.00  0.00    +0.038 C 
ENDBRANCH  29  30
ENDBRANCH  28  29
ENDBRANCH  23  28
ENDBRANCH  21  22
ENDBRANCH  20  21
ENDBRANCH   2  20
TORSDOF 12
ENDMDL
