MODEL 1
REMARK VINA RESULT:      -6.8      0.000      0.000
REMARK  Name = NuBBE_1884
REMARK  17 active torsions:
REMARK  status: ('A' for Active; 'I' for Inactive)
REMARK    1  A    between atoms: C_4  and  O_32
REMARK    2  A    between atoms: C_5  and  O_6
REMARK    3  A    between atoms: O_6  and  C_7
REMARK    4  A    between atoms: C_8  and  O_30
REMARK    5  A    between atoms: C_12  and  C_13
REMARK    6  A    between atoms: C_15  and  O_16
REMARK    7  A    between atoms: O_16  and  C_17
REMARK    8  A    between atoms: C_17  and  C_18
REMARK    9  A    between atoms: C_19  and  O_25
REMARK   10  A    between atoms: C_21  and  O_22
REMARK   11  A    between atoms: O_22  and  C_23
REMARK   12  A    between atoms: C_23  and  C_24
REMARK   13  A    between atoms: O_25  and  C_26
REMARK   14  A    between atoms: C_27  and  O_28
REMARK   15  A    between atoms: O_28  and  C_29
REMARK   16  A    between atoms: O_30  and  C_31
REMARK   17  A    between atoms: O_32  and  C_33
REMARK                            x       y       z     vdW  Elec       q    Type
REMARK                         _______ _______ _______ _____ _____    ______ ____
ROOT
ATOM      1  O   LIG A   1      -8.091   5.136 128.409  0.00  0.00    -0.283 OA
ATOM      2  C   LIG A   1      -7.510   4.151 128.055  0.00  0.00    +0.238 A 
ATOM      3  C   LIG A   1      -6.065   4.154 127.713  0.00  0.00    +0.113 A 
ATOM      4  C   LIG A   1      -5.079   4.856 128.407  0.00  0.00    +0.180 A 
ATOM      5  C   LIG A   1      -3.744   4.857 127.901  0.00  0.00    +0.204 A 
ATOM      6  C   LIG A   1      -3.425   4.080 126.764  0.00  0.00    +0.169 A 
ATOM      7  C   LIG A   1      -4.420   3.294 126.171  0.00  0.00    +0.096 A 
ATOM      8  C   LIG A   1      -5.721   3.327 126.663  0.00  0.00    +0.147 A 
ATOM      9  O   LIG A   1      -6.638   2.458 126.112  0.00  0.00    -0.451 OA
ATOM     10  C   LIG A   1      -7.677   2.062 126.960  0.00  0.00    +0.184 A 
ATOM     11  C   LIG A   1      -8.152   2.807 127.967  0.00  0.00    +0.211 A 
ENDROOT
BRANCH  10  12
ATOM     12  C   LIG A   1      -8.149   0.716 126.606  0.00  0.00    +0.066 A 
ATOM     13  C   LIG A   1      -7.497  -0.391 127.183  0.00  0.00    +0.064 A 
ATOM     14  C   LIG A   1      -7.745  -1.697 126.732  0.00  0.00    +0.163 A 
ATOM     15  C   LIG A   1      -8.678  -1.888 125.702  0.00  0.00    +0.165 A 
ATOM     16  C   LIG A   1      -9.365  -0.783 125.190  0.00  0.00    +0.095 A 
ATOM     17  C   LIG A   1      -9.098   0.520 125.599  0.00  0.00    +0.135 A 
BRANCH  15  18
ATOM     18  O   LIG A   1      -9.003  -3.148 125.276  0.00  0.00    -0.491 OA
ATOM     19  C   LIG A   1      -9.316  -3.309 123.893  0.00  0.00    +0.277 C 
ENDBRANCH  15  18
BRANCH  14  20
ATOM     20  O   LIG A   1      -7.002  -2.656 127.377  0.00  0.00    -0.489 OA
BRANCH  20  21
ATOM     21  C   LIG A   1      -7.265  -2.893 128.763  0.00  0.00    +0.226 C 
ATOM     22  C   LIG A   1      -8.637  -3.519 128.965  0.00  0.00    +0.048 C 
ENDBRANCH  20  21
ENDBRANCH  14  20
BRANCH  17  23
ATOM     23  O   LIG A   1      -9.768   1.606 125.086  0.00  0.00    -0.491 OA
BRANCH  23  24
ATOM     24  C   LIG A   1      -9.828   1.682 123.655  0.00  0.00    +0.226 C 
ATOM     25  C   LIG A   1      -8.732   2.597 123.142  0.00  0.00    +0.048 C 
ENDBRANCH  23  24
ENDBRANCH  17  23
ENDBRANCH  10  12
BRANCH   5  26
ATOM     26  O   LIG A   1      -2.822   5.549 128.657  0.00  0.00    -0.488 OA
ATOM     27  C   LIG A   1      -2.404   6.817 128.163  0.00  0.00    +0.277 C 
ENDBRANCH   5  26
BRANCH  11  28
ATOM     28  O   LIG A   1      -9.161   2.398 128.830  0.00  0.00    -0.488 OA
ATOM     29  C   LIG A   1      -8.767   2.139 130.177  0.00  0.00    +0.277 C 
ENDBRANCH  11  28
BRANCH   6  30
ATOM     30  O   LIG A   1      -2.119   4.014 126.347  0.00  0.00    -0.491 OA
ATOM     31  C   LIG A   1      -1.410   2.820 126.671  0.00  0.00    +0.277 C 
ENDBRANCH   6  30
BRANCH   4  32
ATOM     32  O   LIG A   1      -5.286   5.542 129.582  0.00  0.00    -0.490 OA
ATOM     33  C   LIG A   1      -5.323   4.737 130.759  0.00  0.00    +0.277 C 
ENDBRANCH   4  32
TORSDOF 10
ENDMDL
MODEL 2
REMARK VINA RESULT:      -6.2      2.691      6.216
REMARK  Name = NuBBE_1884
REMARK  17 active torsions:
REMARK  status: ('A' for Active; 'I' for Inactive)
REMARK    1  A    between atoms: C_4  and  O_32
REMARK    2  A    between atoms: C_5  and  O_6
REMARK    3  A    between atoms: O_6  and  C_7
REMARK    4  A    between atoms: C_8  and  O_30
REMARK    5  A    between atoms: C_12  and  C_13
REMARK    6  A    between atoms: C_15  and  O_16
REMARK    7  A    between atoms: O_16  and  C_17
REMARK    8  A    between atoms: C_17  and  C_18
REMARK    9  A    between atoms: C_19  and  O_25
REMARK   10  A    between atoms: C_21  and  O_22
REMARK   11  A    between atoms: O_22  and  C_23
REMARK   12  A    between atoms: C_23  and  C_24
REMARK   13  A    between atoms: O_25  and  C_26
REMARK   14  A    between atoms: C_27  and  O_28
REMARK   15  A    between atoms: O_28  and  C_29
REMARK   16  A    between atoms: O_30  and  C_31
REMARK   17  A    between atoms: O_32  and  C_33
REMARK                            x       y       z     vdW  Elec       q    Type
REMARK                         _______ _______ _______ _____ _____    ______ ____
ROOT
ATOM      1  O   LIG A   1      -8.369  -0.255 130.404  0.00  0.00    -0.283 OA
ATOM      2  C   LIG A   1      -8.142   0.853 130.010  0.00  0.00    +0.238 A 
ATOM      3  C   LIG A   1      -8.618   2.068 130.718  0.00  0.00    +0.113 A 
ATOM      4  C   LIG A   1      -8.628   2.235 132.103  0.00  0.00    +0.180 A 
ATOM      5  C   LIG A   1      -9.215   3.413 132.655  0.00  0.00    +0.204 A 
ATOM      6  C   LIG A   1      -9.695   4.426 131.793  0.00  0.00    +0.169 A 
ATOM      7  C   LIG A   1      -9.554   4.270 130.409  0.00  0.00    +0.096 A 
ATOM      8  C   LIG A   1      -9.001   3.103 129.891  0.00  0.00    +0.147 A 
ATOM      9  O   LIG A   1      -8.789   3.043 128.530  0.00  0.00    -0.451 OA
ATOM     10  C   LIG A   1      -7.736   2.218 128.122  0.00  0.00    +0.184 A 
ATOM     11  C   LIG A   1      -7.319   1.139 128.799  0.00  0.00    +0.211 A 
ENDROOT
BRANCH  10  12
ATOM     12  C   LIG A   1      -7.147   2.714 126.871  0.00  0.00    +0.066 A 
ATOM     13  C   LIG A   1      -5.837   3.229 126.912  0.00  0.00    +0.064 A 
ATOM     14  C   LIG A   1      -5.290   3.913 125.814  0.00  0.00    +0.163 A 
ATOM     15  C   LIG A   1      -6.067   4.058 124.656  0.00  0.00    +0.165 A 
ATOM     16  C   LIG A   1      -7.340   3.479 124.610  0.00  0.00    +0.095 A 
ATOM     17  C   LIG A   1      -7.909   2.835 125.705  0.00  0.00    +0.135 A 
BRANCH  15  18
ATOM     18  O   LIG A   1      -5.554   4.658 123.537  0.00  0.00    -0.491 OA
ATOM     19  C   LIG A   1      -5.750   3.992 122.290  0.00  0.00    +0.277 C 
ENDBRANCH  15  18
BRANCH  14  20
ATOM     20  O   LIG A   1      -4.016   4.382 126.031  0.00  0.00    -0.489 OA
BRANCH  20  21
ATOM     21  C   LIG A   1      -3.270   3.823 127.116  0.00  0.00    +0.226 C 
ATOM     22  C   LIG A   1      -2.000   3.145 126.621  0.00  0.00    +0.048 C 
ENDBRANCH  20  21
ENDBRANCH  14  20
BRANCH  17  23
ATOM     23  O   LIG A   1      -9.164   2.276 125.662  0.00  0.00    -0.491 OA
BRANCH  23  24
ATOM     24  C   LIG A   1      -9.289   1.084 124.875  0.00  0.00    +0.226 C 
ATOM     25  C   LIG A   1     -10.185   1.348 123.680  0.00  0.00    +0.048 C 
ENDBRANCH  23  24
ENDBRANCH  17  23
ENDBRANCH  10  12
BRANCH   5  26
ATOM     26  O   LIG A   1      -9.161   3.518 134.028  0.00  0.00    -0.488 OA
ATOM     27  C   LIG A   1      -8.172   4.387 134.570  0.00  0.00    +0.277 C 
ENDBRANCH   5  26
BRANCH  11  28
ATOM     28  O   LIG A   1      -6.251   0.340 128.409  0.00  0.00    -0.488 OA
ATOM     29  C   LIG A   1      -5.086   0.407 129.231  0.00  0.00    +0.277 C 
ENDBRANCH  11  28
BRANCH   6  30
ATOM     30  O   LIG A   1     -10.168   5.594 132.336  0.00  0.00    -0.491 OA
ATOM     31  C   LIG A   1     -10.974   6.406 131.486  0.00  0.00    +0.277 C 
ENDBRANCH   6  30
BRANCH   4  32
ATOM     32  O   LIG A   1      -8.080   1.349 133.003  0.00  0.00    -0.490 OA
ATOM     33  C   LIG A   1      -6.657   1.379 133.099  0.00  0.00    +0.277 C 
ENDBRANCH   4  32
TORSDOF 10
ENDMDL
MODEL 3
REMARK VINA RESULT:      -6.2      2.415      6.747
REMARK  Name = NuBBE_1884
REMARK  17 active torsions:
REMARK  status: ('A' for Active; 'I' for Inactive)
REMARK    1  A    between atoms: C_4  and  O_32
REMARK    2  A    between atoms: C_5  and  O_6
REMARK    3  A    between atoms: O_6  and  C_7
REMARK    4  A    between atoms: C_8  and  O_30
REMARK    5  A    between atoms: C_12  and  C_13
REMARK    6  A    between atoms: C_15  and  O_16
REMARK    7  A    between atoms: O_16  and  C_17
REMARK    8  A    between atoms: C_17  and  C_18
REMARK    9  A    between atoms: C_19  and  O_25
REMARK   10  A    between atoms: C_21  and  O_22
REMARK   11  A    between atoms: O_22  and  C_23
REMARK   12  A    between atoms: C_23  and  C_24
REMARK   13  A    between atoms: O_25  and  C_26
REMARK   14  A    between atoms: C_27  and  O_28
REMARK   15  A    between atoms: O_28  and  C_29
REMARK   16  A    between atoms: O_30  and  C_31
REMARK   17  A    between atoms: O_32  and  C_33
REMARK                            x       y       z     vdW  Elec       q    Type
REMARK                         _______ _______ _______ _____ _____    ______ ____
ROOT
ATOM      1  O   LIG A   1      -7.622  -2.924 126.698  0.00  0.00    -0.283 OA
ATOM      2  C   LIG A   1      -7.299  -1.799 126.951  0.00  0.00    +0.238 A 
ATOM      3  C   LIG A   1      -7.527  -1.181 128.282  0.00  0.00    +0.113 A 
ATOM      4  C   LIG A   1      -7.356  -1.828 129.506  0.00  0.00    +0.180 A 
ATOM      5  C   LIG A   1      -7.718  -1.146 130.706  0.00  0.00    +0.204 A 
ATOM      6  C   LIG A   1      -8.157   0.196 130.645  0.00  0.00    +0.169 A 
ATOM      7  C   LIG A   1      -8.197   0.847 129.406  0.00  0.00    +0.096 A 
ATOM      8  C   LIG A   1      -7.865   0.157 128.244  0.00  0.00    +0.147 A 
ATOM      9  O   LIG A   1      -7.819   0.870 127.065  0.00  0.00    -0.451 OA
ATOM     10  C   LIG A   1      -6.938   0.376 126.098  0.00  0.00    +0.184 A 
ATOM     11  C   LIG A   1      -6.590  -0.912 125.983  0.00  0.00    +0.211 A 
ENDROOT
BRANCH  10  12
ATOM     12  C   LIG A   1      -6.435   1.469 125.252  0.00  0.00    +0.066 A 
ATOM     13  C   LIG A   1      -5.419   2.295 125.768  0.00  0.00    +0.064 A 
ATOM     14  C   LIG A   1      -5.042   3.479 125.114  0.00  0.00    +0.163 A 
ATOM     15  C   LIG A   1      -5.685   3.820 123.915  0.00  0.00    +0.165 A 
ATOM     16  C   LIG A   1      -6.644   2.951 123.384  0.00  0.00    +0.095 A 
ATOM     17  C   LIG A   1      -7.055   1.795 124.043  0.00  0.00    +0.135 A 
BRANCH  15  18
ATOM     18  O   LIG A   1      -5.306   4.928 123.206  0.00  0.00    -0.491 OA
ATOM     19  C   LIG A   1      -4.767   4.717 121.902  0.00  0.00    +0.277 C 
ENDBRANCH  15  18
BRANCH  14  20
ATOM     20  O   LIG A   1      -4.061   4.185 125.767  0.00  0.00    -0.489 OA
BRANCH  20  21
ATOM     21  C   LIG A   1      -3.393   3.554 126.863  0.00  0.00    +0.226 C 
ATOM     22  C   LIG A   1      -1.942   3.248 126.523  0.00  0.00    +0.048 C 
ENDBRANCH  20  21
ENDBRANCH  14  20
BRANCH  17  23
ATOM     23  O   LIG A   1      -8.006   0.948 123.524  0.00  0.00    -0.491 OA
BRANCH  23  24
ATOM     24  C   LIG A   1      -9.263   1.552 123.191  0.00  0.00    +0.226 C 
ATOM     25  C   LIG A   1     -10.229   1.403 124.351  0.00  0.00    +0.048 C 
ENDBRANCH  23  24
ENDBRANCH  17  23
ENDBRANCH  10  12
BRANCH   5  26
ATOM     26  O   LIG A   1      -7.494  -1.840 131.876  0.00  0.00    -0.488 OA
ATOM     27  C   LIG A   1      -6.362  -1.454 132.649  0.00  0.00    +0.277 C 
ENDBRANCH   5  26
BRANCH  11  28
ATOM     28  O   LIG A   1      -5.687  -1.395 125.043  0.00  0.00    -0.488 OA
ATOM     29  C   LIG A   1      -6.255  -1.947 123.856  0.00  0.00    +0.277 C 
ENDBRANCH  11  28
BRANCH   6  30
ATOM     30  O   LIG A   1      -8.408   0.869 131.814  0.00  0.00    -0.491 OA
ATOM     31  C   LIG A   1      -8.729   2.254 131.691  0.00  0.00    +0.277 C 
ENDBRANCH   6  30
BRANCH   4  32
ATOM     32  O   LIG A   1      -6.829  -3.090 129.657  0.00  0.00    -0.490 OA
ATOM     33  C   LIG A   1      -5.411  -3.179 129.527  0.00  0.00    +0.277 C 
ENDBRANCH   4  32
TORSDOF 10
ENDMDL
MODEL 4
REMARK VINA RESULT:      -6.1      1.347      3.061
REMARK  Name = NuBBE_1884
REMARK  17 active torsions:
REMARK  status: ('A' for Active; 'I' for Inactive)
REMARK    1  A    between atoms: C_4  and  O_32
REMARK    2  A    between atoms: C_5  and  O_6
REMARK    3  A    between atoms: O_6  and  C_7
REMARK    4  A    between atoms: C_8  and  O_30
REMARK    5  A    between atoms: C_12  and  C_13
REMARK    6  A    between atoms: C_15  and  O_16
REMARK    7  A    between atoms: O_16  and  C_17
REMARK    8  A    between atoms: C_17  and  C_18
REMARK    9  A    between atoms: C_19  and  O_25
REMARK   10  A    between atoms: C_21  and  O_22
REMARK   11  A    between atoms: O_22  and  C_23
REMARK   12  A    between atoms: C_23  and  C_24
REMARK   13  A    between atoms: O_25  and  C_26
REMARK   14  A    between atoms: C_27  and  O_28
REMARK   15  A    between atoms: O_28  and  C_29
REMARK   16  A    between atoms: O_30  and  C_31
REMARK   17  A    between atoms: O_32  and  C_33
REMARK                            x       y       z     vdW  Elec       q    Type
REMARK                         _______ _______ _______ _____ _____    ______ ____
ROOT
ATOM      1  O   LIG A   1      -8.140   4.915 127.794  0.00  0.00    -0.283 OA
ATOM      2  C   LIG A   1      -7.444   3.941 127.761  0.00  0.00    +0.238 A 
ATOM      3  C   LIG A   1      -5.964   4.019 127.669  0.00  0.00    +0.113 A 
ATOM      4  C   LIG A   1      -5.166   4.939 128.350  0.00  0.00    +0.180 A 
ATOM      5  C   LIG A   1      -3.764   4.971 128.083  0.00  0.00    +0.204 A 
ATOM      6  C   LIG A   1      -3.196   4.019 127.207  0.00  0.00    +0.169 A 
ATOM      7  C   LIG A   1      -4.015   3.036 126.640  0.00  0.00    +0.096 A 
ATOM      8  C   LIG A   1      -5.383   3.037 126.892  0.00  0.00    +0.147 A 
ATOM      9  O   LIG A   1      -6.128   1.989 126.395  0.00  0.00    -0.451 OA
ATOM     10  C   LIG A   1      -7.278   1.670 127.125  0.00  0.00    +0.184 A 
ATOM     11  C   LIG A   1      -7.974   2.550 127.857  0.00  0.00    +0.211 A 
ENDROOT
BRANCH  10  12
ATOM     12  C   LIG A   1      -7.592   0.240 126.994  0.00  0.00    +0.066 A 
ATOM     13  C   LIG A   1      -8.382  -0.168 125.901  0.00  0.00    +0.064 A 
ATOM     14  C   LIG A   1      -8.900  -1.471 125.826  0.00  0.00    +0.163 A 
ATOM     15  C   LIG A   1      -8.600  -2.376 126.855  0.00  0.00    +0.165 A 
ATOM     16  C   LIG A   1      -7.758  -1.971 127.896  0.00  0.00    +0.095 A 
ATOM     17  C   LIG A   1      -7.271  -0.671 128.003  0.00  0.00    +0.135 A 
BRANCH  15  18
ATOM     18  O   LIG A   1      -9.027  -3.675 126.793  0.00  0.00    -0.491 OA
ATOM     19  C   LIG A   1      -9.187  -4.370 128.029  0.00  0.00    +0.277 C 
ENDBRANCH  15  18
BRANCH  14  20
ATOM     20  O   LIG A   1      -9.677  -1.695 124.714  0.00  0.00    -0.489 OA
BRANCH  20  21
ATOM     21  C   LIG A   1      -9.067  -1.556 123.428  0.00  0.00    +0.226 C 
ATOM     22  C   LIG A   1      -8.494  -2.879 122.943  0.00  0.00    +0.048 C 
ENDBRANCH  20  21
ENDBRANCH  14  20
BRANCH  17  23
ATOM     23  O   LIG A   1      -6.453  -0.272 129.034  0.00  0.00    -0.491 OA
BRANCH  23  24
ATOM     24  C   LIG A   1      -5.961  -1.320 129.880  0.00  0.00    +0.226 C 
ATOM     25  C   LIG A   1      -4.498  -1.584 129.574  0.00  0.00    +0.048 C 
ENDBRANCH  23  24
ENDBRANCH  17  23
ENDBRANCH  10  12
BRANCH   5  26
ATOM     26  O   LIG A   1      -3.040   5.888 128.815  0.00  0.00    -0.488 OA
ATOM     27  C   LIG A   1      -2.693   7.105 128.163  0.00  0.00    +0.277 C 
ENDBRANCH   5  26
BRANCH  11  28
ATOM     28  O   LIG A   1      -9.096   2.224 128.609  0.00  0.00    -0.488 OA
ATOM     29  C   LIG A   1      -8.954   2.329 130.025  0.00  0.00    +0.277 C 
ENDBRANCH  11  28
BRANCH   6  30
ATOM     30  O   LIG A   1      -1.834   4.001 127.035  0.00  0.00    -0.491 OA
ATOM     31  C   LIG A   1      -1.266   2.765 126.606  0.00  0.00    +0.277 C 
ENDBRANCH   6  30
BRANCH   4  32
ATOM     32  O   LIG A   1      -5.626   5.822 129.300  0.00  0.00    -0.490 OA
ATOM     33  C   LIG A   1      -5.827   5.269 130.600  0.00  0.00    +0.277 C 
ENDBRANCH   4  32
TORSDOF 10
ENDMDL
MODEL 5
REMARK VINA RESULT:      -6.1      3.486      7.336
REMARK  Name = NuBBE_1884
REMARK  17 active torsions:
REMARK  status: ('A' for Active; 'I' for Inactive)
REMARK    1  A    between atoms: C_4  and  O_32
REMARK    2  A    between atoms: C_5  and  O_6
REMARK    3  A    between atoms: O_6  and  C_7
REMARK    4  A    between atoms: C_8  and  O_30
REMARK    5  A    between atoms: C_12  and  C_13
REMARK    6  A    between atoms: C_15  and  O_16
REMARK    7  A    between atoms: O_16  and  C_17
REMARK    8  A    between atoms: C_17  and  C_18
REMARK    9  A    between atoms: C_19  and  O_25
REMARK   10  A    between atoms: C_21  and  O_22
REMARK   11  A    between atoms: O_22  and  C_23
REMARK   12  A    between atoms: C_23  and  C_24
REMARK   13  A    between atoms: O_25  and  C_26
REMARK   14  A    between atoms: C_27  and  O_28
REMARK   15  A    between atoms: O_28  and  C_29
REMARK   16  A    between atoms: O_30  and  C_31
REMARK   17  A    between atoms: O_32  and  C_33
REMARK                            x       y       z     vdW  Elec       q    Type
REMARK                         _______ _______ _______ _____ _____    ______ ____
ROOT
ATOM      1  O   LIG A   1      -7.212  -2.681 125.461  0.00  0.00    -0.283 OA
ATOM      2  C   LIG A   1      -7.551  -1.867 126.271  0.00  0.00    +0.238 A 
ATOM      3  C   LIG A   1      -8.012  -0.507 125.894  0.00  0.00    +0.113 A 
ATOM      4  C   LIG A   1      -8.835  -0.212 124.807  0.00  0.00    +0.180 A 
ATOM      5  C   LIG A   1      -9.111   1.154 124.497  0.00  0.00    +0.204 A 
ATOM      6  C   LIG A   1      -8.624   2.176 125.342  0.00  0.00    +0.169 A 
ATOM      7  C   LIG A   1      -7.905   1.829 126.492  0.00  0.00    +0.096 A 
ATOM      8  C   LIG A   1      -7.624   0.494 126.763  0.00  0.00    +0.147 A 
ATOM      9  O   LIG A   1      -7.005   0.198 127.958  0.00  0.00    -0.451 OA
ATOM     10  C   LIG A   1      -7.282  -1.070 128.481  0.00  0.00    +0.184 A 
ATOM     11  C   LIG A   1      -7.597  -2.139 127.737  0.00  0.00    +0.211 A 
ENDROOT
BRANCH  10  12
ATOM     12  C   LIG A   1      -7.203  -1.052 129.948  0.00  0.00    +0.066 A 
ATOM     13  C   LIG A   1      -8.276  -0.488 130.665  0.00  0.00    +0.064 A 
ATOM     14  C   LIG A   1      -8.179  -0.241 132.044  0.00  0.00    +0.163 A 
ATOM     15  C   LIG A   1      -6.994  -0.586 132.709  0.00  0.00    +0.165 A 
ATOM     16  C   LIG A   1      -5.966  -1.208 131.992  0.00  0.00    +0.095 A 
ATOM     17  C   LIG A   1      -6.033  -1.421 130.618  0.00  0.00    +0.135 A 
BRANCH  15  18
ATOM     18  O   LIG A   1      -6.877  -0.426 134.063  0.00  0.00    -0.491 OA
ATOM     19  C   LIG A   1      -5.991   0.592 134.527  0.00  0.00    +0.277 C 
ENDBRANCH  15  18
BRANCH  14  20
ATOM     20  O   LIG A   1      -9.301   0.343 132.582  0.00  0.00    -0.489 OA
BRANCH  20  21
ATOM     21  C   LIG A   1      -9.653   1.658 132.142  0.00  0.00    +0.226 C 
ATOM     22  C   LIG A   1      -9.119   2.719 133.092  0.00  0.00    +0.048 C 
ENDBRANCH  20  21
ENDBRANCH  14  20
BRANCH  17  23
ATOM     23  O   LIG A   1      -5.017  -2.022 129.914  0.00  0.00    -0.491 OA
BRANCH  23  24
ATOM     24  C   LIG A   1      -4.441  -3.187 130.521  0.00  0.00    +0.226 C 
ATOM     25  C   LIG A   1      -5.379  -4.368 130.359  0.00  0.00    +0.048 C 
ENDBRANCH  23  24
ENDBRANCH  17  23
ENDBRANCH  10  12
BRANCH   5  26
ATOM     26  O   LIG A   1      -9.953   1.362 123.426  0.00  0.00    -0.488 OA
ATOM     27  C   LIG A   1      -9.410   2.044 122.300  0.00  0.00    +0.277 C 
ENDBRANCH   5  26
BRANCH  11  28
ATOM     28  O   LIG A   1      -7.905  -3.389 128.260  0.00  0.00    -0.488 OA
ATOM     29  C   LIG A   1      -9.197  -3.902 127.937  0.00  0.00    +0.277 C 
ENDBRANCH  11  28
BRANCH   6  30
ATOM     30  O   LIG A   1      -8.978   3.477 125.087  0.00  0.00    -0.491 OA
ATOM     31  C   LIG A   1      -8.049   4.479 125.498  0.00  0.00    +0.277 C 
ENDBRANCH   6  30
BRANCH   4  32
ATOM     32  O   LIG A   1      -9.439  -1.153 124.004  0.00  0.00    -0.490 OA
ATOM     33  C   LIG A   1      -8.700  -1.527 122.842  0.00  0.00    +0.277 C 
ENDBRANCH   4  32
TORSDOF 10
ENDMDL
MODEL 6
REMARK VINA RESULT:      -6.1      2.438      4.632
REMARK  Name = NuBBE_1884
REMARK  17 active torsions:
REMARK  status: ('A' for Active; 'I' for Inactive)
REMARK    1  A    between atoms: C_4  and  O_32
REMARK    2  A    between atoms: C_5  and  O_6
REMARK    3  A    between atoms: O_6  and  C_7
REMARK    4  A    between atoms: C_8  and  O_30
REMARK    5  A    between atoms: C_12  and  C_13
REMARK    6  A    between atoms: C_15  and  O_16
REMARK    7  A    between atoms: O_16  and  C_17
REMARK    8  A    between atoms: C_17  and  C_18
REMARK    9  A    between atoms: C_19  and  O_25
REMARK   10  A    between atoms: C_21  and  O_22
REMARK   11  A    between atoms: O_22  and  C_23
REMARK   12  A    between atoms: C_23  and  C_24
REMARK   13  A    between atoms: O_25  and  C_26
REMARK   14  A    between atoms: C_27  and  O_28
REMARK   15  A    between atoms: O_28  and  C_29
REMARK   16  A    between atoms: O_30  and  C_31
REMARK   17  A    between atoms: O_32  and  C_33
REMARK                            x       y       z     vdW  Elec       q    Type
REMARK                         _______ _______ _______ _____ _____    ______ ____
ROOT
ATOM      1  O   LIG A   1      -8.546   0.316 131.413  0.00  0.00    -0.283 OA
ATOM      2  C   LIG A   1      -8.239   0.964 130.454  0.00  0.00    +0.238 A 
ATOM      3  C   LIG A   1      -8.193   2.448 130.473  0.00  0.00    +0.113 A 
ATOM      4  C   LIG A   1      -7.710   3.222 131.528  0.00  0.00    +0.180 A 
ATOM      5  C   LIG A   1      -7.827   4.643 131.456  0.00  0.00    +0.204 A 
ATOM      6  C   LIG A   1      -8.344   5.244 130.287  0.00  0.00    +0.169 A 
ATOM      7  C   LIG A   1      -8.704   4.435 129.202  0.00  0.00    +0.096 A 
ATOM      8  C   LIG A   1      -8.606   3.051 129.302  0.00  0.00    +0.147 A 
ATOM      9  O   LIG A   1      -8.873   2.306 128.173  0.00  0.00    -0.451 OA
ATOM     10  C   LIG A   1      -8.208   1.078 128.093  0.00  0.00    +0.184 A 
ATOM     11  C   LIG A   1      -7.822   0.359 129.155  0.00  0.00    +0.211 A 
ENDROOT
BRANCH  10  12
ATOM     12  C   LIG A   1      -7.976   0.708 126.690  0.00  0.00    +0.066 A 
ATOM     13  C   LIG A   1      -8.800  -0.282 126.119  0.00  0.00    +0.064 A 
ATOM     14  C   LIG A   1      -8.504  -0.838 124.864  0.00  0.00    +0.163 A 
ATOM     15  C   LIG A   1      -7.377  -0.375 124.170  0.00  0.00    +0.165 A 
ATOM     16  C   LIG A   1      -6.611   0.656 124.723  0.00  0.00    +0.095 A 
ATOM     17  C   LIG A   1      -6.869   1.187 125.984  0.00  0.00    +0.135 A 
BRANCH  15  18
ATOM     18  O   LIG A   1      -7.086  -0.840 122.915  0.00  0.00    -0.491 OA
ATOM     19  C   LIG A   1      -6.159  -1.921 122.817  0.00  0.00    +0.277 C 
ENDBRANCH  15  18
BRANCH  14  20
ATOM     20  O   LIG A   1      -9.388  -1.814 124.468  0.00  0.00    -0.489 OA
BRANCH  20  21
ATOM     21  C   LIG A   1      -9.453  -3.016 125.241  0.00  0.00    +0.226 C 
ATOM     22  C   LIG A   1      -8.302  -3.952 124.904  0.00  0.00    +0.048 C 
ENDBRANCH  20  21
ENDBRANCH  14  20
BRANCH  17  23
ATOM     23  O   LIG A   1      -6.108   2.193 126.531  0.00  0.00    -0.491 OA
BRANCH  23  24
ATOM     24  C   LIG A   1      -5.785   3.279 125.651  0.00  0.00    +0.226 C 
ATOM     25  C   LIG A   1      -4.605   4.056 126.205  0.00  0.00    +0.048 C 
ENDBRANCH  23  24
ENDBRANCH  17  23
ENDBRANCH  10  12
BRANCH   5  26
ATOM     26  O   LIG A   1      -7.302   5.337 132.524  0.00  0.00    -0.488 OA
ATOM     27  C   LIG A   1      -8.215   5.757 133.533  0.00  0.00    +0.277 C 
ENDBRANCH   5  26
BRANCH  11  28
ATOM     28  O   LIG A   1      -7.131  -0.844 129.074  0.00  0.00    -0.488 OA
ATOM     29  C   LIG A   1      -5.728  -0.779 129.327  0.00  0.00    +0.277 C 
ENDBRANCH  11  28
BRANCH   6  30
ATOM     30  O   LIG A   1      -8.361   6.613 130.193  0.00  0.00    -0.491 OA
ATOM     31  C   LIG A   1      -9.644   7.225 130.074  0.00  0.00    +0.277 C 
ENDBRANCH   6  30
BRANCH   4  32
ATOM     32  O   LIG A   1      -7.091   2.718 132.649  0.00  0.00    -0.490 OA
ATOM     33  C   LIG A   1      -5.713   2.383 132.486  0.00  0.00    +0.277 C 
ENDBRANCH   4  32
TORSDOF 10
ENDMDL
MODEL 7
REMARK VINA RESULT:      -6.1      1.856      7.811
REMARK  Name = NuBBE_1884
REMARK  17 active torsions:
REMARK  status: ('A' for Active; 'I' for Inactive)
REMARK    1  A    between atoms: C_4  and  O_32
REMARK    2  A    between atoms: C_5  and  O_6
REMARK    3  A    between atoms: O_6  and  C_7
REMARK    4  A    between atoms: C_8  and  O_30
REMARK    5  A    between atoms: C_12  and  C_13
REMARK    6  A    between atoms: C_15  and  O_16
REMARK    7  A    between atoms: O_16  and  C_17
REMARK    8  A    between atoms: C_17  and  C_18
REMARK    9  A    between atoms: C_19  and  O_25
REMARK   10  A    between atoms: C_21  and  O_22
REMARK   11  A    between atoms: O_22  and  C_23
REMARK   12  A    between atoms: C_23  and  C_24
REMARK   13  A    between atoms: O_25  and  C_26
REMARK   14  A    between atoms: C_27  and  O_28
REMARK   15  A    between atoms: O_28  and  C_29
REMARK   16  A    between atoms: O_30  and  C_31
REMARK   17  A    between atoms: O_32  and  C_33
REMARK                            x       y       z     vdW  Elec       q    Type
REMARK                         _______ _______ _______ _____ _____    ______ ____
ROOT
ATOM      1  O   LIG A   1      -5.104  -2.009 127.537  0.00  0.00    -0.283 OA
ATOM      2  C   LIG A   1      -5.793  -1.029 127.553  0.00  0.00    +0.238 A 
ATOM      3  C   LIG A   1      -6.936  -0.841 126.626  0.00  0.00    +0.113 A 
ATOM      4  C   LIG A   1      -7.837  -1.838 126.251  0.00  0.00    +0.180 A 
ATOM      5  C   LIG A   1      -8.826  -1.544 125.264  0.00  0.00    +0.204 A 
ATOM      6  C   LIG A   1      -8.935  -0.232 124.751  0.00  0.00    +0.169 A 
ATOM      7  C   LIG A   1      -8.090   0.768 125.246  0.00  0.00    +0.096 A 
ATOM      8  C   LIG A   1      -7.115   0.456 126.188  0.00  0.00    +0.147 A 
ATOM      9  O   LIG A   1      -6.380   1.494 126.719  0.00  0.00    -0.451 OA
ATOM     10  C   LIG A   1      -5.898   1.287 128.016  0.00  0.00    +0.184 A 
ATOM     11  C   LIG A   1      -5.614   0.083 128.531  0.00  0.00    +0.211 A 
ENDROOT
BRANCH  10  12
ATOM     12  C   LIG A   1      -5.772   2.565 128.730  0.00  0.00    +0.066 A 
ATOM     13  C   LIG A   1      -6.910   3.076 129.384  0.00  0.00    +0.064 A 
ATOM     14  C   LIG A   1      -6.928   4.381 129.900  0.00  0.00    +0.163 A 
ATOM     15  C   LIG A   1      -5.777   5.172 129.771  0.00  0.00    +0.165 A 
ATOM     16  C   LIG A   1      -4.634   4.623 129.180  0.00  0.00    +0.095 A 
ATOM     17  C   LIG A   1      -4.617   3.345 128.628  0.00  0.00    +0.135 A 
BRANCH  15  18
ATOM     18  O   LIG A   1      -5.723   6.427 130.316  0.00  0.00    -0.491 OA
ATOM     19  C   LIG A   1      -4.585   6.743 131.117  0.00  0.00    +0.277 C 
ENDBRANCH  15  18
BRANCH  14  20
ATOM     20  O   LIG A   1      -8.125   4.734 130.475  0.00  0.00    -0.489 OA
BRANCH  20  21
ATOM     21  C   LIG A   1      -9.015   5.564 129.724  0.00  0.00    +0.226 C 
ATOM     22  C   LIG A   1      -9.264   6.888 130.432  0.00  0.00    +0.048 C 
ENDBRANCH  20  21
ENDBRANCH  14  20
BRANCH  17  23
ATOM     23  O   LIG A   1      -3.496   2.812 128.037  0.00  0.00    -0.491 OA
BRANCH  23  24
ATOM     24  C   LIG A   1      -2.993   3.525 126.899  0.00  0.00    +0.226 C 
ATOM     25  C   LIG A   1      -1.610   3.012 126.541  0.00  0.00    +0.048 C 
ENDBRANCH  23  24
ENDBRANCH  17  23
ENDBRANCH  10  12
BRANCH   5  26
ATOM     26  O   LIG A   1      -9.695  -2.572 124.968  0.00  0.00    -0.488 OA
ATOM     27  C   LIG A   1      -9.439  -3.311 123.778  0.00  0.00    +0.277 C 
ENDBRANCH   5  26
BRANCH  11  28
ATOM     28  O   LIG A   1      -5.167  -0.123 129.830  0.00  0.00    -0.488 OA
ATOM     29  C   LIG A   1      -6.143  -0.588 130.762  0.00  0.00    +0.277 C 
ENDBRANCH  11  28
BRANCH   6  30
ATOM     30  O   LIG A   1      -9.951   0.059 123.876  0.00  0.00    -0.491 OA
ATOM     31  C   LIG A   1      -9.794   1.242 123.095  0.00  0.00    +0.277 C 
ENDBRANCH   6  30
BRANCH   4  32
ATOM     32  O   LIG A   1      -7.868  -3.106 126.786  0.00  0.00    -0.490 OA
ATOM     33  C   LIG A   1      -8.467  -3.208 128.077  0.00  0.00    +0.277 C 
ENDBRANCH   4  32
TORSDOF 10
ENDMDL
MODEL 8
REMARK VINA RESULT:      -6.0      1.910      7.725
REMARK  Name = NuBBE_1884
REMARK  17 active torsions:
REMARK  status: ('A' for Active; 'I' for Inactive)
REMARK    1  A    between atoms: C_4  and  O_32
REMARK    2  A    between atoms: C_5  and  O_6
REMARK    3  A    between atoms: O_6  and  C_7
REMARK    4  A    between atoms: C_8  and  O_30
REMARK    5  A    between atoms: C_12  and  C_13
REMARK    6  A    between atoms: C_15  and  O_16
REMARK    7  A    between atoms: O_16  and  C_17
REMARK    8  A    between atoms: C_17  and  C_18
REMARK    9  A    between atoms: C_19  and  O_25
REMARK   10  A    between atoms: C_21  and  O_22
REMARK   11  A    between atoms: O_22  and  C_23
REMARK   12  A    between atoms: C_23  and  C_24
REMARK   13  A    between atoms: O_25  and  C_26
REMARK   14  A    between atoms: C_27  and  O_28
REMARK   15  A    between atoms: O_28  and  C_29
REMARK   16  A    between atoms: O_30  and  C_31
REMARK   17  A    between atoms: O_32  and  C_33
REMARK                            x       y       z     vdW  Elec       q    Type
REMARK                         _______ _______ _______ _____ _____    ______ ____
ROOT
ATOM      1  O   LIG A   1      -8.991   3.512 125.051  0.00  0.00    -0.283 OA
ATOM      2  C   LIG A   1      -8.140   3.047 125.753  0.00  0.00    +0.238 A 
ATOM      3  C   LIG A   1      -7.930   1.584 125.893  0.00  0.00    +0.113 A 
ATOM      4  C   LIG A   1      -8.000   0.661 124.850  0.00  0.00    +0.180 A 
ATOM      5  C   LIG A   1      -7.885  -0.731 125.146  0.00  0.00    +0.204 A 
ATOM      6  C   LIG A   1      -7.615  -1.145 126.470  0.00  0.00    +0.169 A 
ATOM      7  C   LIG A   1      -7.430  -0.178 127.465  0.00  0.00    +0.096 A 
ATOM      8  C   LIG A   1      -7.572   1.173 127.161  0.00  0.00    +0.147 A 
ATOM      9  O   LIG A   1      -7.278   2.087 128.149  0.00  0.00    -0.451 OA
ATOM     10  C   LIG A   1      -6.830   3.334 127.700  0.00  0.00    +0.184 A 
ATOM     11  C   LIG A   1      -7.167   3.876 126.523  0.00  0.00    +0.211 A 
ENDROOT
BRANCH  10  12
ATOM     12  C   LIG A   1      -5.927   3.944 128.687  0.00  0.00    +0.066 A 
ATOM     13  C   LIG A   1      -6.493   4.733 129.707  0.00  0.00    +0.064 A 
ATOM     14  C   LIG A   1      -5.689   5.517 130.550  0.00  0.00    +0.163 A 
ATOM     15  C   LIG A   1      -4.298   5.487 130.374  0.00  0.00    +0.165 A 
ATOM     16  C   LIG A   1      -3.752   4.644 129.400  0.00  0.00    +0.095 A 
ATOM     17  C   LIG A   1      -4.539   3.893 128.532  0.00  0.00    +0.135 A 
BRANCH  15  18
ATOM     18  O   LIG A   1      -3.469   6.182 131.213  0.00  0.00    -0.491 OA
ATOM     19  C   LIG A   1      -3.244   7.559 130.916  0.00  0.00    +0.277 C 
ENDBRANCH  15  18
BRANCH  14  20
ATOM     20  O   LIG A   1      -6.400   6.252 131.468  0.00  0.00    -0.489 OA
BRANCH  20  21
ATOM     21  C   LIG A   1      -7.756   6.585 131.158  0.00  0.00    +0.226 C 
ATOM     22  C   LIG A   1      -8.701   6.139 132.265  0.00  0.00    +0.048 C 
ENDBRANCH  20  21
ENDBRANCH  14  20
BRANCH  17  23
ATOM     23  O   LIG A   1      -4.000   3.074 127.568  0.00  0.00    -0.491 OA
BRANCH  23  24
ATOM     24  C   LIG A   1      -3.083   3.700 126.660  0.00  0.00    +0.226 C 
ATOM     25  C   LIG A   1      -1.731   3.018 126.743  0.00  0.00    +0.048 C 
ENDBRANCH  23  24
ENDBRANCH  17  23
ENDBRANCH  10  12
BRANCH   5  26
ATOM     26  O   LIG A   1      -7.937  -1.577 124.059  0.00  0.00    -0.488 OA
ATOM     27  C   LIG A   1      -6.694  -1.973 123.490  0.00  0.00    +0.277 C 
ENDBRANCH   5  26
BRANCH  11  28
ATOM     28  O   LIG A   1      -6.695   5.100 126.064  0.00  0.00    -0.488 OA
ATOM     29  C   LIG A   1      -5.962   5.069 124.839  0.00  0.00    +0.277 C 
ENDBRANCH  11  28
BRANCH   6  30
ATOM     30  O   LIG A   1      -7.411  -2.478 126.723  0.00  0.00    -0.491 OA
ATOM     31  C   LIG A   1      -8.562  -3.236 127.089  0.00  0.00    +0.277 C 
ENDBRANCH   6  30
BRANCH   4  32
ATOM     32  O   LIG A   1      -8.148   0.990 123.521  0.00  0.00    -0.490 OA
ATOM     33  C   LIG A   1      -9.490   0.980 123.036  0.00  0.00    +0.277 C 
ENDBRANCH   4  32
TORSDOF 10
ENDMDL
MODEL 9
REMARK VINA RESULT:      -6.0      1.519      7.641
REMARK  Name = NuBBE_1884
REMARK  17 active torsions:
REMARK  status: ('A' for Active; 'I' for Inactive)
REMARK    1  A    between atoms: C_4  and  O_32
REMARK    2  A    between atoms: C_5  and  O_6
REMARK    3  A    between atoms: O_6  and  C_7
REMARK    4  A    between atoms: C_8  and  O_30
REMARK    5  A    between atoms: C_12  and  C_13
REMARK    6  A    between atoms: C_15  and  O_16
REMARK    7  A    between atoms: O_16  and  C_17
REMARK    8  A    between atoms: C_17  and  C_18
REMARK    9  A    between atoms: C_19  and  O_25
REMARK   10  A    between atoms: C_21  and  O_22
REMARK   11  A    between atoms: O_22  and  C_23
REMARK   12  A    between atoms: C_23  and  C_24
REMARK   13  A    between atoms: O_25  and  C_26
REMARK   14  A    between atoms: C_27  and  O_28
REMARK   15  A    between atoms: O_28  and  C_29
REMARK   16  A    between atoms: O_30  and  C_31
REMARK   17  A    between atoms: O_32  and  C_33
REMARK                            x       y       z     vdW  Elec       q    Type
REMARK                         _______ _______ _______ _____ _____    ______ ____
ROOT
ATOM      1  O   LIG A   1      -9.445   2.408 124.792  0.00  0.00    -0.283 OA
ATOM      2  C   LIG A   1      -8.607   2.168 125.614  0.00  0.00    +0.238 A 
ATOM      3  C   LIG A   1      -8.305   0.788 126.068  0.00  0.00    +0.113 A 
ATOM      4  C   LIG A   1      -8.248  -0.334 125.241  0.00  0.00    +0.180 A 
ATOM      5  C   LIG A   1      -8.054  -1.620 125.830  0.00  0.00    +0.204 A 
ATOM      6  C   LIG A   1      -7.836  -1.728 127.222  0.00  0.00    +0.169 A 
ATOM      7  C   LIG A   1      -7.780  -0.564 127.997  0.00  0.00    +0.096 A 
ATOM      8  C   LIG A   1      -7.997   0.678 127.409  0.00  0.00    +0.147 A 
ATOM      9  O   LIG A   1      -7.827   1.798 128.194  0.00  0.00    -0.451 OA
ATOM     10  C   LIG A   1      -7.441   2.957 127.513  0.00  0.00    +0.184 A 
ATOM     11  C   LIG A   1      -7.743   3.215 126.233  0.00  0.00    +0.211 A 
ENDROOT
BRANCH  10  12
ATOM     12  C   LIG A   1      -6.644   3.829 128.388  0.00  0.00    +0.066 A 
ATOM     13  C   LIG A   1      -5.241   3.785 128.270  0.00  0.00    +0.064 A 
ATOM     14  C   LIG A   1      -4.413   4.421 129.209  0.00  0.00    +0.163 A 
ATOM     15  C   LIG A   1      -5.009   5.126 130.265  0.00  0.00    +0.165 A 
ATOM     16  C   LIG A   1      -6.403   5.215 130.325  0.00  0.00    +0.095 A 
ATOM     17  C   LIG A   1      -7.236   4.555 129.424  0.00  0.00    +0.135 A 
BRANCH  15  18
ATOM     18  O   LIG A   1      -4.244   5.817 131.166  0.00  0.00    -0.491 OA
ATOM     19  C   LIG A   1      -3.968   7.186 130.873  0.00  0.00    +0.277 C 
ENDBRANCH  15  18
BRANCH  14  20
ATOM     20  O   LIG A   1      -3.070   4.252 128.968  0.00  0.00    -0.489 OA
BRANCH  20  21
ATOM     21  C   LIG A   1      -2.594   4.464 127.636  0.00  0.00    +0.226 C 
ATOM     22  C   LIG A   1      -1.918   3.216 127.087  0.00  0.00    +0.048 C 
ENDBRANCH  20  21
ENDBRANCH  14  20
BRANCH  17  23
ATOM     23  O   LIG A   1      -8.607   4.635 129.492  0.00  0.00    -0.491 OA
BRANCH  23  24
ATOM     24  C   LIG A   1      -9.189   4.292 130.757  0.00  0.00    +0.226 C 
ATOM     25  C   LIG A   1     -10.438   3.459 130.539  0.00  0.00    +0.048 C 
ENDBRANCH  23  24
ENDBRANCH  17  23
ENDBRANCH  10  12
BRANCH   5  26
ATOM     26  O   LIG A   1      -7.981  -2.674 124.944  0.00  0.00    -0.488 OA
ATOM     27  C   LIG A   1      -9.198  -3.348 124.641  0.00  0.00    +0.277 C 
ENDBRANCH   5  26
BRANCH  11  28
ATOM     28  O   LIG A   1      -7.330   4.351 125.548  0.00  0.00    -0.488 OA
ATOM     29  C   LIG A   1      -6.302   4.157 124.577  0.00  0.00    +0.277 C 
ENDBRANCH  11  28
BRANCH   6  30
ATOM     30  O   LIG A   1      -7.556  -2.959 127.759  0.00  0.00    -0.491 OA
ATOM     31  C   LIG A   1      -8.647  -3.648 128.366  0.00  0.00    +0.277 C 
ENDBRANCH   6  30
BRANCH   4  32
ATOM     32  O   LIG A   1      -8.338  -0.300 123.868  0.00  0.00    -0.490 OA
ATOM     33  C   LIG A   1      -7.124   0.013 123.185  0.00  0.00    +0.277 C 
ENDBRANCH   4  32
TORSDOF 10
ENDMDL
