MODEL 1
REMARK VINA RESULT:      -8.9      0.000      0.000
REMARK  Name = NuBBE_1693
REMARK  9 active torsions:
REMARK  status: ('A' for Active; 'I' for Inactive)
REMARK    1  A    between atoms: O_1  and  C_2
REMARK    2  A    between atoms: C_6  and  C_7
REMARK    3  A    between atoms: C_6  and  C_8
REMARK    4  A    between atoms: C_14  and  C_15
REMARK    5  A    between atoms: C_17  and  O_18
REMARK    6  A    between atoms: O_18  and  C_19
REMARK    7  A    between atoms: C_20  and  O_21
REMARK    8  A    between atoms: C_22  and  O_23
REMARK    9  A    between atoms: O_23  and  C_24
REMARK                            x       y       z     vdW  Elec       q    Type
REMARK                         _______ _______ _______ _____ _____    ______ ____
ROOT
ATOM      1  C   LIG A   1      -9.849   5.801 132.357  0.00  0.00    +0.142 A 
ATOM      2  C   LIG A   1     -10.611   6.505 131.405  0.00  0.00    +0.059 A 
ATOM      3  C   LIG A   1     -12.067   6.571 131.462  0.00  0.00    +0.015 C 
ATOM      4  C   LIG A   1     -12.715   7.194 130.474  0.00  0.00    +0.020 C 
ATOM      5  C   LIG A   1     -12.017   7.845 129.306  0.00  0.00    +0.123 C 
ATOM      6  C   LIG A   1     -12.348   7.080 128.019  0.00  0.00    +0.060 C 
ATOM      7  C   LIG A   1     -12.496   9.297 129.181  0.00  0.00    +0.060 C 
ATOM      8  O   LIG A   1     -10.579   7.910 129.405  0.00  0.00    -0.481 OA
ATOM      9  C   LIG A   1      -9.947   7.203 130.390  0.00  0.00    +0.136 A 
ATOM     10  C   LIG A   1      -8.552   7.234 130.348  0.00  0.00    +0.093 A 
ATOM     11  C   LIG A   1      -7.806   6.553 131.310  0.00  0.00    +0.146 A 
ATOM     12  O   LIG A   1      -6.441   6.652 131.201  0.00  0.00    -0.454 OA
ATOM     13  C   LIG A   1      -5.650   6.032 132.156  0.00  0.00    +0.140 A 
ATOM     14  C   LIG A   1      -6.144   5.283 133.151  0.00  0.00    +0.098 A 
ATOM     15  C   LIG A   1      -8.447   5.823 132.311  0.00  0.00    +0.106 A 
ATOM     16  C   LIG A   1      -7.595   5.082 133.266  0.00  0.00    +0.197 A 
ATOM     17  O   LIG A   1      -8.019   4.311 134.123  0.00  0.00    -0.287 OA
ENDROOT
BRANCH  13  18
ATOM     18  C   LIG A   1      -4.197   6.292 132.017  0.00  0.00    +0.025 A 
ATOM     19  C   LIG A   1      -3.562   6.315 130.762  0.00  0.00    +0.061 A 
ATOM     20  C   LIG A   1      -2.185   6.542 130.637  0.00  0.00    +0.166 A 
ATOM     21  C   LIG A   1      -1.432   6.723 131.795  0.00  0.00    +0.201 A 
ATOM     22  C   LIG A   1      -2.041   6.721 133.061  0.00  0.00    +0.166 A 
ATOM     23  C   LIG A   1      -3.418   6.517 133.164  0.00  0.00    +0.061 A 
BRANCH  20  24
ATOM     24  O   LIG A   1      -1.722   6.485 129.350  0.00  0.00    -0.491 OA
ATOM     25  C   LIG A   1      -2.647   6.850 128.332  0.00  0.00    +0.277 C 
ENDBRANCH  20  24
BRANCH  21  26
ATOM     26  O   LIG A   1      -0.070   6.864 131.754  0.00  0.00    -0.501 OA
ATOM     27  H   LIG A   1       0.187   6.616 130.844  0.00  0.00    +0.292 HD
ENDBRANCH  21  26
BRANCH  22  28
ATOM     28  O   LIG A   1      -1.173   6.907 134.109  0.00  0.00    -0.491 OA
ATOM     29  C   LIG A   1      -1.739   7.317 135.347  0.00  0.00    +0.277 C 
ENDBRANCH  22  28
ENDBRANCH  13  18
BRANCH   1  30
ATOM     30  O   LIG A   1     -10.480   5.107 133.355  0.00  0.00    -0.505 OA
ATOM     31  H   LIG A   1     -10.999   4.392 132.952  0.00  0.00    +0.292 HD
ENDBRANCH   1  30
TORSDOF 5
ENDMDL
MODEL 2
REMARK VINA RESULT:      -8.6      0.253      2.389
REMARK  Name = NuBBE_1693
REMARK  9 active torsions:
REMARK  status: ('A' for Active; 'I' for Inactive)
REMARK    1  A    between atoms: O_1  and  C_2
REMARK    2  A    between atoms: C_6  and  C_7
REMARK    3  A    between atoms: C_6  and  C_8
REMARK    4  A    between atoms: C_14  and  C_15
REMARK    5  A    between atoms: C_17  and  O_18
REMARK    6  A    between atoms: O_18  and  C_19
REMARK    7  A    between atoms: C_20  and  O_21
REMARK    8  A    between atoms: C_22  and  O_23
REMARK    9  A    between atoms: O_23  and  C_24
REMARK                            x       y       z     vdW  Elec       q    Type
REMARK                         _______ _______ _______ _____ _____    ______ ____
ROOT
ATOM      1  C   LIG A   1      -9.799   5.755 132.387  0.00  0.00    +0.142 A 
ATOM      2  C   LIG A   1     -10.532   6.475 131.424  0.00  0.00    +0.059 A 
ATOM      3  C   LIG A   1     -11.987   6.574 131.461  0.00  0.00    +0.015 C 
ATOM      4  C   LIG A   1     -12.608   7.210 130.464  0.00  0.00    +0.020 C 
ATOM      5  C   LIG A   1     -11.878   7.845 129.305  0.00  0.00    +0.123 C 
ATOM      6  C   LIG A   1     -12.208   7.087 128.014  0.00  0.00    +0.060 C 
ATOM      7  C   LIG A   1     -12.323   9.307 129.173  0.00  0.00    +0.060 C 
ATOM      8  O   LIG A   1     -10.441   7.878 129.424  0.00  0.00    -0.481 OA
ATOM      9  C   LIG A   1      -9.838   7.158 130.418  0.00  0.00    +0.136 A 
ATOM     10  C   LIG A   1      -8.443   7.157 130.396  0.00  0.00    +0.093 A 
ATOM     11  C   LIG A   1      -7.726   6.461 131.369  0.00  0.00    +0.146 A 
ATOM     12  O   LIG A   1      -6.357   6.529 131.279  0.00  0.00    -0.454 OA
ATOM     13  C   LIG A   1      -5.594   5.892 132.244  0.00  0.00    +0.140 A 
ATOM     14  C   LIG A   1      -6.118   5.155 133.232  0.00  0.00    +0.098 A 
ATOM     15  C   LIG A   1      -8.396   5.745 132.360  0.00  0.00    +0.106 A 
ATOM     16  C   LIG A   1      -7.575   4.986 133.328  0.00  0.00    +0.197 A 
ATOM     17  O   LIG A   1      -8.028   4.226 134.178  0.00  0.00    -0.287 OA
ENDROOT
BRANCH  13  18
ATOM     18  C   LIG A   1      -4.134   6.120 132.126  0.00  0.00    +0.025 A 
ATOM     19  C   LIG A   1      -3.318   6.315 133.254  0.00  0.00    +0.061 A 
ATOM     20  C   LIG A   1      -1.942   6.550 133.138  0.00  0.00    +0.166 A 
ATOM     21  C   LIG A   1      -1.384   6.614 131.863  0.00  0.00    +0.201 A 
ATOM     22  C   LIG A   1      -2.170   6.408 130.718  0.00  0.00    +0.166 A 
ATOM     23  C   LIG A   1      -3.535   6.151 130.855  0.00  0.00    +0.061 A 
BRANCH  20  24
ATOM     24  O   LIG A   1      -1.306   6.765 134.331  0.00  0.00    -0.491 OA
ATOM     25  C   LIG A   1      -1.378   8.086 134.853  0.00  0.00    +0.277 C 
ENDBRANCH  20  24
BRANCH  21  26
ATOM     26  O   LIG A   1      -0.062   6.924 131.670  0.00  0.00    -0.501 OA
ATOM     27  H   LIG A   1       0.388   6.652 132.493  0.00  0.00    +0.292 HD
ENDBRANCH  21  26
BRANCH  22  28
ATOM     28  O   LIG A   1      -1.484   6.505 129.532  0.00  0.00    -0.491 OA
ATOM     29  C   LIG A   1      -2.260   6.679 128.353  0.00  0.00    +0.277 C 
ENDBRANCH  22  28
ENDBRANCH  13  18
BRANCH   1  30
ATOM     30  O   LIG A   1     -10.459   5.075 133.376  0.00  0.00    -0.505 OA
ATOM     31  H   LIG A   1     -10.577   5.671 134.133  0.00  0.00    +0.292 HD
ENDBRANCH   1  30
TORSDOF 5
ENDMDL
MODEL 3
REMARK VINA RESULT:      -7.9      6.919      9.150
REMARK  Name = NuBBE_1693
REMARK  9 active torsions:
REMARK  status: ('A' for Active; 'I' for Inactive)
REMARK    1  A    between atoms: O_1  and  C_2
REMARK    2  A    between atoms: C_6  and  C_7
REMARK    3  A    between atoms: C_6  and  C_8
REMARK    4  A    between atoms: C_14  and  C_15
REMARK    5  A    between atoms: C_17  and  O_18
REMARK    6  A    between atoms: O_18  and  C_19
REMARK    7  A    between atoms: C_20  and  O_21
REMARK    8  A    between atoms: C_22  and  O_23
REMARK    9  A    between atoms: O_23  and  C_24
REMARK                            x       y       z     vdW  Elec       q    Type
REMARK                         _______ _______ _______ _____ _____    ______ ____
ROOT
ATOM      1  C   LIG A   1      -7.162   1.637 124.713  0.00  0.00    +0.142 A 
ATOM      2  C   LIG A   1      -7.383   0.271 124.450  0.00  0.00    +0.059 A 
ATOM      3  C   LIG A   1      -6.887  -0.384 123.245  0.00  0.00    +0.015 C 
ATOM      4  C   LIG A   1      -7.210  -1.663 123.037  0.00  0.00    +0.020 C 
ATOM      5  C   LIG A   1      -8.054  -2.471 123.993  0.00  0.00    +0.123 C 
ATOM      6  C   LIG A   1      -9.393  -2.814 123.330  0.00  0.00    +0.060 C 
ATOM      7  C   LIG A   1      -7.309  -3.764 124.350  0.00  0.00    +0.060 C 
ATOM      8  O   LIG A   1      -8.352  -1.827 125.249  0.00  0.00    -0.481 OA
ATOM      9  C   LIG A   1      -8.068  -0.497 125.399  0.00  0.00    +0.136 A 
ATOM     10  C   LIG A   1      -8.487   0.072 126.602  0.00  0.00    +0.093 A 
ATOM     11  C   LIG A   1      -8.241   1.420 126.863  0.00  0.00    +0.146 A 
ATOM     12  O   LIG A   1      -8.673   1.891 128.078  0.00  0.00    -0.454 OA
ATOM     13  C   LIG A   1      -8.417   3.213 128.410  0.00  0.00    +0.140 A 
ATOM     14  C   LIG A   1      -7.823   4.080 127.580  0.00  0.00    +0.098 A 
ATOM     15  C   LIG A   1      -7.591   2.213 125.918  0.00  0.00    +0.106 A 
ATOM     16  C   LIG A   1      -7.410   3.646 126.237  0.00  0.00    +0.197 A 
ATOM     17  O   LIG A   1      -6.960   4.481 125.458  0.00  0.00    -0.287 OA
ENDROOT
BRANCH  13  18
ATOM     18  C   LIG A   1      -8.820   3.593 129.785  0.00  0.00    +0.025 A 
ATOM     19  C   LIG A   1      -9.477   4.806 130.058  0.00  0.00    +0.061 A 
ATOM     20  C   LIG A   1      -9.838   5.171 131.362  0.00  0.00    +0.166 A 
ATOM     21  C   LIG A   1      -9.509   4.313 132.409  0.00  0.00    +0.201 A 
ATOM     22  C   LIG A   1      -8.868   3.087 132.164  0.00  0.00    +0.166 A 
ATOM     23  C   LIG A   1      -8.537   2.730 130.856  0.00  0.00    +0.061 A 
BRANCH  20  24
ATOM     24  O   LIG A   1     -10.427   6.404 131.457  0.00  0.00    -0.491 OA
ATOM     25  C   LIG A   1     -11.849   6.422 131.458  0.00  0.00    +0.277 C 
ENDBRANCH  20  24
BRANCH  21  26
ATOM     26  O   LIG A   1      -9.755   4.643 133.716  0.00  0.00    -0.501 OA
ATOM     27  H   LIG A   1     -10.718   4.808 133.762  0.00  0.00    +0.292 HD
ENDBRANCH  21  26
BRANCH  22  28
ATOM     28  O   LIG A   1      -8.605   2.349 133.293  0.00  0.00    -0.491 OA
ATOM     29  C   LIG A   1      -7.238   2.104 133.595  0.00  0.00    +0.277 C 
ENDBRANCH  22  28
ENDBRANCH  13  18
BRANCH   1  30
ATOM     30  O   LIG A   1      -6.499   2.408 123.795  0.00  0.00    -0.505 OA
ATOM     31  H   LIG A   1      -6.660   3.342 124.004  0.00  0.00    +0.292 HD
ENDBRANCH   1  30
TORSDOF 5
ENDMDL
MODEL 4
REMARK VINA RESULT:      -7.9      6.928      9.211
REMARK  Name = NuBBE_1693
REMARK  9 active torsions:
REMARK  status: ('A' for Active; 'I' for Inactive)
REMARK    1  A    between atoms: O_1  and  C_2
REMARK    2  A    between atoms: C_6  and  C_7
REMARK    3  A    between atoms: C_6  and  C_8
REMARK    4  A    between atoms: C_14  and  C_15
REMARK    5  A    between atoms: C_17  and  O_18
REMARK    6  A    between atoms: O_18  and  C_19
REMARK    7  A    between atoms: C_20  and  O_21
REMARK    8  A    between atoms: C_22  and  O_23
REMARK    9  A    between atoms: O_23  and  C_24
REMARK                            x       y       z     vdW  Elec       q    Type
REMARK                         _______ _______ _______ _____ _____    ______ ____
ROOT
ATOM      1  C   LIG A   1      -7.308   1.629 124.812  0.00  0.00    +0.142 A 
ATOM      2  C   LIG A   1      -7.468   0.259 124.524  0.00  0.00    +0.059 A 
ATOM      3  C   LIG A   1      -7.029  -0.331 123.264  0.00  0.00    +0.015 C 
ATOM      4  C   LIG A   1      -7.291  -1.622 123.041  0.00  0.00    +0.020 C 
ATOM      5  C   LIG A   1      -8.007  -2.506 124.032  0.00  0.00    +0.123 C 
ATOM      6  C   LIG A   1      -9.371  -2.914 123.465  0.00  0.00    +0.060 C 
ATOM      7  C   LIG A   1      -7.160  -3.759 124.290  0.00  0.00    +0.060 C 
ATOM      8  O   LIG A   1      -8.243  -1.916 125.327  0.00  0.00    -0.481 OA
ATOM      9  C   LIG A   1      -8.028  -0.576 125.497  0.00  0.00    +0.136 A 
ATOM     10  C   LIG A   1      -8.384  -0.066 126.747  0.00  0.00    +0.093 A 
ATOM     11  C   LIG A   1      -8.199   1.287 127.031  0.00  0.00    +0.146 A 
ATOM     12  O   LIG A   1      -8.561   1.697 128.290  0.00  0.00    -0.454 OA
ATOM     13  C   LIG A   1      -8.360   3.023 128.643  0.00  0.00    +0.140 A 
ATOM     14  C   LIG A   1      -7.885   3.948 127.798  0.00  0.00    +0.098 A 
ATOM     15  C   LIG A   1      -7.675   2.144 126.064  0.00  0.00    +0.106 A 
ATOM     16  C   LIG A   1      -7.555   3.576 126.414  0.00  0.00    +0.197 A 
ATOM     17  O   LIG A   1      -7.219   4.458 125.629  0.00  0.00    -0.287 OA
ENDROOT
BRANCH  13  18
ATOM     18  C   LIG A   1      -8.674   3.340 130.056  0.00  0.00    +0.025 A 
ATOM     19  C   LIG A   1      -8.257   2.513 131.115  0.00  0.00    +0.061 A 
ATOM     20  C   LIG A   1      -8.574   2.806 132.448  0.00  0.00    +0.166 A 
ATOM     21  C   LIG A   1      -9.344   3.935 132.716  0.00  0.00    +0.201 A 
ATOM     22  C   LIG A   1      -9.761   4.788 131.681  0.00  0.00    +0.166 A 
ATOM     23  C   LIG A   1      -9.416   4.493 130.362  0.00  0.00    +0.061 A 
BRANCH  20  24
ATOM     24  O   LIG A   1      -8.131   1.874 133.347  0.00  0.00    -0.491 OA
ATOM     25  C   LIG A   1      -6.762   1.963 133.723  0.00  0.00    +0.277 C 
ENDBRANCH  20  24
BRANCH  21  26
ATOM     26  O   LIG A   1      -9.763   4.237 133.986  0.00  0.00    -0.501 OA
ATOM     27  H   LIG A   1      -9.578   3.435 134.514  0.00  0.00    +0.292 HD
ENDBRANCH  21  26
BRANCH  22  28
ATOM     28  O   LIG A   1     -10.516   5.859 132.097  0.00  0.00    -0.491 OA
ATOM     29  C   LIG A   1     -11.559   6.285 131.230  0.00  0.00    +0.277 C 
ENDBRANCH  22  28
ENDBRANCH  13  18
BRANCH   1  30
ATOM     30  O   LIG A   1      -6.767   2.464 123.871  0.00  0.00    -0.505 OA
ATOM     31  H   LIG A   1      -7.489   2.845 123.346  0.00  0.00    +0.292 HD
ENDBRANCH   1  30
TORSDOF 5
ENDMDL
MODEL 5
REMARK VINA RESULT:      -7.6      1.616      2.117
REMARK  Name = NuBBE_1693
REMARK  9 active torsions:
REMARK  status: ('A' for Active; 'I' for Inactive)
REMARK    1  A    between atoms: O_1  and  C_2
REMARK    2  A    between atoms: C_6  and  C_7
REMARK    3  A    between atoms: C_6  and  C_8
REMARK    4  A    between atoms: C_14  and  C_15
REMARK    5  A    between atoms: C_17  and  O_18
REMARK    6  A    between atoms: O_18  and  C_19
REMARK    7  A    between atoms: C_20  and  O_21
REMARK    8  A    between atoms: C_22  and  O_23
REMARK    9  A    between atoms: O_23  and  C_24
REMARK                            x       y       z     vdW  Elec       q    Type
REMARK                         _______ _______ _______ _____ _____    ______ ____
ROOT
ATOM      1  C   LIG A   1     -10.221   4.843 130.915  0.00  0.00    +0.142 A 
ATOM      2  C   LIG A   1     -10.830   5.853 130.146  0.00  0.00    +0.059 A 
ATOM      3  C   LIG A   1     -12.178   5.718 129.601  0.00  0.00    +0.015 C 
ATOM      4  C   LIG A   1     -12.648   6.692 128.817  0.00  0.00    +0.020 C 
ATOM      5  C   LIG A   1     -11.861   7.933 128.474  0.00  0.00    +0.123 C 
ATOM      6  C   LIG A   1     -11.522   7.929 126.979  0.00  0.00    +0.060 C 
ATOM      7  C   LIG A   1     -12.704   9.170 128.809  0.00  0.00    +0.060 C 
ATOM      8  O   LIG A   1     -10.620   8.095 129.192  0.00  0.00    -0.481 OA
ATOM      9  C   LIG A   1     -10.137   7.050 129.931  0.00  0.00    +0.136 A 
ATOM     10  C   LIG A   1      -8.880   7.252 130.504  0.00  0.00    +0.093 A 
ATOM     11  C   LIG A   1      -8.297   6.254 131.284  0.00  0.00    +0.146 A 
ATOM     12  O   LIG A   1      -7.067   6.545 131.821  0.00  0.00    -0.454 OA
ATOM     13  C   LIG A   1      -6.458   5.608 132.640  0.00  0.00    +0.140 A 
ATOM     14  C   LIG A   1      -6.977   4.398 132.890  0.00  0.00    +0.098 A 
ATOM     15  C   LIG A   1      -8.954   5.040 131.483  0.00  0.00    +0.106 A 
ATOM     16  C   LIG A   1      -8.255   4.007 132.276  0.00  0.00    +0.197 A 
ATOM     17  O   LIG A   1      -8.661   2.860 132.436  0.00  0.00    -0.287 OA
ENDROOT
BRANCH  13  18
ATOM     18  C   LIG A   1      -5.192   6.060 133.262  0.00  0.00    +0.025 A 
ATOM     19  C   LIG A   1      -4.146   6.615 132.501  0.00  0.00    +0.061 A 
ATOM     20  C   LIG A   1      -2.942   7.024 133.090  0.00  0.00    +0.166 A 
ATOM     21  C   LIG A   1      -2.779   6.847 134.462  0.00  0.00    +0.201 A 
ATOM     22  C   LIG A   1      -3.811   6.311 135.250  0.00  0.00    +0.166 A 
ATOM     23  C   LIG A   1      -5.012   5.932 134.649  0.00  0.00    +0.061 A 
BRANCH  20  24
ATOM     24  O   LIG A   1      -2.016   7.497 132.201  0.00  0.00    -0.491 OA
ATOM     25  C   LIG A   1      -1.400   6.530 131.359  0.00  0.00    +0.277 C 
ENDBRANCH  20  24
BRANCH  21  26
ATOM     26  O   LIG A   1      -1.599   7.145 135.092  0.00  0.00    -0.501 OA
ATOM     27  H   LIG A   1      -0.965   7.334 134.372  0.00  0.00    +0.292 HD
ENDBRANCH  21  26
BRANCH  22  28
ATOM     28  O   LIG A   1      -3.505   6.193 136.584  0.00  0.00    -0.491 OA
ATOM     29  C   LIG A   1      -3.600   4.894 137.153  0.00  0.00    +0.277 C 
ENDBRANCH  22  28
ENDBRANCH  13  18
BRANCH   1  30
ATOM     30  O   LIG A   1     -10.881   3.662 131.132  0.00  0.00    -0.505 OA
ATOM     31  H   LIG A   1     -11.254   3.358 130.289  0.00  0.00    +0.292 HD
ENDBRANCH   1  30
TORSDOF 5
ENDMDL
MODEL 6
REMARK VINA RESULT:      -7.6      1.627      3.018
REMARK  Name = NuBBE_1693
REMARK  9 active torsions:
REMARK  status: ('A' for Active; 'I' for Inactive)
REMARK    1  A    between atoms: O_1  and  C_2
REMARK    2  A    between atoms: C_6  and  C_7
REMARK    3  A    between atoms: C_6  and  C_8
REMARK    4  A    between atoms: C_14  and  C_15
REMARK    5  A    between atoms: C_17  and  O_18
REMARK    6  A    between atoms: O_18  and  C_19
REMARK    7  A    between atoms: C_20  and  O_21
REMARK    8  A    between atoms: C_22  and  O_23
REMARK    9  A    between atoms: O_23  and  C_24
REMARK                            x       y       z     vdW  Elec       q    Type
REMARK                         _______ _______ _______ _____ _____    ______ ____
ROOT
ATOM      1  C   LIG A   1     -10.226   4.843 130.904  0.00  0.00    +0.142 A 
ATOM      2  C   LIG A   1     -10.847   5.848 130.137  0.00  0.00    +0.059 A 
ATOM      3  C   LIG A   1     -12.193   5.700 129.594  0.00  0.00    +0.015 C 
ATOM      4  C   LIG A   1     -12.675   6.670 128.813  0.00  0.00    +0.020 C 
ATOM      5  C   LIG A   1     -11.901   7.920 128.471  0.00  0.00    +0.123 C 
ATOM      6  C   LIG A   1     -11.565   7.923 126.976  0.00  0.00    +0.060 C 
ATOM      7  C   LIG A   1     -12.758   9.147 128.809  0.00  0.00    +0.060 C 
ATOM      8  O   LIG A   1     -10.662   8.094 129.188  0.00  0.00    -0.481 OA
ATOM      9  C   LIG A   1     -10.167   7.053 129.924  0.00  0.00    +0.136 A 
ATOM     10  C   LIG A   1      -8.912   7.267 130.496  0.00  0.00    +0.093 A 
ATOM     11  C   LIG A   1      -8.316   6.274 131.273  0.00  0.00    +0.146 A 
ATOM     12  O   LIG A   1      -7.089   6.577 131.810  0.00  0.00    -0.454 OA
ATOM     13  C   LIG A   1      -6.470   5.644 132.627  0.00  0.00    +0.140 A 
ATOM     14  C   LIG A   1      -6.975   4.429 132.874  0.00  0.00    +0.098 A 
ATOM     15  C   LIG A   1      -8.961   5.053 131.471  0.00  0.00    +0.106 A 
ATOM     16  C   LIG A   1      -8.249   4.025 132.261  0.00  0.00    +0.197 A 
ATOM     17  O   LIG A   1      -8.643   2.873 132.420  0.00  0.00    -0.287 OA
ENDROOT
BRANCH  13  18
ATOM     18  C   LIG A   1      -5.207   6.110 133.248  0.00  0.00    +0.025 A 
ATOM     19  C   LIG A   1      -5.031   6.139 134.643  0.00  0.00    +0.061 A 
ATOM     20  C   LIG A   1      -3.843   6.598 135.227  0.00  0.00    +0.166 A 
ATOM     21  C   LIG A   1      -2.827   7.059 134.393  0.00  0.00    +0.201 A 
ATOM     22  C   LIG A   1      -2.967   7.027 132.996  0.00  0.00    +0.166 A 
ATOM     23  C   LIG A   1      -4.149   6.544 132.432  0.00  0.00    +0.061 A 
BRANCH  20  24
ATOM     24  O   LIG A   1      -3.857   6.604 136.596  0.00  0.00    -0.491 OA
ATOM     25  C   LIG A   1      -4.672   7.593 137.213  0.00  0.00    +0.277 C 
ENDBRANCH  20  24
BRANCH  21  26
ATOM     26  O   LIG A   1      -1.672   7.600 134.896  0.00  0.00    -0.501 OA
ATOM     27  H   LIG A   1      -0.958   7.005 134.597  0.00  0.00    +0.292 HD
ENDBRANCH  21  26
BRANCH  22  28
ATOM     28  O   LIG A   1      -1.885   7.516 132.305  0.00  0.00    -0.491 OA
ATOM     29  C   LIG A   1      -1.098   6.571 131.592  0.00  0.00    +0.277 C 
ENDBRANCH  22  28
ENDBRANCH  13  18
BRANCH   1  30
ATOM     30  O   LIG A   1     -10.873   3.655 131.120  0.00  0.00    -0.505 OA
ATOM     31  H   LIG A   1     -10.696   3.067 130.368  0.00  0.00    +0.292 HD
ENDBRANCH   1  30
TORSDOF 5
ENDMDL
MODEL 7
REMARK VINA RESULT:      -7.6      7.017      9.198
REMARK  Name = NuBBE_1693
REMARK  9 active torsions:
REMARK  status: ('A' for Active; 'I' for Inactive)
REMARK    1  A    between atoms: O_1  and  C_2
REMARK    2  A    between atoms: C_6  and  C_7
REMARK    3  A    between atoms: C_6  and  C_8
REMARK    4  A    between atoms: C_14  and  C_15
REMARK    5  A    between atoms: C_17  and  O_18
REMARK    6  A    between atoms: O_18  and  C_19
REMARK    7  A    between atoms: C_20  and  O_21
REMARK    8  A    between atoms: C_22  and  O_23
REMARK    9  A    between atoms: O_23  and  C_24
REMARK                            x       y       z     vdW  Elec       q    Type
REMARK                         _______ _______ _______ _____ _____    ______ ____
ROOT
ATOM      1  C   LIG A   1      -6.645   4.450 129.055  0.00  0.00    +0.142 A 
ATOM      2  C   LIG A   1      -7.494   4.828 130.113  0.00  0.00    +0.059 A 
ATOM      3  C   LIG A   1      -7.286   6.047 130.886  0.00  0.00    +0.015 C 
ATOM      4  C   LIG A   1      -8.093   6.289 131.923  0.00  0.00    +0.020 C 
ATOM      5  C   LIG A   1      -9.219   5.369 132.329  0.00  0.00    +0.123 C 
ATOM      6  C   LIG A   1      -8.905   4.744 133.693  0.00  0.00    +0.060 C 
ATOM      7  C   LIG A   1     -10.519   6.179 132.420  0.00  0.00    +0.060 C 
ATOM      8  O   LIG A   1      -9.491   4.286 131.416  0.00  0.00    -0.481 OA
ATOM      9  C   LIG A   1      -8.605   4.028 130.406  0.00  0.00    +0.136 A 
ATOM     10  C   LIG A   1      -8.887   2.898 129.637  0.00  0.00    +0.093 A 
ATOM     11  C   LIG A   1      -8.053   2.547 128.576  0.00  0.00    +0.146 A 
ATOM     12  O   LIG A   1      -8.416   1.430 127.863  0.00  0.00    -0.454 OA
ATOM     13  C   LIG A   1      -7.648   1.058 126.771  0.00  0.00    +0.140 A 
ATOM     14  C   LIG A   1      -6.527   1.695 126.405  0.00  0.00    +0.098 A 
ATOM     15  C   LIG A   1      -6.922   3.309 128.286  0.00  0.00    +0.106 A 
ATOM     16  C   LIG A   1      -6.052   2.849 127.182  0.00  0.00    +0.197 A 
ATOM     17  O   LIG A   1      -4.972   3.353 126.891  0.00  0.00    -0.287 OA
ENDROOT
BRANCH  13  18
ATOM     18  C   LIG A   1      -8.185  -0.088 126.001  0.00  0.00    +0.025 A 
ATOM     19  C   LIG A   1      -8.556   0.032 124.649  0.00  0.00    +0.061 A 
ATOM     20  C   LIG A   1      -9.082  -1.049 123.930  0.00  0.00    +0.166 A 
ATOM     21  C   LIG A   1      -9.260  -2.263 124.590  0.00  0.00    +0.201 A 
ATOM     22  C   LIG A   1      -8.884  -2.418 125.934  0.00  0.00    +0.166 A 
ATOM     23  C   LIG A   1      -8.340  -1.336 126.627  0.00  0.00    +0.061 A 
BRANCH  20  24
ATOM     24  O   LIG A   1      -9.434  -0.748 122.642  0.00  0.00    -0.491 OA
ATOM     25  C   LIG A   1     -10.174   0.452 122.456  0.00  0.00    +0.277 C 
ENDBRANCH  20  24
BRANCH  21  26
ATOM     26  O   LIG A   1      -9.847  -3.338 123.974  0.00  0.00    -0.501 OA
ATOM     27  H   LIG A   1      -9.407  -3.407 123.104  0.00  0.00    +0.292 HD
ENDBRANCH  21  26
BRANCH  22  28
ATOM     28  O   LIG A   1      -9.123  -3.669 126.450  0.00  0.00    -0.491 OA
ATOM     29  C   LIG A   1      -8.814  -3.866 127.824  0.00  0.00    +0.277 C 
ENDBRANCH  22  28
ENDBRANCH  13  18
BRANCH   1  30
ATOM     30  O   LIG A   1      -5.550   5.216 128.755  0.00  0.00    -0.505 OA
ATOM     31  H   LIG A   1      -4.868   4.641 128.371  0.00  0.00    +0.292 HD
ENDBRANCH   1  30
TORSDOF 5
ENDMDL
MODEL 8
REMARK VINA RESULT:      -7.5      5.075      6.369
REMARK  Name = NuBBE_1693
REMARK  9 active torsions:
REMARK  status: ('A' for Active; 'I' for Inactive)
REMARK    1  A    between atoms: O_1  and  C_2
REMARK    2  A    between atoms: C_6  and  C_7
REMARK    3  A    between atoms: C_6  and  C_8
REMARK    4  A    between atoms: C_14  and  C_15
REMARK    5  A    between atoms: C_17  and  O_18
REMARK    6  A    between atoms: O_18  and  C_19
REMARK    7  A    between atoms: C_20  and  O_21
REMARK    8  A    between atoms: C_22  and  O_23
REMARK    9  A    between atoms: O_23  and  C_24
REMARK                            x       y       z     vdW  Elec       q    Type
REMARK                         _______ _______ _______ _____ _____    ______ ____
ROOT
ATOM      1  C   LIG A   1      -9.998   5.574 132.282  0.00  0.00    +0.142 A 
ATOM      2  C   LIG A   1     -10.636   6.096 131.141  0.00  0.00    +0.059 A 
ATOM      3  C   LIG A   1     -11.088   7.481 131.060  0.00  0.00    +0.015 C 
ATOM      4  C   LIG A   1     -11.754   7.871 129.970  0.00  0.00    +0.020 C 
ATOM      5  C   LIG A   1     -12.055   6.953 128.810  0.00  0.00    +0.123 C 
ATOM      6  C   LIG A   1     -13.566   6.714 128.723  0.00  0.00    +0.060 C 
ATOM      7  C   LIG A   1     -11.561   7.607 127.513  0.00  0.00    +0.060 C 
ATOM      8  O   LIG A   1     -11.421   5.659 128.866  0.00  0.00    -0.481 OA
ATOM      9  C   LIG A   1     -10.806   5.268 130.024  0.00  0.00    +0.136 A 
ATOM     10  C   LIG A   1     -10.314   3.962 130.031  0.00  0.00    +0.093 A 
ATOM     11  C   LIG A   1      -9.662   3.464 131.158  0.00  0.00    +0.146 A 
ATOM     12  O   LIG A   1      -9.196   2.175 131.069  0.00  0.00    -0.454 OA
ATOM     13  C   LIG A   1      -8.502   1.642 132.143  0.00  0.00    +0.140 A 
ATOM     14  C   LIG A   1      -8.312   2.295 133.297  0.00  0.00    +0.098 A 
ATOM     15  C   LIG A   1      -9.512   4.258 132.294  0.00  0.00    +0.106 A 
ATOM     16  C   LIG A   1      -8.858   3.649 133.472  0.00  0.00    +0.197 A 
ATOM     17  O   LIG A   1      -8.760   4.189 134.570  0.00  0.00    -0.287 OA
ENDROOT
BRANCH  13  18
ATOM     18  C   LIG A   1      -7.942   0.290 131.907  0.00  0.00    +0.025 A 
ATOM     19  C   LIG A   1      -8.255  -0.454 130.755  0.00  0.00    +0.061 A 
ATOM     20  C   LIG A   1      -7.740  -1.739 130.544  0.00  0.00    +0.166 A 
ATOM     21  C   LIG A   1      -6.917  -2.295 131.522  0.00  0.00    +0.201 A 
ATOM     22  C   LIG A   1      -6.574  -1.570 132.675  0.00  0.00    +0.166 A 
ATOM     23  C   LIG A   1      -7.078  -0.281 132.856  0.00  0.00    +0.061 A 
BRANCH  20  24
ATOM     24  O   LIG A   1      -8.182  -2.340 129.396  0.00  0.00    -0.491 OA
ATOM     25  C   LIG A   1      -7.487  -2.001 128.202  0.00  0.00    +0.277 C 
ENDBRANCH  20  24
BRANCH  21  26
ATOM     26  O   LIG A   1      -6.446  -3.578 131.423  0.00  0.00    -0.501 OA
ATOM     27  H   LIG A   1      -7.222  -4.149 131.586  0.00  0.00    +0.292 HD
ENDBRANCH  21  26
BRANCH  22  28
ATOM     28  O   LIG A   1      -5.759  -2.247 133.550  0.00  0.00    -0.491 OA
ATOM     29  C   LIG A   1      -4.438  -1.748 133.715  0.00  0.00    +0.277 C 
ENDBRANCH  22  28
ENDBRANCH  13  18
BRANCH   1  30
ATOM     30  O   LIG A   1      -9.827   6.366 133.387  0.00  0.00    -0.505 OA
ATOM     31  H   LIG A   1      -9.313   5.870 134.045  0.00  0.00    +0.292 HD
ENDBRANCH   1  30
TORSDOF 5
ENDMDL
MODEL 9
REMARK VINA RESULT:      -7.5      7.296      8.941
REMARK  Name = NuBBE_1693
REMARK  9 active torsions:
REMARK  status: ('A' for Active; 'I' for Inactive)
REMARK    1  A    between atoms: O_1  and  C_2
REMARK    2  A    between atoms: C_6  and  C_7
REMARK    3  A    between atoms: C_6  and  C_8
REMARK    4  A    between atoms: C_14  and  C_15
REMARK    5  A    between atoms: C_17  and  O_18
REMARK    6  A    between atoms: O_18  and  C_19
REMARK    7  A    between atoms: C_20  and  O_21
REMARK    8  A    between atoms: C_22  and  O_23
REMARK    9  A    between atoms: O_23  and  C_24
REMARK                            x       y       z     vdW  Elec       q    Type
REMARK                         _______ _______ _______ _____ _____    ______ ____
ROOT
ATOM      1  C   LIG A   1      -7.836  -2.278 127.883  0.00  0.00    +0.142 A 
ATOM      2  C   LIG A   1      -7.872  -2.293 126.476  0.00  0.00    +0.059 A 
ATOM      3  C   LIG A   1      -7.827  -3.531 125.705  0.00  0.00    +0.015 C 
ATOM      4  C   LIG A   1      -7.787  -3.450 124.372  0.00  0.00    +0.020 C 
ATOM      5  C   LIG A   1      -7.799  -2.141 123.621  0.00  0.00    +0.123 C 
ATOM      6  C   LIG A   1      -6.452  -1.942 122.915  0.00  0.00    +0.060 C 
ATOM      7  C   LIG A   1      -8.926  -2.171 122.580  0.00  0.00    +0.060 C 
ATOM      8  O   LIG A   1      -8.036  -0.969 124.427  0.00  0.00    -0.481 OA
ATOM      9  C   LIG A   1      -8.001  -1.080 125.790  0.00  0.00    +0.136 A 
ATOM     10  C   LIG A   1      -8.132   0.119 126.492  0.00  0.00    +0.093 A 
ATOM     11  C   LIG A   1      -8.119   0.120 127.886  0.00  0.00    +0.146 A 
ATOM     12  O   LIG A   1      -8.270   1.343 128.493  0.00  0.00    -0.454 OA
ATOM     13  C   LIG A   1      -8.307   1.399 129.878  0.00  0.00    +0.140 A 
ATOM     14  C   LIG A   1      -8.141   0.328 130.665  0.00  0.00    +0.098 A 
ATOM     15  C   LIG A   1      -7.957  -1.072 128.590  0.00  0.00    +0.106 A 
ATOM     16  C   LIG A   1      -7.898  -0.992 130.066  0.00  0.00    +0.197 A 
ATOM     17  O   LIG A   1      -7.647  -1.940 130.805  0.00  0.00    -0.287 OA
ENDROOT
BRANCH  13  18
ATOM     18  C   LIG A   1      -8.589   2.744 130.433  0.00  0.00    +0.025 A 
ATOM     19  C   LIG A   1      -9.412   3.668 129.765  0.00  0.00    +0.061 A 
ATOM     20  C   LIG A   1      -9.660   4.946 130.283  0.00  0.00    +0.166 A 
ATOM     21  C   LIG A   1      -9.048   5.307 131.481  0.00  0.00    +0.201 A 
ATOM     22  C   LIG A   1      -8.233   4.401 132.179  0.00  0.00    +0.166 A 
ATOM     23  C   LIG A   1      -8.017   3.124 131.659  0.00  0.00    +0.061 A 
BRANCH  20  24
ATOM     24  O   LIG A   1     -10.444   5.733 129.484  0.00  0.00    -0.491 OA
ATOM     25  C   LIG A   1     -11.807   5.861 129.870  0.00  0.00    +0.277 C 
ENDBRANCH  20  24
BRANCH  21  26
ATOM     26  O   LIG A   1      -9.176   6.568 132.004  0.00  0.00    -0.501 OA
ATOM     27  H   LIG A   1     -10.112   6.639 132.277  0.00  0.00    +0.292 HD
ENDBRANCH  21  26
BRANCH  22  28
ATOM     28  O   LIG A   1      -7.696   4.899 133.342  0.00  0.00    -0.491 OA
ATOM     29  C   LIG A   1      -8.099   4.277 134.554  0.00  0.00    +0.277 C 
ENDBRANCH  22  28
ENDBRANCH  13  18
BRANCH   1  30
ATOM     30  O   LIG A   1      -7.704  -3.454 128.573  0.00  0.00    -0.505 OA
ATOM     31  H   LIG A   1      -8.200  -4.144 128.103  0.00  0.00    +0.292 HD
ENDBRANCH   1  30
TORSDOF 5
ENDMDL
