MODEL 1
REMARK VINA RESULT:      -7.5      0.000      0.000
REMARK  Name = NuBBE_105
REMARK  3 active torsions:
REMARK  status: ('A' for Active; 'I' for Inactive)
REMARK    1  A    between atoms: O_1  and  C_2
REMARK    2  A    between atoms: C_2  and  CA_3
REMARK    3  A    between atoms: C_7  and  C_8
REMARK                            x       y       z     vdW  Elec       q    Type
REMARK                         _______ _______ _______ _____ _____    ______ ____
ROOT
ATOM      1  CA  LIG A   1      -9.150   1.895 123.329  0.00  0.00    +0.148 A 
ATOM      2  C   LIG A   1      -8.986   2.513 122.100  0.00  0.00    +0.045 A 
ATOM      3  C   LIG A   1      -7.756   3.152 121.897  0.00  0.00    +0.011 A 
ATOM      4  C   LIG A   1      -6.808   3.126 122.921  0.00  0.00    +0.069 A 
ATOM      5  C   LIG A   1      -7.031   2.495 124.153  0.00  0.00    +0.063 A 
ATOM      6  C   LIG A   1      -6.036   2.421 125.269  0.00  0.00    +0.068 C 
ATOM      7  N   LIG A   1      -8.224   1.867 124.334  0.00  0.00    -0.243 NA
ATOM      8  N   LIG A   1      -5.706   3.812 122.456  0.00  0.00    -0.353 N 
ATOM      9  C   LIG A   1      -5.914   4.284 121.182  0.00  0.00    +0.048 A 
ATOM     10  C   LIG A   1      -5.073   5.026 120.346  0.00  0.00    +0.026 A 
ATOM     11  C   LIG A   1      -5.558   5.371 119.081  0.00  0.00    +0.002 A 
ATOM     12  C   LIG A   1      -6.832   4.986 118.672  0.00  0.00    +0.001 A 
ATOM     13  C   LIG A   1      -7.660   4.243 119.521  0.00  0.00    +0.010 A 
ATOM     14  C   LIG A   1      -7.194   3.884 120.803  0.00  0.00    +0.007 A 
ATOM     15  H   LIG A   1      -4.854   3.957 122.979  0.00  0.00    +0.166 HD
ENDROOT
BRANCH   1  16
ATOM     16  C   LIG A   1     -10.424   1.181 123.635  0.00  0.00    +0.355 C 
ATOM     17  OXT LIG A   1     -11.022   1.230 124.695  0.00  0.00    -0.243 OA
BRANCH  16  18
ATOM     18  O   LIG A   1     -10.828   0.464 122.557  0.00  0.00    -0.476 OA
ATOM     19  H   LIG A   1     -10.680   1.015 121.750  0.00  0.00    +0.295 HD
ENDBRANCH  16  18
ENDBRANCH   1  16
TORSDOF 2
ENDMDL
MODEL 2
REMARK VINA RESULT:      -6.9      8.066     10.591
REMARK  Name = NuBBE_105
REMARK  3 active torsions:
REMARK  status: ('A' for Active; 'I' for Inactive)
REMARK    1  A    between atoms: O_1  and  C_2
REMARK    2  A    between atoms: C_2  and  CA_3
REMARK    3  A    between atoms: C_7  and  C_8
REMARK                            x       y       z     vdW  Elec       q    Type
REMARK                         _______ _______ _______ _____ _____    ______ ____
ROOT
ATOM      1  CA  LIG A   1     -10.624   6.873 128.822  0.00  0.00    +0.148 A 
ATOM      2  C   LIG A   1      -9.662   6.000 129.301  0.00  0.00    +0.045 A 
ATOM      3  C   LIG A   1      -9.790   5.629 130.645  0.00  0.00    +0.011 A 
ATOM      4  C   LIG A   1     -10.847   6.154 131.391  0.00  0.00    +0.069 A 
ATOM      5  C   LIG A   1     -11.787   7.047 130.857  0.00  0.00    +0.063 A 
ATOM      6  C   LIG A   1     -12.949   7.616 131.610  0.00  0.00    +0.068 C 
ATOM      7  N   LIG A   1     -11.661   7.390 129.547  0.00  0.00    -0.243 NA
ATOM      8  N   LIG A   1     -10.738   5.624 132.658  0.00  0.00    -0.353 N 
ATOM      9  C   LIG A   1      -9.651   4.789 132.757  0.00  0.00    +0.048 A 
ATOM     10  C   LIG A   1      -9.173   4.056 133.849  0.00  0.00    +0.026 A 
ATOM     11  C   LIG A   1      -8.026   3.280 133.654  0.00  0.00    +0.002 A 
ATOM     12  C   LIG A   1      -7.388   3.240 132.417  0.00  0.00    +0.001 A 
ATOM     13  C   LIG A   1      -7.880   3.980 131.336  0.00  0.00    +0.010 A 
ATOM     14  C   LIG A   1      -9.035   4.772 131.507  0.00  0.00    +0.007 A 
ATOM     15  H   LIG A   1     -11.370   5.821 133.421  0.00  0.00    +0.166 HD
ENDROOT
BRANCH   1  16
ATOM     16  C   LIG A   1     -10.576   7.320 127.398  0.00  0.00    +0.355 C 
ATOM     17  OXT LIG A   1     -10.356   6.601 126.441  0.00  0.00    -0.243 OA
BRANCH  16  18
ATOM     18  O   LIG A   1     -10.816   8.653 127.319  0.00  0.00    -0.476 OA
ATOM     19  H   LIG A   1      -9.947   9.115 127.229  0.00  0.00    +0.295 HD
ENDBRANCH  16  18
ENDBRANCH   1  16
TORSDOF 2
ENDMDL
MODEL 3
REMARK VINA RESULT:      -6.9      9.997     11.073
REMARK  Name = NuBBE_105
REMARK  3 active torsions:
REMARK  status: ('A' for Active; 'I' for Inactive)
REMARK    1  A    between atoms: O_1  and  C_2
REMARK    2  A    between atoms: C_2  and  CA_3
REMARK    3  A    between atoms: C_7  and  C_8
REMARK                            x       y       z     vdW  Elec       q    Type
REMARK                         _______ _______ _______ _____ _____    ______ ____
ROOT
ATOM      1  CA  LIG A   1      -6.545   6.558 131.666  0.00  0.00    +0.148 A 
ATOM      2  C   LIG A   1      -7.558   7.020 130.843  0.00  0.00    +0.045 A 
ATOM      3  C   LIG A   1      -8.864   6.733 131.260  0.00  0.00    +0.011 A 
ATOM      4  C   LIG A   1      -9.049   6.016 132.444  0.00  0.00    +0.069 A 
ATOM      5  C   LIG A   1      -7.985   5.559 133.234  0.00  0.00    +0.063 A 
ATOM      6  C   LIG A   1      -8.135   4.809 134.520  0.00  0.00    +0.068 C 
ATOM      7  N   LIG A   1      -6.722   5.855 132.825  0.00  0.00    -0.243 NA
ATOM      8  N   LIG A   1     -10.410   5.884 132.617  0.00  0.00    -0.353 N 
ATOM      9  C   LIG A   1     -11.103   6.480 131.589  0.00  0.00    +0.048 A 
ATOM     10  C   LIG A   1     -12.481   6.576 131.367  0.00  0.00    +0.026 A 
ATOM     11  C   LIG A   1     -12.905   7.251 130.218  0.00  0.00    +0.002 A 
ATOM     12  C   LIG A   1     -11.986   7.805 129.331  0.00  0.00    +0.001 A 
ATOM     13  C   LIG A   1     -10.611   7.699 129.569  0.00  0.00    +0.010 A 
ATOM     14  C   LIG A   1     -10.157   7.022 130.721  0.00  0.00    +0.007 A 
ATOM     15  H   LIG A   1     -10.849   5.411 133.393  0.00  0.00    +0.166 HD
ENDROOT
BRANCH   1  16
ATOM     16  C   LIG A   1      -5.121   6.822 131.308  0.00  0.00    +0.355 C 
ATOM     17  OXT LIG A   1      -4.156   6.520 131.987  0.00  0.00    -0.243 OA
BRANCH  16  18
ATOM     18  O   LIG A   1      -5.050   7.450 130.108  0.00  0.00    -0.476 OA
ATOM     19  H   LIG A   1      -5.746   8.151 130.088  0.00  0.00    +0.295 HD
ENDBRANCH  16  18
ENDBRANCH   1  16
TORSDOF 2
ENDMDL
MODEL 4
REMARK VINA RESULT:      -6.4      9.854     10.538
REMARK  Name = NuBBE_105
REMARK  3 active torsions:
REMARK  status: ('A' for Active; 'I' for Inactive)
REMARK    1  A    between atoms: O_1  and  C_2
REMARK    2  A    between atoms: C_2  and  CA_3
REMARK    3  A    between atoms: C_7  and  C_8
REMARK                            x       y       z     vdW  Elec       q    Type
REMARK                         _______ _______ _______ _____ _____    ______ ____
ROOT
ATOM      1  CA  LIG A   1      -9.715   6.254 131.610  0.00  0.00    +0.148 A 
ATOM      2  C   LIG A   1      -8.597   6.826 131.026  0.00  0.00    +0.045 A 
ATOM      3  C   LIG A   1      -7.368   6.504 131.616  0.00  0.00    +0.011 A 
ATOM      4  C   LIG A   1      -7.355   5.655 132.724  0.00  0.00    +0.069 A 
ATOM      5  C   LIG A   1      -8.521   5.113 133.283  0.00  0.00    +0.063 A 
ATOM      6  C   LIG A   1      -8.555   4.181 134.454  0.00  0.00    +0.068 C 
ATOM      7  N   LIG A   1      -9.707   5.423 132.695  0.00  0.00    -0.243 NA
ATOM      8  N   LIG A   1      -6.035   5.503 133.090  0.00  0.00    -0.353 N 
ATOM      9  C   LIG A   1      -5.204   6.227 132.268  0.00  0.00    +0.048 A 
ATOM     10  C   LIG A   1      -3.811   6.360 132.286  0.00  0.00    +0.026 A 
ATOM     11  C   LIG A   1      -3.228   7.176 131.311  0.00  0.00    +0.002 A 
ATOM     12  C   LIG A   1      -4.008   7.827 130.360  0.00  0.00    +0.001 A 
ATOM     13  C   LIG A   1      -5.400   7.682 130.357  0.00  0.00    +0.010 A 
ATOM     14  C   LIG A   1      -6.013   6.866 131.331  0.00  0.00    +0.007 A 
ATOM     15  H   LIG A   1      -5.713   4.938 133.863  0.00  0.00    +0.166 HD
ENDROOT
BRANCH   1  16
ATOM     16  C   LIG A   1     -11.069   6.532 131.046  0.00  0.00    +0.355 C 
ATOM     17  OXT LIG A   1     -11.290   7.070 129.977  0.00  0.00    -0.243 OA
BRANCH  16  18
ATOM     18  O   LIG A   1     -12.028   6.096 131.901  0.00  0.00    -0.476 OA
ATOM     19  H   LIG A   1     -12.829   6.660 131.774  0.00  0.00    +0.295 HD
ENDBRANCH  16  18
ENDBRANCH   1  16
TORSDOF 2
ENDMDL
MODEL 5
REMARK VINA RESULT:      -6.4      4.659      8.018
REMARK  Name = NuBBE_105
REMARK  3 active torsions:
REMARK  status: ('A' for Active; 'I' for Inactive)
REMARK    1  A    between atoms: O_1  and  C_2
REMARK    2  A    between atoms: C_2  and  CA_3
REMARK    3  A    between atoms: C_7  and  C_8
REMARK                            x       y       z     vdW  Elec       q    Type
REMARK                         _______ _______ _______ _____ _____    ______ ____
ROOT
ATOM      1  CA  LIG A   1      -8.968   0.322 124.615  0.00  0.00    +0.148 A 
ATOM      2  C   LIG A   1      -8.567   0.289 125.940  0.00  0.00    +0.045 A 
ATOM      3  C   LIG A   1      -8.438  -0.985 126.508  0.00  0.00    +0.011 A 
ATOM      4  C   LIG A   1      -8.718  -2.104 125.721  0.00  0.00    +0.069 A 
ATOM      5  C   LIG A   1      -9.132  -2.012 124.385  0.00  0.00    +0.063 A 
ATOM      6  C   LIG A   1      -9.419  -3.182 123.496  0.00  0.00    +0.068 C 
ATOM      7  N   LIG A   1      -9.242  -0.771 123.841  0.00  0.00    -0.243 NA
ATOM      8  N   LIG A   1      -8.504  -3.209 126.515  0.00  0.00    -0.353 N 
ATOM      9  C   LIG A   1      -8.108  -2.844 127.780  0.00  0.00    +0.048 A 
ATOM     10  C   LIG A   1      -7.794  -3.636 128.891  0.00  0.00    +0.026 A 
ATOM     11  C   LIG A   1      -7.417  -2.979 130.067  0.00  0.00    +0.002 A 
ATOM     12  C   LIG A   1      -7.355  -1.589 130.125  0.00  0.00    +0.001 A 
ATOM     13  C   LIG A   1      -7.671  -0.814 129.003  0.00  0.00    +0.010 A 
ATOM     14  C   LIG A   1      -8.057  -1.452 127.806  0.00  0.00    +0.007 A 
ATOM     15  H   LIG A   1      -8.623  -4.166 126.216  0.00  0.00    +0.166 HD
ENDROOT
BRANCH   1  16
ATOM     16  C   LIG A   1      -9.126   1.633 123.921  0.00  0.00    +0.355 C 
ATOM     17  OXT LIG A   1      -8.852   1.851 122.755  0.00  0.00    -0.243 OA
BRANCH  16  18
ATOM     18  O   LIG A   1      -9.624   2.558 124.779  0.00  0.00    -0.476 OA
ATOM     19  H   LIG A   1     -10.381   2.149 125.265  0.00  0.00    +0.295 HD
ENDBRANCH  16  18
ENDBRANCH   1  16
TORSDOF 2
ENDMDL
MODEL 6
REMARK VINA RESULT:      -6.4      2.250      3.568
REMARK  Name = NuBBE_105
REMARK  3 active torsions:
REMARK  status: ('A' for Active; 'I' for Inactive)
REMARK    1  A    between atoms: O_1  and  C_2
REMARK    2  A    between atoms: C_2  and  CA_3
REMARK    3  A    between atoms: C_7  and  C_8
REMARK                            x       y       z     vdW  Elec       q    Type
REMARK                         _______ _______ _______ _____ _____    ______ ____
ROOT
ATOM      1  CA  LIG A   1      -7.877   2.628 126.209  0.00  0.00    +0.148 A 
ATOM      2  C   LIG A   1      -6.884   3.227 125.454  0.00  0.00    +0.045 A 
ATOM      3  C   LIG A   1      -7.094   3.241 124.069  0.00  0.00    +0.011 A 
ATOM      4  C   LIG A   1      -8.257   2.660 123.559  0.00  0.00    +0.069 A 
ATOM      5  C   LIG A   1      -9.226   2.054 124.371  0.00  0.00    +0.063 A 
ATOM      6  C   LIG A   1     -10.497   1.442 123.872  0.00  0.00    +0.068 C 
ATOM      7  N   LIG A   1      -9.018   2.058 125.715  0.00  0.00    -0.243 NA
ATOM      8  N   LIG A   1      -8.210   2.820 122.191  0.00  0.00    -0.353 N 
ATOM      9  C   LIG A   1      -7.062   3.470 121.804  0.00  0.00    +0.048 A 
ATOM     10  C   LIG A   1      -6.616   3.828 120.527  0.00  0.00    +0.026 A 
ATOM     11  C   LIG A   1      -5.389   4.492 120.434  0.00  0.00    +0.002 A 
ATOM     12  C   LIG A   1      -4.644   4.786 121.573  0.00  0.00    +0.001 A 
ATOM     13  C   LIG A   1      -5.107   4.420 122.842  0.00  0.00    +0.010 A 
ATOM     14  C   LIG A   1      -6.341   3.748 122.963  0.00  0.00    +0.007 A 
ATOM     15  H   LIG A   1      -8.922   2.501 121.550  0.00  0.00    +0.166 HD
ENDROOT
BRANCH   1  16
ATOM     16  C   LIG A   1      -7.747   2.572 127.695  0.00  0.00    +0.355 C 
ATOM     17  OXT LIG A   1      -6.713   2.733 128.318  0.00  0.00    -0.243 OA
BRANCH  16  18
ATOM     18  O   LIG A   1      -8.953   2.315 128.260  0.00  0.00    -0.476 OA
ATOM     19  H   LIG A   1      -8.804   2.093 129.211  0.00  0.00    +0.295 HD
ENDBRANCH  16  18
ENDBRANCH   1  16
TORSDOF 2
ENDMDL
MODEL 7
REMARK VINA RESULT:      -6.3      8.225      9.924
REMARK  Name = NuBBE_105
REMARK  3 active torsions:
REMARK  status: ('A' for Active; 'I' for Inactive)
REMARK    1  A    between atoms: O_1  and  C_2
REMARK    2  A    between atoms: C_2  and  CA_3
REMARK    3  A    between atoms: C_7  and  C_8
REMARK                            x       y       z     vdW  Elec       q    Type
REMARK                         _______ _______ _______ _____ _____    ______ ____
ROOT
ATOM      1  CA  LIG A   1      -9.244   4.643 131.999  0.00  0.00    +0.148 A 
ATOM      2  C   LIG A   1     -10.227   5.614 131.922  0.00  0.00    +0.045 A 
ATOM      3  C   LIG A   1     -10.401   6.210 130.666  0.00  0.00    +0.011 A 
ATOM      4  C   LIG A   1      -9.589   5.796 129.608  0.00  0.00    +0.069 A 
ATOM      5  C   LIG A   1      -8.598   4.815 129.745  0.00  0.00    +0.063 A 
ATOM      6  C   LIG A   1      -7.722   4.324 128.635  0.00  0.00    +0.068 C 
ATOM      7  N   LIG A   1      -8.447   4.235 130.966  0.00  0.00    -0.243 NA
ATOM      8  N   LIG A   1      -9.974   6.529 128.506  0.00  0.00    -0.353 N 
ATOM      9  C   LIG A   1     -10.992   7.399 128.817  0.00  0.00    +0.048 A 
ATOM     10  C   LIG A   1     -11.669   8.321 128.011  0.00  0.00    +0.026 A 
ATOM     11  C   LIG A   1     -12.677   9.085 128.608  0.00  0.00    +0.002 A 
ATOM     12  C   LIG A   1     -12.992   8.930 129.955  0.00  0.00    +0.001 A 
ATOM     13  C   LIG A   1     -12.304   8.003 130.747  0.00  0.00    +0.010 A 
ATOM     14  C   LIG A   1     -11.282   7.221 130.168  0.00  0.00    +0.007 A 
ATOM     15  H   LIG A   1      -9.565   6.445 127.587  0.00  0.00    +0.166 HD
ENDROOT
BRANCH   1  16
ATOM     16  C   LIG A   1      -8.990   3.946 133.294  0.00  0.00    +0.355 C 
ATOM     17  OXT LIG A   1      -7.934   3.439 133.627  0.00  0.00    -0.243 OA
BRANCH  16  18
ATOM     18  O   LIG A   1     -10.112   3.956 134.058  0.00  0.00    -0.476 OA
ATOM     19  H   LIG A   1      -9.869   4.299 134.952  0.00  0.00    +0.295 HD
ENDBRANCH  16  18
ENDBRANCH   1  16
TORSDOF 2
ENDMDL
MODEL 8
REMARK VINA RESULT:      -6.2      8.083     10.005
REMARK  Name = NuBBE_105
REMARK  3 active torsions:
REMARK  status: ('A' for Active; 'I' for Inactive)
REMARK    1  A    between atoms: O_1  and  C_2
REMARK    2  A    between atoms: C_2  and  CA_3
REMARK    3  A    between atoms: C_7  and  C_8
REMARK                            x       y       z     vdW  Elec       q    Type
REMARK                         _______ _______ _______ _____ _____    ______ ____
ROOT
ATOM      1  CA  LIG A   1      -7.967   4.339 130.141  0.00  0.00    +0.148 A 
ATOM      2  C   LIG A   1      -8.751   5.338 129.588  0.00  0.00    +0.045 A 
ATOM      3  C   LIG A   1      -9.829   5.772 130.370  0.00  0.00    +0.011 A 
ATOM      4  C   LIG A   1     -10.037   5.179 131.616  0.00  0.00    +0.069 A 
ATOM      5  C   LIG A   1      -9.218   4.160 132.123  0.00  0.00    +0.063 A 
ATOM      6  C   LIG A   1      -9.388   3.513 133.462  0.00  0.00    +0.068 C 
ATOM      7  N   LIG A   1      -8.167   3.756 131.361  0.00  0.00    -0.243 NA
ATOM      8  N   LIG A   1     -11.143   5.792 132.165  0.00  0.00    -0.353 N 
ATOM      9  C   LIG A   1     -11.657   6.744 131.317  0.00  0.00    +0.048 A 
ATOM     10  C   LIG A   1     -12.763   7.587 131.472  0.00  0.00    +0.026 A 
ATOM     11  C   LIG A   1     -13.053   8.471 130.428  0.00  0.00    +0.002 A 
ATOM     12  C   LIG A   1     -12.268   8.507 129.279  0.00  0.00    +0.001 A 
ATOM     13  C   LIG A   1     -11.165   7.656 129.142  0.00  0.00    +0.010 A 
ATOM     14  C   LIG A   1     -10.851   6.755 130.181  0.00  0.00    +0.007 A 
ATOM     15  H   LIG A   1     -11.533   5.572 133.070  0.00  0.00    +0.166 HD
ENDROOT
BRANCH   1  16
ATOM     16  C   LIG A   1      -6.790   3.818 129.386  0.00  0.00    +0.355 C 
ATOM     17  OXT LIG A   1      -6.129   2.844 129.697  0.00  0.00    -0.243 OA
BRANCH  16  18
ATOM     18  O   LIG A   1      -6.557   4.588 128.293  0.00  0.00    -0.476 OA
ATOM     19  H   LIG A   1      -7.416   4.716 127.822  0.00  0.00    +0.295 HD
ENDBRANCH  16  18
ENDBRANCH   1  16
TORSDOF 2
ENDMDL
MODEL 9
REMARK VINA RESULT:      -6.1      3.888      6.278
REMARK  Name = NuBBE_105
REMARK  3 active torsions:
REMARK  status: ('A' for Active; 'I' for Inactive)
REMARK    1  A    between atoms: O_1  and  C_2
REMARK    2  A    between atoms: C_2  and  CA_3
REMARK    3  A    between atoms: C_7  and  C_8
REMARK                            x       y       z     vdW  Elec       q    Type
REMARK                         _______ _______ _______ _____ _____    ______ ____
ROOT
ATOM      1  CA  LIG A   1      -7.363   2.208 122.916  0.00  0.00    +0.148 A 
ATOM      2  C   LIG A   1      -6.589   1.066 123.039  0.00  0.00    +0.045 A 
ATOM      3  C   LIG A   1      -7.255  -0.077 123.498  0.00  0.00    +0.011 A 
ATOM      4  C   LIG A   1      -8.616   0.012 123.796  0.00  0.00    +0.069 A 
ATOM      5  C   LIG A   1      -9.350   1.199 123.665  0.00  0.00    +0.063 A 
ATOM      6  C   LIG A   1     -10.813   1.336 123.949  0.00  0.00    +0.068 C 
ATOM      7  N   LIG A   1      -8.696   2.299 123.206  0.00  0.00    -0.243 NA
ATOM      8  N   LIG A   1      -9.012  -1.241 124.212  0.00  0.00    -0.353 N 
ATOM      9  C   LIG A   1      -7.960  -2.125 124.201  0.00  0.00    +0.048 A 
ATOM     10  C   LIG A   1      -7.916  -3.480 124.548  0.00  0.00    +0.026 A 
ATOM     11  C   LIG A   1      -6.686  -4.137 124.436  0.00  0.00    +0.002 A 
ATOM     12  C   LIG A   1      -5.551  -3.464 123.993  0.00  0.00    +0.001 A 
ATOM     13  C   LIG A   1      -5.613  -2.108 123.650  0.00  0.00    +0.010 A 
ATOM     14  C   LIG A   1      -6.842  -1.422 123.756  0.00  0.00    +0.007 A 
ATOM     15  H   LIG A   1      -9.951  -1.485 124.492  0.00  0.00    +0.166 HD
ENDROOT
BRANCH   1  16
ATOM     16  C   LIG A   1      -6.743   3.474 122.426  0.00  0.00    +0.355 C 
ATOM     17  OXT LIG A   1      -5.789   4.034 122.934  0.00  0.00    -0.243 OA
BRANCH  16  18
ATOM     18  O   LIG A   1      -7.397   3.918 121.323  0.00  0.00    -0.476 OA
ATOM     19  H   LIG A   1      -7.168   3.320 120.571  0.00  0.00    +0.295 HD
ENDBRANCH  16  18
ENDBRANCH   1  16
TORSDOF 2
ENDMDL
