MODEL 1
REMARK VINA RESULT:      -7.5      0.000      0.000
REMARK  Name = NuBBE_2230
REMARK  4 active torsions:
REMARK  status: ('A' for Active; 'I' for Inactive)
REMARK    1  A    between atoms: O_1  and  C_2
REMARK    2  A    between atoms: C_12  and  C_13
REMARK    3  A    between atoms: C_12  and  C_14
REMARK    4  A    between atoms: C_18  and  C_19
REMARK                            x       y       z     vdW  Elec       q    Type
REMARK                         _______ _______ _______ _____ _____    ______ ____
ROOT
ATOM      1  C   LIG A   1      -7.397   2.704 123.304  0.00  0.00    +0.119 C 
ATOM      2  C   LIG A   1      -7.483   1.174 123.816  0.00  0.00    +0.030 C 
ATOM      3  C   LIG A   1      -7.204   1.448 125.521  0.00  0.00    -0.019 C 
ATOM      4  C   LIG A   1      -8.140   2.591 126.064  0.00  0.00    +0.037 C 
ATOM      5  C   LIG A   1      -7.345   0.314 126.525  0.00  0.00    +0.008 C 
ATOM      6  C   LIG A   1      -8.502  -0.487 126.134  0.00  0.00    +0.005 C 
ATOM      7  C   LIG A   1      -8.404  -0.872 124.676  0.00  0.00    +0.001 C 
ATOM      8  C   LIG A   1      -7.144  -1.879 124.083  0.00  0.00    -0.032 C 
ATOM      9  C   LIG A   1      -6.748  -2.216 122.537  0.00  0.00    +0.011 C 
ATOM     10  C   LIG A   1      -5.704  -1.540 124.511  0.00  0.00    +0.011 C 
ATOM     11  C   LIG A   1      -7.917  -3.143 124.366  0.00  0.00    +0.007 C 
ATOM     12  C   LIG A   1      -9.189  -2.895 123.397  0.00  0.00    +0.001 C 
ATOM     13  C   LIG A   1      -9.226  -1.276 122.619  0.00  0.00    +0.007 C 
ATOM     14  C   LIG A   1      -8.790   0.092 123.590  0.00  0.00    -0.023 C 
ATOM     15  C   LIG A   1     -10.110   0.882 123.656  0.00  0.00    +0.012 C 
ATOM     16  C   LIG A   1      -6.038   3.359 123.773  0.00  0.00    +0.039 C 
ATOM     17  C   LIG A   1      -5.995   3.475 125.298  0.00  0.00    +0.017 C 
ATOM     18  C   LIG A   1      -5.817   2.050 125.788  0.00  0.00    +0.015 C 
ATOM     19  C   LIG A   1      -7.352   3.819 125.813  0.00  0.00    -0.073 C 
ATOM     20  C   LIG A   1      -7.953   5.077 125.818  0.00  0.00    +0.008 C 
ENDROOT
BRANCH   1  21
ATOM     21  O   LIG A   1      -7.591   3.148 121.978  0.00  0.00    -0.392 OA
ATOM     22  H   LIG A   1      -8.411   3.695 122.062  0.00  0.00    +0.210 HD
ENDBRANCH   1  21
TORSDOF 1
ENDMDL
MODEL 2
REMARK VINA RESULT:      -7.3      1.597      5.421
REMARK  Name = NuBBE_2230
REMARK  4 active torsions:
REMARK  status: ('A' for Active; 'I' for Inactive)
REMARK    1  A    between atoms: O_1  and  C_2
REMARK    2  A    between atoms: C_12  and  C_13
REMARK    3  A    between atoms: C_12  and  C_14
REMARK    4  A    between atoms: C_18  and  C_19
REMARK                            x       y       z     vdW  Elec       q    Type
REMARK                         _______ _______ _______ _____ _____    ______ ____
ROOT
ATOM      1  C   LIG A   1      -6.397  -1.500 123.932  0.00  0.00    +0.119 C 
ATOM      2  C   LIG A   1      -6.923  -0.012 124.276  0.00  0.00    +0.030 C 
ATOM      3  C   LIG A   1      -8.627  -0.366 124.449  0.00  0.00    -0.019 C 
ATOM      4  C   LIG A   1      -8.848  -1.598 125.403  0.00  0.00    +0.037 C 
ATOM      5  C   LIG A   1      -9.596   0.695 124.948  0.00  0.00    +0.008 C 
ATOM      6  C   LIG A   1      -8.932   1.440 126.016  0.00  0.00    +0.005 C 
ATOM      7  C   LIG A   1      -7.574   1.915 125.556  0.00  0.00    +0.001 C 
ATOM      8  C   LIG A   1      -7.389   3.036 124.266  0.00  0.00    -0.032 C 
ATOM      9  C   LIG A   1      -6.026   3.489 123.494  0.00  0.00    +0.011 C 
ATOM     10  C   LIG A   1      -8.184   2.769 122.976  0.00  0.00    +0.011 C 
ATOM     11  C   LIG A   1      -7.497   4.228 125.186  0.00  0.00    +0.007 C 
ATOM     12  C   LIG A   1      -6.205   3.952 126.123  0.00  0.00    +0.001 C 
ATOM     13  C   LIG A   1      -5.386   2.383 125.817  0.00  0.00    +0.007 C 
ATOM     14  C   LIG A   1      -6.388   0.992 125.554  0.00  0.00    -0.023 C 
ATOM     15  C   LIG A   1      -6.057   0.113 126.774  0.00  0.00    +0.012 C 
ATOM     16  C   LIG A   1      -7.197  -2.090 122.703  0.00  0.00    +0.039 C 
ATOM     17  C   LIG A   1      -8.670  -2.292 123.067  0.00  0.00    +0.017 C 
ATOM     18  C   LIG A   1      -9.243  -0.889 123.144  0.00  0.00    +0.015 C 
ATOM     19  C   LIG A   1      -8.777  -2.755 124.482  0.00  0.00    -0.073 C 
ATOM     20  C   LIG A   1      -8.568  -4.047 124.959  0.00  0.00    +0.008 C 
ENDROOT
BRANCH   1  21
ATOM     21  O   LIG A   1      -5.053  -1.878 123.721  0.00  0.00    -0.392 OA
ATOM     22  H   LIG A   1      -4.568  -1.048 123.955  0.00  0.00    +0.210 HD
ENDBRANCH   1  21
TORSDOF 1
ENDMDL
MODEL 3
REMARK VINA RESULT:      -7.2      3.558      5.569
REMARK  Name = NuBBE_2230
REMARK  4 active torsions:
REMARK  status: ('A' for Active; 'I' for Inactive)
REMARK    1  A    between atoms: O_1  and  C_2
REMARK    2  A    between atoms: C_12  and  C_13
REMARK    3  A    between atoms: C_12  and  C_14
REMARK    4  A    between atoms: C_18  and  C_19
REMARK                            x       y       z     vdW  Elec       q    Type
REMARK                         _______ _______ _______ _____ _____    ______ ____
ROOT
ATOM      1  C   LIG A   1      -5.412  -2.540 128.664  0.00  0.00    +0.119 C 
ATOM      2  C   LIG A   1      -6.225  -2.528 127.268  0.00  0.00    +0.030 C 
ATOM      3  C   LIG A   1      -7.843  -2.334 127.904  0.00  0.00    -0.019 C 
ATOM      4  C   LIG A   1      -7.898  -1.152 128.941  0.00  0.00    +0.037 C 
ATOM      5  C   LIG A   1      -9.022  -2.095 126.973  0.00  0.00    +0.008 C 
ATOM      6  C   LIG A   1      -8.580  -1.186 125.917  0.00  0.00    +0.005 C 
ATOM      7  C   LIG A   1      -7.304  -1.695 125.289  0.00  0.00    +0.001 C 
ATOM      8  C   LIG A   1      -7.241  -3.183 124.432  0.00  0.00    -0.032 C 
ATOM      9  C   LIG A   1      -5.935  -3.993 123.885  0.00  0.00    +0.011 C 
ATOM     10  C   LIG A   1      -7.884  -4.413 125.097  0.00  0.00    +0.011 C 
ATOM     11  C   LIG A   1      -7.628  -2.535 123.125  0.00  0.00    +0.007 C 
ATOM     12  C   LIG A   1      -6.375  -1.524 122.954  0.00  0.00    +0.001 C 
ATOM     13  C   LIG A   1      -5.263  -1.473 124.364  0.00  0.00    +0.007 C 
ATOM     14  C   LIG A   1      -5.971  -1.470 125.946  0.00  0.00    -0.023 C 
ATOM     15  C   LIG A   1      -5.569  -0.085 126.484  0.00  0.00    +0.012 C 
ATOM     16  C   LIG A   1      -6.005  -3.642 129.629  0.00  0.00    +0.039 C 
ATOM     17  C   LIG A   1      -7.437  -3.287 130.036  0.00  0.00    +0.017 C 
ATOM     18  C   LIG A   1      -8.262  -3.520 128.784  0.00  0.00    +0.015 C 
ATOM     19  C   LIG A   1      -7.553  -1.811 130.221  0.00  0.00    -0.073 C 
ATOM     20  C   LIG A   1      -7.144  -1.070 131.328  0.00  0.00    +0.008 C 
ENDROOT
BRANCH   1  21
ATOM     21  O   LIG A   1      -4.011  -2.629 128.809  0.00  0.00    -0.392 OA
ATOM     22  H   LIG A   1      -3.849  -3.593 128.655  0.00  0.00    +0.210 HD
ENDBRANCH   1  21
TORSDOF 1
ENDMDL
MODEL 4
REMARK VINA RESULT:      -7.0      2.659      4.098
REMARK  Name = NuBBE_2230
REMARK  4 active torsions:
REMARK  status: ('A' for Active; 'I' for Inactive)
REMARK    1  A    between atoms: O_1  and  C_2
REMARK    2  A    between atoms: C_12  and  C_13
REMARK    3  A    between atoms: C_12  and  C_14
REMARK    4  A    between atoms: C_18  and  C_19
REMARK                            x       y       z     vdW  Elec       q    Type
REMARK                         _______ _______ _______ _____ _____    ______ ____
ROOT
ATOM      1  C   LIG A   1      -6.425   0.251 127.485  0.00  0.00    +0.119 C 
ATOM      2  C   LIG A   1      -7.078  -0.776 126.422  0.00  0.00    +0.030 C 
ATOM      3  C   LIG A   1      -7.463  -2.084 127.517  0.00  0.00    -0.019 C 
ATOM      4  C   LIG A   1      -8.234  -1.548 128.780  0.00  0.00    +0.037 C 
ATOM      5  C   LIG A   1      -8.271  -3.283 127.044  0.00  0.00    +0.008 C 
ATOM      6  C   LIG A   1      -9.322  -2.792 126.157  0.00  0.00    +0.005 C 
ATOM      7  C   LIG A   1      -8.732  -1.900 125.090  0.00  0.00    +0.001 C 
ATOM      8  C   LIG A   1      -7.623  -2.492 123.919  0.00  0.00    -0.032 C 
ATOM      9  C   LIG A   1      -6.724  -1.653 122.848  0.00  0.00    +0.011 C 
ATOM     10  C   LIG A   1      -6.450  -3.351 124.424  0.00  0.00    +0.011 C 
ATOM     11  C   LIG A   1      -8.724  -2.901 122.971  0.00  0.00    +0.007 C 
ATOM     12  C   LIG A   1      -9.387  -1.450 122.700  0.00  0.00    +0.001 C 
ATOM     13  C   LIG A   1      -8.712  -0.123 123.706  0.00  0.00    +0.007 C 
ATOM     14  C   LIG A   1      -8.397  -0.463 125.376  0.00  0.00    -0.023 C 
ATOM     15  C   LIG A   1      -9.395   0.462 126.095  0.00  0.00    +0.012 C 
ATOM     16  C   LIG A   1      -5.263  -0.462 128.284  0.00  0.00    +0.039 C 
ATOM     17  C   LIG A   1      -5.820  -1.591 129.153  0.00  0.00    +0.017 C 
ATOM     18  C   LIG A   1      -6.207  -2.679 128.169  0.00  0.00    +0.015 C 
ATOM     19  C   LIG A   1      -7.143  -1.186 129.712  0.00  0.00    -0.073 C 
ATOM     20  C   LIG A   1      -7.371  -0.348 130.802  0.00  0.00    +0.008 C 
ENDROOT
BRANCH   1  21
ATOM     21  O   LIG A   1      -5.946   1.548 127.201  0.00  0.00    -0.392 OA
ATOM     22  H   LIG A   1      -6.766   2.093 127.290  0.00  0.00    +0.210 HD
ENDBRANCH   1  21
TORSDOF 1
ENDMDL
MODEL 5
REMARK VINA RESULT:      -7.0      7.372      9.049
REMARK  Name = NuBBE_2230
REMARK  4 active torsions:
REMARK  status: ('A' for Active; 'I' for Inactive)
REMARK    1  A    between atoms: O_1  and  C_2
REMARK    2  A    between atoms: C_12  and  C_13
REMARK    3  A    between atoms: C_12  and  C_14
REMARK    4  A    between atoms: C_18  and  C_19
REMARK                            x       y       z     vdW  Elec       q    Type
REMARK                         _______ _______ _______ _____ _____    ______ ____
ROOT
ATOM      1  C   LIG A   1      -9.235   4.245 130.200  0.00  0.00    +0.119 C 
ATOM      2  C   LIG A   1      -8.232   4.033 131.448  0.00  0.00    +0.030 C 
ATOM      3  C   LIG A   1      -8.564   5.516 132.313  0.00  0.00    -0.019 C 
ATOM      4  C   LIG A   1     -10.114   5.729 132.482  0.00  0.00    +0.037 C 
ATOM      5  C   LIG A   1      -7.981   5.758 133.697  0.00  0.00    +0.008 C 
ATOM      6  C   LIG A   1      -8.044   4.499 134.434  0.00  0.00    +0.005 C 
ATOM      7  C   LIG A   1      -7.432   3.383 133.619  0.00  0.00    +0.001 C 
ATOM      8  C   LIG A   1      -5.769   3.379 133.185  0.00  0.00    -0.032 C 
ATOM      9  C   LIG A   1      -4.989   2.398 132.142  0.00  0.00    +0.011 C 
ATOM     10  C   LIG A   1      -5.186   4.677 132.598  0.00  0.00    +0.011 C 
ATOM     11  C   LIG A   1      -5.360   2.676 134.456  0.00  0.00    +0.007 C 
ATOM     12  C   LIG A   1      -6.182   1.295 134.267  0.00  0.00    +0.001 C 
ATOM     13  C   LIG A   1      -7.284   1.273 132.847  0.00  0.00    +0.007 C 
ATOM     14  C   LIG A   1      -8.209   2.704 132.526  0.00  0.00    -0.023 C 
ATOM     15  C   LIG A   1      -9.652   2.220 132.755  0.00  0.00    +0.012 C 
ATOM     16  C   LIG A   1      -8.948   5.633 129.502  0.00  0.00    +0.039 C 
ATOM     17  C   LIG A   1      -9.280   6.790 130.446  0.00  0.00    +0.017 C 
ATOM     18  C   LIG A   1      -8.183   6.758 131.495  0.00  0.00    +0.015 C 
ATOM     19  C   LIG A   1     -10.493   6.451 131.247  0.00  0.00    -0.073 C 
ATOM     20  C   LIG A   1     -11.820   6.522 130.829  0.00  0.00    +0.008 C 
ENDROOT
BRANCH   1  21
ATOM     21  O   LIG A   1      -9.455   3.333 129.146  0.00  0.00    -0.392 OA
ATOM     22  H   LIG A   1     -10.423   3.143 129.237  0.00  0.00    +0.210 HD
ENDBRANCH   1  21
TORSDOF 1
ENDMDL
MODEL 6
REMARK VINA RESULT:      -7.0      3.013      5.191
REMARK  Name = NuBBE_2230
REMARK  4 active torsions:
REMARK  status: ('A' for Active; 'I' for Inactive)
REMARK    1  A    between atoms: O_1  and  C_2
REMARK    2  A    between atoms: C_12  and  C_13
REMARK    3  A    between atoms: C_12  and  C_14
REMARK    4  A    between atoms: C_18  and  C_19
REMARK                            x       y       z     vdW  Elec       q    Type
REMARK                         _______ _______ _______ _____ _____    ______ ____
ROOT
ATOM      1  C   LIG A   1      -8.463   0.965 126.629  0.00  0.00    +0.119 C 
ATOM      2  C   LIG A   1      -7.794  -0.361 127.265  0.00  0.00    +0.030 C 
ATOM      3  C   LIG A   1      -7.399  -1.198 125.780  0.00  0.00    -0.019 C 
ATOM      4  C   LIG A   1      -6.639  -0.244 124.786  0.00  0.00    +0.037 C 
ATOM      5  C   LIG A   1      -6.576  -2.477 125.803  0.00  0.00    +0.008 C 
ATOM      6  C   LIG A   1      -5.526  -2.315 126.806  0.00  0.00    +0.005 C 
ATOM      7  C   LIG A   1      -6.122  -1.861 128.118  0.00  0.00    +0.001 C 
ATOM      8  C   LIG A   1      -7.220  -2.838 129.007  0.00  0.00    -0.032 C 
ATOM      9  C   LIG A   1      -8.123  -2.439 130.305  0.00  0.00    +0.011 C 
ATOM     10  C   LIG A   1      -8.385  -3.480 128.233  0.00  0.00    +0.011 C 
ATOM     11  C   LIG A   1      -6.111  -3.541 129.752  0.00  0.00    +0.007 C 
ATOM     12  C   LIG A   1      -5.462  -2.269 130.515  0.00  0.00    +0.001 C 
ATOM     13  C   LIG A   1      -6.156  -0.682 130.037  0.00  0.00    +0.007 C 
ATOM     14  C   LIG A   1      -6.474  -0.419 128.353  0.00  0.00    -0.023 C 
ATOM     15  C   LIG A   1      -5.489   0.712 128.005  0.00  0.00    +0.012 C 
ATOM     16  C   LIG A   1      -9.621   0.565 125.631  0.00  0.00    +0.039 C 
ATOM     17  C   LIG A   1      -9.054  -0.182 124.421  0.00  0.00    +0.017 C 
ATOM     18  C   LIG A   1      -8.651  -1.541 124.962  0.00  0.00    +0.015 C 
ATOM     19  C   LIG A   1      -7.739   0.409 124.039  0.00  0.00    -0.073 C 
ATOM     20  C   LIG A   1      -7.524   1.578 123.312  0.00  0.00    +0.008 C 
ENDROOT
BRANCH   1  21
ATOM     21  O   LIG A   1      -8.955   2.075 127.349  0.00  0.00    -0.392 OA
ATOM     22  H   LIG A   1      -8.983   2.776 126.652  0.00  0.00    +0.210 HD
ENDBRANCH   1  21
TORSDOF 1
ENDMDL
MODEL 7
REMARK VINA RESULT:      -6.9      1.657      2.209
REMARK  Name = NuBBE_2230
REMARK  4 active torsions:
REMARK  status: ('A' for Active; 'I' for Inactive)
REMARK    1  A    between atoms: O_1  and  C_2
REMARK    2  A    between atoms: C_12  and  C_13
REMARK    3  A    between atoms: C_12  and  C_14
REMARK    4  A    between atoms: C_18  and  C_19
REMARK                            x       y       z     vdW  Elec       q    Type
REMARK                         _______ _______ _______ _____ _____    ______ ____
ROOT
ATOM      1  C   LIG A   1      -6.723   1.942 125.726  0.00  0.00    +0.119 C 
ATOM      2  C   LIG A   1      -7.028   0.367 125.535  0.00  0.00    +0.030 C 
ATOM      3  C   LIG A   1      -6.836  -0.145 127.196  0.00  0.00    -0.019 C 
ATOM      4  C   LIG A   1      -7.663   0.779 128.165  0.00  0.00    +0.037 C 
ATOM      5  C   LIG A   1      -7.182  -1.566 127.618  0.00  0.00    +0.008 C 
ATOM      6  C   LIG A   1      -8.398  -1.959 126.909  0.00  0.00    +0.005 C 
ATOM      7  C   LIG A   1      -8.245  -1.702 125.428  0.00  0.00    +0.001 C 
ATOM      8  C   LIG A   1      -7.077  -2.528 124.476  0.00  0.00    -0.032 C 
ATOM      9  C   LIG A   1      -6.619  -2.234 122.939  0.00  0.00    +0.011 C 
ATOM     10  C   LIG A   1      -5.641  -2.605 125.024  0.00  0.00    +0.011 C 
ATOM     11  C   LIG A   1      -8.015  -3.674 124.183  0.00  0.00    +0.007 C 
ATOM     12  C   LIG A   1      -9.178  -2.867 123.398  0.00  0.00    +0.001 C 
ATOM     13  C   LIG A   1      -8.965  -1.083 123.386  0.00  0.00    +0.007 C 
ATOM     14  C   LIG A   1      -8.437  -0.327 124.854  0.00  0.00    -0.023 C 
ATOM     15  C   LIG A   1      -9.653   0.536 125.236  0.00  0.00    +0.012 C 
ATOM     16  C   LIG A   1      -5.331   2.142 126.446  0.00  0.00    +0.039 C 
ATOM     17  C   LIG A   1      -5.380   1.597 127.875  0.00  0.00    +0.017 C 
ATOM     18  C   LIG A   1      -5.409   0.089 127.711  0.00  0.00    +0.015 C 
ATOM     19  C   LIG A   1      -6.718   1.877 128.472  0.00  0.00    -0.073 C 
ATOM     20  C   LIG A   1      -7.163   3.084 129.007  0.00  0.00    +0.008 C 
ENDROOT
BRANCH   1  21
ATOM     21  O   LIG A   1      -6.769   2.926 124.715  0.00  0.00    -0.392 OA
ATOM     22  H   LIG A   1      -7.699   2.840 124.388  0.00  0.00    +0.210 HD
ENDBRANCH   1  21
TORSDOF 1
ENDMDL
MODEL 8
REMARK VINA RESULT:      -6.6      5.646      7.449
REMARK  Name = NuBBE_2230
REMARK  4 active torsions:
REMARK  status: ('A' for Active; 'I' for Inactive)
REMARK    1  A    between atoms: O_1  and  C_2
REMARK    2  A    between atoms: C_12  and  C_13
REMARK    3  A    between atoms: C_12  and  C_14
REMARK    4  A    between atoms: C_18  and  C_19
REMARK                            x       y       z     vdW  Elec       q    Type
REMARK                         _______ _______ _______ _____ _____    ______ ____
ROOT
ATOM      1  C   LIG A   1      -7.104   4.738 130.062  0.00  0.00    +0.119 C 
ATOM      2  C   LIG A   1      -7.462   3.380 130.861  0.00  0.00    +0.030 C 
ATOM      3  C   LIG A   1      -8.648   4.028 131.971  0.00  0.00    -0.019 C 
ATOM      4  C   LIG A   1      -9.724   4.882 131.203  0.00  0.00    +0.037 C 
ATOM      5  C   LIG A   1      -9.451   3.108 132.877  0.00  0.00    +0.008 C 
ATOM      6  C   LIG A   1      -9.803   1.918 132.106  0.00  0.00    +0.005 C 
ATOM      7  C   LIG A   1      -8.572   1.333 131.454  0.00  0.00    +0.001 C 
ATOM      8  C   LIG A   1      -7.266   0.702 132.376  0.00  0.00    -0.032 C 
ATOM      9  C   LIG A   1      -5.786   0.242 131.869  0.00  0.00    +0.011 C 
ATOM     10  C   LIG A   1      -6.740   1.560 133.541  0.00  0.00    +0.011 C 
ATOM     11  C   LIG A   1      -7.882  -0.674 132.449  0.00  0.00    +0.007 C 
ATOM     12  C   LIG A   1      -7.918  -1.028 130.870  0.00  0.00    +0.001 C 
ATOM     13  C   LIG A   1      -7.433   0.326 129.793  0.00  0.00    +0.007 C 
ATOM     14  C   LIG A   1      -8.018   1.911 130.182  0.00  0.00    -0.023 C 
ATOM     15  C   LIG A   1      -8.931   2.228 128.985  0.00  0.00    +0.012 C 
ATOM     16  C   LIG A   1      -6.680   5.871 131.079  0.00  0.00    +0.039 C 
ATOM     17  C   LIG A   1      -7.861   6.264 131.970  0.00  0.00    +0.017 C 
ATOM     18  C   LIG A   1      -8.045   5.085 132.907  0.00  0.00    +0.015 C 
ATOM     19  C   LIG A   1      -9.122   6.235 131.173  0.00  0.00    -0.073 C 
ATOM     20  C   LIG A   1      -9.576   7.208 130.285  0.00  0.00    +0.008 C 
ENDROOT
BRANCH   1  21
ATOM     21  O   LIG A   1      -6.209   4.853 128.977  0.00  0.00    -0.392 OA
ATOM     22  H   LIG A   1      -6.395   4.024 128.470  0.00  0.00    +0.210 HD
ENDBRANCH   1  21
TORSDOF 1
ENDMDL
MODEL 9
REMARK VINA RESULT:      -6.6      2.177      5.539
REMARK  Name = NuBBE_2230
REMARK  4 active torsions:
REMARK  status: ('A' for Active; 'I' for Inactive)
REMARK    1  A    between atoms: O_1  and  C_2
REMARK    2  A    between atoms: C_12  and  C_13
REMARK    3  A    between atoms: C_12  and  C_14
REMARK    4  A    between atoms: C_18  and  C_19
REMARK                            x       y       z     vdW  Elec       q    Type
REMARK                         _______ _______ _______ _____ _____    ______ ____
ROOT
ATOM      1  C   LIG A   1      -8.474  -2.253 126.070  0.00  0.00    +0.119 C 
ATOM      2  C   LIG A   1      -7.773  -0.807 125.901  0.00  0.00    +0.030 C 
ATOM      3  C   LIG A   1      -7.448  -0.868 124.184  0.00  0.00    -0.019 C 
ATOM      4  C   LIG A   1      -8.735  -1.298 123.386  0.00  0.00    +0.037 C 
ATOM      5  C   LIG A   1      -6.919   0.353 123.447  0.00  0.00    +0.008 C 
ATOM      6  C   LIG A   1      -7.607   1.528 123.979  0.00  0.00    +0.005 C 
ATOM      7  C   LIG A   1      -7.518   1.546 125.488  0.00  0.00    +0.001 C 
ATOM      8  C   LIG A   1      -6.017   1.694 126.310  0.00  0.00    -0.032 C 
ATOM      9  C   LIG A   1      -5.702   1.513 127.900  0.00  0.00    +0.011 C 
ATOM     10  C   LIG A   1      -4.863   0.788 125.848  0.00  0.00    +0.011 C 
ATOM     11  C   LIG A   1      -6.069   3.202 126.293  0.00  0.00    +0.007 C 
ATOM     12  C   LIG A   1      -7.418   3.428 127.160  0.00  0.00    +0.001 C 
ATOM     13  C   LIG A   1      -8.301   1.917 127.567  0.00  0.00    +0.007 C 
ATOM     14  C   LIG A   1      -8.440   0.710 126.330  0.00  0.00    -0.023 C 
ATOM     15  C   LIG A   1      -9.956   0.681 126.068  0.00  0.00    +0.012 C 
ATOM     16  C   LIG A   1      -7.532  -3.384 125.497  0.00  0.00    +0.039 C 
ATOM     17  C   LIG A   1      -7.363  -3.229 123.985  0.00  0.00    +0.017 C 
ATOM     18  C   LIG A   1      -6.482  -2.004 123.820  0.00  0.00    +0.015 C 
ATOM     19  C   LIG A   1      -8.650  -2.776 123.380  0.00  0.00    -0.073 C 
ATOM     20  C   LIG A   1      -9.762  -3.563 123.090  0.00  0.00    +0.008 C 
ENDROOT
BRANCH   1  21
ATOM     21  O   LIG A   1      -9.013  -2.780 127.264  0.00  0.00    -0.392 OA
ATOM     22  H   LIG A   1      -9.308  -3.680 126.976  0.00  0.00    +0.210 HD
ENDBRANCH   1  21
TORSDOF 1
ENDMDL
