MODEL 1
REMARK VINA RESULT:      -5.8      0.000      0.000
REMARK  Name = NuBBE_968
REMARK  9 active torsions:
REMARK  status: ('A' for Active; 'I' for Inactive)
REMARK    1  A    between atoms: C_1  and  C_2
REMARK    2  A    between atoms: C_2  and  C_3
REMARK    3  A    between atoms: C_2  and  C_18
REMARK    4  A    between atoms: C_2  and  O_19
REMARK    5  A    between atoms: C_6  and  C_8
REMARK    6  A    between atoms: C_8  and  C_9
REMARK    7  A    between atoms: C_11  and  C_14
REMARK    8  A    between atoms: C_11  and  C_16
REMARK    9  A    between atoms: C_14  and  O_15
REMARK                            x       y       z     vdW  Elec       q    Type
REMARK                         _______ _______ _______ _____ _____    ______ ____
ROOT
ATOM      1  C   LIG A   1      -7.690   1.447 123.205  0.00  0.00    +0.021 C 
ATOM      2  C   LIG A   1      -6.919   0.775 124.375  0.00  0.00    +0.015 C 
ATOM      3  C   LIG A   1      -7.489  -0.568 124.903  0.00  0.00    +0.027 C 
ATOM      4  C   LIG A   1      -8.121  -1.407 123.736  0.00  0.00    +0.018 C 
ATOM      5  C   LIG A   1      -9.266  -0.615 123.053  0.00  0.00    +0.014 C 
ATOM      6  C   LIG A   1      -9.122   0.910 123.063  0.00  0.00    +0.007 C 
ENDROOT
BRANCH   1   8
ATOM      7  C   LIG A   1      -6.261   3.582 122.992  0.00  0.00    +0.041 C 
ATOM      8  C   LIG A   1      -7.655   3.014 123.291  0.00  0.00    +0.063 C 
ATOM      9  C   LIG A   1      -8.097   3.525 124.669  0.00  0.00    +0.041 C 
BRANCH   8  10
ATOM     10  O   LIG A   1      -8.522   3.578 122.301  0.00  0.00    -0.389 OA
ATOM     11  H   LIG A   1      -8.174   3.362 121.420  0.00  0.00    +0.210 HD
ENDBRANCH   8  10
ENDBRANCH   1   8
BRANCH   3  12
ATOM     12  C   LIG A   1      -8.298  -0.309 126.197  0.00  0.00    -0.076 C 
ATOM     13  C   LIG A   1      -7.870  -1.152 127.379  0.00  0.00    +0.038 C 
ATOM     14  C   LIG A   1      -9.310   0.551 126.367  0.00  0.00    +0.007 C 
ENDBRANCH   3  12
BRANCH   4  15
ATOM     15  C   LIG A   1      -7.098  -1.754 122.621  0.00  0.00    -0.025 C 
ATOM     16  C   LIG A   1      -5.878  -2.295 122.746  0.00  0.00    +0.004 C 
ENDBRANCH   4  15
BRANCH   4  17
ATOM     17  C   LIG A   1      -8.704  -2.759 124.244  0.00  0.00    +0.167 C 
BRANCH  17  18
ATOM     18  O   LIG A   1      -9.948  -3.073 123.624  0.00  0.00    -0.394 OA
ATOM     19  H   LIG A   1     -10.641  -2.633 124.145  0.00  0.00    +0.209 HD
ENDBRANCH  17  18
ENDBRANCH   4  17
TORSDOF 6
ENDMDL
MODEL 2
REMARK VINA RESULT:      -5.7      1.628      4.942
REMARK  Name = NuBBE_968
REMARK  9 active torsions:
REMARK  status: ('A' for Active; 'I' for Inactive)
REMARK    1  A    between atoms: C_1  and  C_2
REMARK    2  A    between atoms: C_2  and  C_3
REMARK    3  A    between atoms: C_2  and  C_18
REMARK    4  A    between atoms: C_2  and  O_19
REMARK    5  A    between atoms: C_6  and  C_8
REMARK    6  A    between atoms: C_8  and  C_9
REMARK    7  A    between atoms: C_11  and  C_14
REMARK    8  A    between atoms: C_11  and  C_16
REMARK    9  A    between atoms: C_14  and  O_15
REMARK                            x       y       z     vdW  Elec       q    Type
REMARK                         _______ _______ _______ _____ _____    ______ ____
ROOT
ATOM      1  C   LIG A   1      -8.789  -1.003 124.528  0.00  0.00    +0.021 C 
ATOM      2  C   LIG A   1      -9.588  -0.253 125.628  0.00  0.00    +0.015 C 
ATOM      3  C   LIG A   1      -9.008   1.106 126.105  0.00  0.00    +0.027 C 
ATOM      4  C   LIG A   1      -8.314   1.866 124.920  0.00  0.00    +0.018 C 
ATOM      5  C   LIG A   1      -7.162   1.014 124.326  0.00  0.00    +0.014 C 
ATOM      6  C   LIG A   1      -7.340  -0.504 124.413  0.00  0.00    +0.007 C 
ENDROOT
BRANCH   1   8
ATOM      7  C   LIG A   1      -9.210  -2.975 126.134  0.00  0.00    +0.041 C 
ATOM      8  C   LIG A   1      -8.862  -2.562 124.697  0.00  0.00    +0.063 C 
ATOM      9  C   LIG A   1      -7.545  -3.246 124.306  0.00  0.00    +0.041 C 
BRANCH   8  10
ATOM     10  O   LIG A   1      -9.909  -3.095 123.878  0.00  0.00    -0.389 OA
ATOM     11  H   LIG A   1     -10.366  -2.360 123.437  0.00  0.00    +0.210 HD
ENDBRANCH   8  10
ENDBRANCH   1   8
BRANCH   3  12
ATOM     12  C   LIG A   1      -8.256   0.902 127.441  0.00  0.00    -0.076 C 
ATOM     13  C   LIG A   1      -8.572   1.937 128.500  0.00  0.00    +0.038 C 
ATOM     14  C   LIG A   1      -7.375  -0.060 127.742  0.00  0.00    +0.007 C 
ENDBRANCH   3  12
BRANCH   4  15
ATOM     15  C   LIG A   1      -9.286   2.172 123.748  0.00  0.00    -0.025 C 
ATOM     16  C   LIG A   1      -8.992   2.450 122.470  0.00  0.00    +0.004 C 
ENDBRANCH   4  15
BRANCH   4  17
ATOM     17  C   LIG A   1      -7.720   3.232 125.376  0.00  0.00    +0.167 C 
BRANCH  17  18
ATOM     18  O   LIG A   1      -8.712   4.255 125.434  0.00  0.00    -0.394 OA
ATOM     19  H   LIG A   1      -8.463   4.846 126.164  0.00  0.00    +0.209 HD
ENDBRANCH  17  18
ENDBRANCH   4  17
TORSDOF 6
ENDMDL
MODEL 3
REMARK VINA RESULT:      -5.6      1.739      5.166
REMARK  Name = NuBBE_968
REMARK  9 active torsions:
REMARK  status: ('A' for Active; 'I' for Inactive)
REMARK    1  A    between atoms: C_1  and  C_2
REMARK    2  A    between atoms: C_2  and  C_3
REMARK    3  A    between atoms: C_2  and  C_18
REMARK    4  A    between atoms: C_2  and  O_19
REMARK    5  A    between atoms: C_6  and  C_8
REMARK    6  A    between atoms: C_8  and  C_9
REMARK    7  A    between atoms: C_11  and  C_14
REMARK    8  A    between atoms: C_11  and  C_16
REMARK    9  A    between atoms: C_14  and  O_15
REMARK                            x       y       z     vdW  Elec       q    Type
REMARK                         _______ _______ _______ _____ _____    ______ ____
ROOT
ATOM      1  C   LIG A   1      -8.079  -0.807 124.971  0.00  0.00    +0.021 C 
ATOM      2  C   LIG A   1      -7.515  -0.065 123.730  0.00  0.00    +0.015 C 
ATOM      3  C   LIG A   1      -7.668   1.480 123.714  0.00  0.00    +0.027 C 
ATOM      4  C   LIG A   1      -7.541   2.071 125.163  0.00  0.00    +0.018 C 
ATOM      5  C   LIG A   1      -8.628   1.472 126.093  0.00  0.00    +0.014 C 
ATOM      6  C   LIG A   1      -9.082   0.048 125.760  0.00  0.00    +0.007 C 
ENDROOT
BRANCH   1   8
ATOM      7  C   LIG A   1      -7.669  -3.350 124.870  0.00  0.00    +0.041 C 
ATOM      8  C   LIG A   1      -8.668  -2.216 124.606  0.00  0.00    +0.063 C 
ATOM      9  C   LIG A   1      -9.106  -2.293 123.137  0.00  0.00    +0.041 C 
BRANCH   8  10
ATOM     10  O   LIG A   1      -9.804  -2.502 125.431  0.00  0.00    -0.389 OA
ATOM     11  H   LIG A   1     -10.393  -1.729 125.430  0.00  0.00    +0.210 HD
ENDBRANCH   8  10
ENDBRANCH   1   8
BRANCH   3  12
ATOM     12  C   LIG A   1      -8.871   1.867 122.822  0.00  0.00    -0.076 C 
ATOM     13  C   LIG A   1      -8.639   3.086 121.954  0.00  0.00    +0.038 C 
ATOM     14  C   LIG A   1     -10.062   1.260 122.750  0.00  0.00    +0.007 C 
ENDBRANCH   3  12
BRANCH   4  15
ATOM     15  C   LIG A   1      -6.172   1.755 125.824  0.00  0.00    -0.025 C 
ATOM     16  C   LIG A   1      -5.071   2.520 125.872  0.00  0.00    +0.004 C 
ENDBRANCH   4  15
BRANCH   4  17
ATOM     17  C   LIG A   1      -7.695   3.620 125.173  0.00  0.00    +0.167 C 
BRANCH  17  18
ATOM     18  O   LIG A   1      -9.049   4.024 125.358  0.00  0.00    -0.394 OA
ATOM     19  H   LIG A   1      -9.485   3.955 124.492  0.00  0.00    +0.209 HD
ENDBRANCH  17  18
ENDBRANCH   4  17
TORSDOF 6
ENDMDL
MODEL 4
REMARK VINA RESULT:      -5.5      2.980      5.436
REMARK  Name = NuBBE_968
REMARK  9 active torsions:
REMARK  status: ('A' for Active; 'I' for Inactive)
REMARK    1  A    between atoms: C_1  and  C_2
REMARK    2  A    between atoms: C_2  and  C_3
REMARK    3  A    between atoms: C_2  and  C_18
REMARK    4  A    between atoms: C_2  and  O_19
REMARK    5  A    between atoms: C_6  and  C_8
REMARK    6  A    between atoms: C_8  and  C_9
REMARK    7  A    between atoms: C_11  and  C_14
REMARK    8  A    between atoms: C_11  and  C_16
REMARK    9  A    between atoms: C_14  and  O_15
REMARK                            x       y       z     vdW  Elec       q    Type
REMARK                         _______ _______ _______ _____ _____    ______ ____
ROOT
ATOM      1  C   LIG A   1      -7.518  -1.768 125.414  0.00  0.00    +0.021 C 
ATOM      2  C   LIG A   1      -8.342  -1.495 126.702  0.00  0.00    +0.015 C 
ATOM      3  C   LIG A   1      -7.569  -1.547 128.047  0.00  0.00    +0.027 C 
ATOM      4  C   LIG A   1      -6.102  -1.014 127.872  0.00  0.00    +0.018 C 
ATOM      5  C   LIG A   1      -5.336  -1.861 126.823  0.00  0.00    +0.014 C 
ATOM      6  C   LIG A   1      -6.187  -2.477 125.709  0.00  0.00    +0.007 C 
ENDROOT
BRANCH   1   8
ATOM      7  C   LIG A   1      -8.181  -4.043 124.400  0.00  0.00    +0.041 C 
ATOM      8  C   LIG A   1      -8.355  -2.520 124.320  0.00  0.00    +0.063 C 
ATOM      9  C   LIG A   1      -7.984  -2.068 122.900  0.00  0.00    +0.041 C 
BRANCH   8  10
ATOM     10  O   LIG A   1      -9.753  -2.280 124.520  0.00  0.00    -0.389 OA
ATOM     11  H   LIG A   1      -9.988  -2.539 125.426  0.00  0.00    +0.210 HD
ENDBRANCH   8  10
ENDBRANCH   1   8
BRANCH   3  12
ATOM     12  C   LIG A   1      -7.820  -2.913 128.731  0.00  0.00    -0.076 C 
ATOM     13  C   LIG A   1      -8.829  -3.790 128.021  0.00  0.00    +0.038 C 
ATOM     14  C   LIG A   1      -7.260  -3.377 129.855  0.00  0.00    +0.007 C 
ENDBRANCH   3  12
BRANCH   4  15
ATOM     15  C   LIG A   1      -6.052   0.456 127.374  0.00  0.00    -0.025 C 
ATOM     16  C   LIG A   1      -5.194   1.015 126.508  0.00  0.00    +0.004 C 
ENDBRANCH   4  15
BRANCH   4  17
ATOM     17  C   LIG A   1      -5.305  -1.061 129.209  0.00  0.00    +0.167 C 
BRANCH  17  18
ATOM     18  O   LIG A   1      -4.062  -1.744 129.068  0.00  0.00    -0.394 OA
ATOM     19  H   LIG A   1      -3.877  -2.171 129.922  0.00  0.00    +0.209 HD
ENDBRANCH  17  18
ENDBRANCH   4  17
TORSDOF 6
ENDMDL
MODEL 5
REMARK VINA RESULT:      -5.4      2.541      5.258
REMARK  Name = NuBBE_968
REMARK  9 active torsions:
REMARK  status: ('A' for Active; 'I' for Inactive)
REMARK    1  A    between atoms: C_1  and  C_2
REMARK    2  A    between atoms: C_2  and  C_3
REMARK    3  A    between atoms: C_2  and  C_18
REMARK    4  A    between atoms: C_2  and  O_19
REMARK    5  A    between atoms: C_6  and  C_8
REMARK    6  A    between atoms: C_8  and  C_9
REMARK    7  A    between atoms: C_11  and  C_14
REMARK    8  A    between atoms: C_11  and  C_16
REMARK    9  A    between atoms: C_14  and  O_15
REMARK                            x       y       z     vdW  Elec       q    Type
REMARK                         _______ _______ _______ _____ _____    ______ ____
ROOT
ATOM      1  C   LIG A   1      -7.409  -1.718 127.464  0.00  0.00    +0.021 C 
ATOM      2  C   LIG A   1      -6.629  -0.970 126.348  0.00  0.00    +0.015 C 
ATOM      3  C   LIG A   1      -7.134  -1.169 124.894  0.00  0.00    +0.027 C 
ATOM      4  C   LIG A   1      -8.696  -1.316 124.857  0.00  0.00    +0.018 C 
ATOM      5  C   LIG A   1      -9.150  -2.529 125.712  0.00  0.00    +0.014 C 
ATOM      6  C   LIG A   1      -8.261  -2.871 126.911  0.00  0.00    +0.007 C 
ENDROOT
BRANCH   1   8
ATOM      7  C   LIG A   1      -5.040  -2.461 128.157  0.00  0.00    +0.041 C 
ATOM      8  C   LIG A   1      -6.473  -2.187 128.633  0.00  0.00    +0.063 C 
ATOM      9  C   LIG A   1      -7.001  -3.454 129.320  0.00  0.00    +0.041 C 
BRANCH   8  10
ATOM     10  O   LIG A   1      -6.361  -1.153 129.617  0.00  0.00    -0.389 OA
ATOM     11  H   LIG A   1      -5.901  -0.394 129.223  0.00  0.00    +0.210 HD
ENDBRANCH   8  10
ENDBRANCH   1   8
BRANCH   3  12
ATOM     12  C   LIG A   1      -6.240  -2.210 124.178  0.00  0.00    -0.076 C 
ATOM     13  C   LIG A   1      -6.049  -1.957 122.698  0.00  0.00    +0.038 C 
ATOM     14  C   LIG A   1      -5.647  -3.282 124.717  0.00  0.00    +0.007 C 
ENDBRANCH   3  12
BRANCH   4  15
ATOM     15  C   LIG A   1      -9.432  -0.074 125.429  0.00  0.00    -0.025 C 
ATOM     16  C   LIG A   1      -9.802   1.045 124.789  0.00  0.00    +0.004 C 
ENDBRANCH   4  15
BRANCH   4  17
ATOM     17  C   LIG A   1      -9.225  -1.521 123.407  0.00  0.00    +0.167 C 
BRANCH  17  18
ATOM     18  O   LIG A   1     -10.037  -2.686 123.292  0.00  0.00    -0.394 OA
ATOM     19  H   LIG A   1     -10.201  -2.823 122.344  0.00  0.00    +0.209 HD
ENDBRANCH  17  18
ENDBRANCH   4  17
TORSDOF 6
ENDMDL
MODEL 6
REMARK VINA RESULT:      -5.3      2.472      5.485
REMARK  Name = NuBBE_968
REMARK  9 active torsions:
REMARK  status: ('A' for Active; 'I' for Inactive)
REMARK    1  A    between atoms: C_1  and  C_2
REMARK    2  A    between atoms: C_2  and  C_3
REMARK    3  A    between atoms: C_2  and  C_18
REMARK    4  A    between atoms: C_2  and  O_19
REMARK    5  A    between atoms: C_6  and  C_8
REMARK    6  A    between atoms: C_8  and  C_9
REMARK    7  A    between atoms: C_11  and  C_14
REMARK    8  A    between atoms: C_11  and  C_16
REMARK    9  A    between atoms: C_14  and  O_15
REMARK                            x       y       z     vdW  Elec       q    Type
REMARK                         _______ _______ _______ _____ _____    ______ ____
ROOT
ATOM      1  C   LIG A   1      -7.154  -1.597 127.561  0.00  0.00    +0.021 C 
ATOM      2  C   LIG A   1      -5.889  -1.993 126.752  0.00  0.00    +0.015 C 
ATOM      3  C   LIG A   1      -5.953  -1.787 125.215  0.00  0.00    +0.027 C 
ATOM      4  C   LIG A   1      -6.805  -0.518 124.854  0.00  0.00    +0.018 C 
ATOM      5  C   LIG A   1      -8.250  -0.659 125.398  0.00  0.00    +0.014 C 
ATOM      6  C   LIG A   1      -8.406  -1.490 126.676  0.00  0.00    +0.007 C 
ENDROOT
BRANCH   1   8
ATOM      7  C   LIG A   1      -8.420  -3.634 128.508  0.00  0.00    +0.041 C 
ATOM      8  C   LIG A   1      -7.389  -2.535 128.798  0.00  0.00    +0.063 C 
ATOM      9  C   LIG A   1      -7.856  -1.752 130.033  0.00  0.00    +0.041 C 
BRANCH   8  10
ATOM     10  O   LIG A   1      -6.176  -3.221 129.130  0.00  0.00    -0.389 OA
ATOM     11  H   LIG A   1      -6.016  -3.128 130.083  0.00  0.00    +0.210 HD
ENDBRANCH   8  10
ENDBRANCH   1   8
BRANCH   3  12
ATOM     12  C   LIG A   1      -6.250  -3.141 124.528  0.00  0.00    -0.076 C 
ATOM     13  C   LIG A   1      -5.042  -3.798 123.896  0.00  0.00    +0.038 C 
ATOM     14  C   LIG A   1      -7.431  -3.764 124.431  0.00  0.00    +0.007 C 
ENDBRANCH   3  12
BRANCH   4  15
ATOM     15  C   LIG A   1      -6.229   0.788 125.466  0.00  0.00    -0.025 C 
ATOM     16  C   LIG A   1      -6.878   1.916 125.788  0.00  0.00    +0.004 C 
ENDBRANCH   4  15
BRANCH   4  17
ATOM     17  C   LIG A   1      -6.886  -0.293 123.316  0.00  0.00    +0.167 C 
BRANCH  17  18
ATOM     18  O   LIG A   1      -8.180  -0.592 122.798  0.00  0.00    -0.394 OA
ATOM     19  H   LIG A   1      -8.048  -0.980 121.916  0.00  0.00    +0.209 HD
ENDBRANCH  17  18
ENDBRANCH   4  17
TORSDOF 6
ENDMDL
MODEL 7
REMARK VINA RESULT:      -5.3      2.402      3.042
REMARK  Name = NuBBE_968
REMARK  9 active torsions:
REMARK  status: ('A' for Active; 'I' for Inactive)
REMARK    1  A    between atoms: C_1  and  C_2
REMARK    2  A    between atoms: C_2  and  C_3
REMARK    3  A    between atoms: C_2  and  C_18
REMARK    4  A    between atoms: C_2  and  O_19
REMARK    5  A    between atoms: C_6  and  C_8
REMARK    6  A    between atoms: C_8  and  C_9
REMARK    7  A    between atoms: C_11  and  C_14
REMARK    8  A    between atoms: C_11  and  C_16
REMARK    9  A    between atoms: C_14  and  O_15
REMARK                            x       y       z     vdW  Elec       q    Type
REMARK                         _______ _______ _______ _____ _____    ______ ____
ROOT
ATOM      1  C   LIG A   1      -6.227   0.144 125.577  0.00  0.00    +0.021 C 
ATOM      2  C   LIG A   1      -5.803  -1.163 126.301  0.00  0.00    +0.015 C 
ATOM      3  C   LIG A   1      -6.761  -2.376 126.165  0.00  0.00    +0.027 C 
ATOM      4  C   LIG A   1      -7.445  -2.395 124.752  0.00  0.00    +0.018 C 
ATOM      5  C   LIG A   1      -8.254  -1.093 124.520  0.00  0.00    +0.014 C 
ATOM      6  C   LIG A   1      -7.722   0.159 125.223  0.00  0.00    +0.007 C 
ENDROOT
BRANCH   1   8
ATOM      7  C   LIG A   1      -6.850   1.856 127.401  0.00  0.00    +0.041 C 
ATOM      8  C   LIG A   1      -5.797   1.430 126.368  0.00  0.00    +0.063 C 
ATOM      9  C   LIG A   1      -5.533   2.619 125.434  0.00  0.00    +0.041 C 
BRANCH   8  10
ATOM     10  O   LIG A   1      -4.605   1.170 127.117  0.00  0.00    -0.389 OA
ATOM     11  H   LIG A   1      -3.895   1.743 126.783  0.00  0.00    +0.210 HD
ENDBRANCH   8  10
ENDBRANCH   1   8
BRANCH   3  12
ATOM     12  C   LIG A   1      -7.623  -2.495 127.445  0.00  0.00    -0.076 C 
ATOM     13  C   LIG A   1      -7.265  -1.505 128.533  0.00  0.00    +0.038 C 
ATOM     14  C   LIG A   1      -8.615  -3.362 127.682  0.00  0.00    +0.007 C 
ENDBRANCH   3  12
BRANCH   4  15
ATOM     15  C   LIG A   1      -6.421  -2.491 123.589  0.00  0.00    -0.025 C 
ATOM     16  C   LIG A   1      -6.452  -1.880 122.396  0.00  0.00    +0.004 C 
ENDBRANCH   4  15
BRANCH   4  17
ATOM     17  C   LIG A   1      -8.415  -3.603 124.594  0.00  0.00    +0.167 C 
BRANCH  17  18
ATOM     18  O   LIG A   1      -9.754  -3.186 124.342  0.00  0.00    -0.394 OA
ATOM     19  H   LIG A   1     -10.091  -3.742 123.619  0.00  0.00    +0.209 HD
ENDBRANCH  17  18
ENDBRANCH   4  17
TORSDOF 6
ENDMDL
MODEL 8
REMARK VINA RESULT:      -5.1      2.208      4.995
REMARK  Name = NuBBE_968
REMARK  9 active torsions:
REMARK  status: ('A' for Active; 'I' for Inactive)
REMARK    1  A    between atoms: C_1  and  C_2
REMARK    2  A    between atoms: C_2  and  C_3
REMARK    3  A    between atoms: C_2  and  C_18
REMARK    4  A    between atoms: C_2  and  O_19
REMARK    5  A    between atoms: C_6  and  C_8
REMARK    6  A    between atoms: C_8  and  C_9
REMARK    7  A    between atoms: C_11  and  C_14
REMARK    8  A    between atoms: C_11  and  C_16
REMARK    9  A    between atoms: C_14  and  O_15
REMARK                            x       y       z     vdW  Elec       q    Type
REMARK                         _______ _______ _______ _____ _____    ______ ____
ROOT
ATOM      1  C   LIG A   1      -8.231  -1.500 124.872  0.00  0.00    +0.021 C 
ATOM      2  C   LIG A   1      -8.881  -0.557 125.919  0.00  0.00    +0.015 C 
ATOM      3  C   LIG A   1      -7.930   0.419 126.662  0.00  0.00    +0.027 C 
ATOM      4  C   LIG A   1      -6.771   0.900 125.719  0.00  0.00    +0.018 C 
ATOM      5  C   LIG A   1      -5.945  -0.310 125.209  0.00  0.00    +0.014 C 
ATOM      6  C   LIG A   1      -6.711  -1.627 125.061  0.00  0.00    +0.007 C 
ENDROOT
BRANCH   1   8
ATOM      7  C   LIG A   1      -9.699  -3.222 126.106  0.00  0.00    +0.041 C 
ATOM      8  C   LIG A   1      -8.935  -2.902 124.814  0.00  0.00    +0.063 C 
ATOM      9  C   LIG A   1      -7.935  -4.038 124.554  0.00  0.00    +0.041 C 
BRANCH   8  10
ATOM     10  O   LIG A   1      -9.916  -2.916 123.771  0.00  0.00    -0.389 OA
ATOM     11  H   LIG A   1      -9.473  -3.112 122.929  0.00  0.00    +0.210 HD
ENDBRANCH   8  10
ENDBRANCH   1   8
BRANCH   3  12
ATOM     12  C   LIG A   1      -7.602  -0.151 128.063  0.00  0.00    -0.076 C 
ATOM     13  C   LIG A   1      -7.822   0.823 129.200  0.00  0.00    +0.038 C 
ATOM     14  C   LIG A   1      -7.150  -1.376 128.359  0.00  0.00    +0.007 C 
ENDBRANCH   3  12
BRANCH   4  15
ATOM     15  C   LIG A   1      -7.289   1.643 124.458  0.00  0.00    -0.025 C 
ATOM     16  C   LIG A   1      -6.900   1.496 123.183  0.00  0.00    +0.004 C 
ENDBRANCH   4  15
BRANCH   4  17
ATOM     17  C   LIG A   1      -5.800   1.878 126.445  0.00  0.00    +0.167 C 
BRANCH  17  18
ATOM     18  O   LIG A   1      -4.489   1.335 126.574  0.00  0.00    -0.394 OA
ATOM     19  H   LIG A   1      -4.095   1.734 127.367  0.00  0.00    +0.209 HD
ENDBRANCH  17  18
ENDBRANCH   4  17
TORSDOF 6
ENDMDL
MODEL 9
REMARK VINA RESULT:      -5.1      2.520      4.674
REMARK  Name = NuBBE_968
REMARK  9 active torsions:
REMARK  status: ('A' for Active; 'I' for Inactive)
REMARK    1  A    between atoms: C_1  and  C_2
REMARK    2  A    between atoms: C_2  and  C_3
REMARK    3  A    between atoms: C_2  and  C_18
REMARK    4  A    between atoms: C_2  and  O_19
REMARK    5  A    between atoms: C_6  and  C_8
REMARK    6  A    between atoms: C_8  and  C_9
REMARK    7  A    between atoms: C_11  and  C_14
REMARK    8  A    between atoms: C_11  and  C_16
REMARK    9  A    between atoms: C_14  and  O_15
REMARK                            x       y       z     vdW  Elec       q    Type
REMARK                         _______ _______ _______ _____ _____    ______ ____
ROOT
ATOM      1  C   LIG A   1      -7.058  -0.471 125.080  0.00  0.00    +0.021 C 
ATOM      2  C   LIG A   1      -8.337  -0.851 125.874  0.00  0.00    +0.015 C 
ATOM      3  C   LIG A   1      -8.139  -1.745 127.127  0.00  0.00    +0.027 C 
ATOM      4  C   LIG A   1      -6.785  -1.409 127.847  0.00  0.00    +0.018 C 
ATOM      5  C   LIG A   1      -5.587  -1.626 126.886  0.00  0.00    +0.014 C 
ATOM      6  C   LIG A   1      -5.874  -1.397 125.399  0.00  0.00    +0.007 C 
ENDROOT
BRANCH   1   8
ATOM      7  C   LIG A   1      -8.806  -0.553 123.188  0.00  0.00    +0.041 C 
ATOM      8  C   LIG A   1      -7.323  -0.368 123.537  0.00  0.00    +0.063 C 
ATOM      9  C   LIG A   1      -6.510  -1.399 122.742  0.00  0.00    +0.041 C 
BRANCH   8  10
ATOM     10  O   LIG A   1      -6.976   0.940 123.066  0.00  0.00    -0.389 OA
ATOM     11  H   LIG A   1      -7.519   1.146 122.287  0.00  0.00    +0.210 HD
ENDBRANCH   8  10
ENDBRANCH   1   8
BRANCH   3  12
ATOM     12  C   LIG A   1      -8.484  -3.211 126.771  0.00  0.00    -0.076 C 
ATOM     13  C   LIG A   1      -9.002  -4.030 127.934  0.00  0.00    +0.038 C 
ATOM     14  C   LIG A   1      -8.365  -3.810 125.580  0.00  0.00    +0.007 C 
ENDBRANCH   3  12
BRANCH   4  15
ATOM     15  C   LIG A   1      -6.706   0.066 128.324  0.00  0.00    -0.025 C 
ATOM     16  C   LIG A   1      -7.599   0.761 129.044  0.00  0.00    +0.004 C 
ENDBRANCH   4  15
BRANCH   4  17
ATOM     17  C   LIG A   1      -6.562  -2.298 129.107  0.00  0.00    +0.167 C 
BRANCH  17  18
ATOM     18  O   LIG A   1      -5.389  -3.100 128.997  0.00  0.00    -0.394 OA
ATOM     19  H   LIG A   1      -5.579  -3.940 129.447  0.00  0.00    +0.209 HD
ENDBRANCH  17  18
ENDBRANCH   4  17
TORSDOF 6
ENDMDL
