MODEL 1
REMARK VINA RESULT:      -6.7      0.000      0.000
REMARK  Name = NuBBE_2177
REMARK  14 active torsions:
REMARK  status: ('A' for Active; 'I' for Inactive)
REMARK    1  A    between atoms: O_1  and  C_2
REMARK    2  A    between atoms: O_1  and  C_16
REMARK    3  A    between atoms: C_2  and  O_3
REMARK    4  A    between atoms: O_3  and  C_4
REMARK    5  A    between atoms: C_5  and  O_14
REMARK    6  A    between atoms: C_9  and  C_11
REMARK    7  A    between atoms: C_11  and  C_12
REMARK    8  A    between atoms: O_14  and  C_15
REMARK    9  A    between atoms: C_17  and  C_18
REMARK   10  A    between atoms: C_18  and  C_19
REMARK   11  A    between atoms: C_22  and  O_27
REMARK   12  A    between atoms: C_23  and  O_25
REMARK   13  A    between atoms: O_25  and  C_26
REMARK   14  A    between atoms: O_27  and  C_28
REMARK                            x       y       z     vdW  Elec       q    Type
REMARK                         _______ _______ _______ _____ _____    ______ ____
ROOT
ATOM      1  O   LIG A   1      -6.801   0.642 125.628  0.00  0.00    -0.453 OA
ENDROOT
BRANCH   1   2
ATOM      2  C   LIG A   1      -8.268   0.790 125.434  0.00  0.00    +0.271 C 
ATOM      3  C   LIG A   1      -8.501   0.939 123.898  0.00  0.00    +0.172 C 
ATOM      4  C   LIG A   1      -9.014  -0.069 123.165  0.00  0.00    +0.094 C 
ATOM      5  C   LIG A   1      -9.295  -1.441 123.717  0.00  0.00    +0.163 C 
ATOM      6  O   LIG A   1      -9.857  -2.250 123.049  0.00  0.00    -0.292 OA
ATOM      7  C   LIG A   1      -8.767  -1.710 125.126  0.00  0.00    +0.070 C 
ATOM      8  C   LIG A   1      -9.056  -0.445 125.906  0.00  0.00    +0.099 C 
BRANCH   2   9
ATOM      9  O   LIG A   1      -8.811   1.937 126.139  0.00  0.00    -0.337 OA
ATOM     10  C   LIG A   1      -7.880   2.963 126.527  0.00  0.00    +0.199 C 
ENDBRANCH   2   9
BRANCH   3  11
ATOM     11  O   LIG A   1      -8.285   2.165 123.252  0.00  0.00    -0.493 OA
ATOM     12  C   LIG A   1      -6.983   2.463 122.743  0.00  0.00    +0.277 C 
ENDBRANCH   3  11
BRANCH   7  13
ATOM     13  C   LIG A   1      -9.469  -2.842 125.898  0.00  0.00    +0.038 C 
BRANCH  13  14
ATOM     14  C   LIG A   1      -8.624  -3.623 126.847  0.00  0.00    -0.034 C 
ATOM     15  C   LIG A   1      -9.010  -3.942 128.089  0.00  0.00    +0.004 C 
ENDBRANCH  13  14
ENDBRANCH   7  13
ENDBRANCH   1   2
BRANCH   1  16
ATOM     16  C   LIG A   1      -6.259  -0.276 126.512  0.00  0.00    +0.132 A 
ATOM     17  C   LIG A   1      -5.586  -1.428 126.060  0.00  0.00    +0.002 A 
ATOM     18  C   LIG A   1      -5.201  -2.342 127.061  0.00  0.00    +0.057 A 
ATOM     19  C   LIG A   1      -5.398  -2.238 128.424  0.00  0.00    +0.162 A 
ATOM     20  C   LIG A   1      -6.097  -1.144 128.849  0.00  0.00    +0.165 A 
ATOM     21  C   LIG A   1      -6.385  -0.127 127.912  0.00  0.00    +0.095 A 
BRANCH  20  22
ATOM     22  O   LIG A   1      -6.481  -1.059 130.156  0.00  0.00    -0.491 OA
ATOM     23  C   LIG A   1      -7.887  -1.199 130.350  0.00  0.00    +0.277 C 
ENDBRANCH  20  22
BRANCH  19  24
ATOM     24  O   LIG A   1      -4.861  -3.298 129.082  0.00  0.00    -0.491 OA
ATOM     25  C   LIG A   1      -3.481  -3.328 129.377  0.00  0.00    +0.277 C 
ENDBRANCH  19  24
BRANCH  17  26
ATOM     26  C   LIG A   1      -5.295  -1.863 124.623  0.00  0.00    +0.065 C 
BRANCH  26  27
ATOM     27  C   LIG A   1      -5.290  -3.382 124.317  0.00  0.00    -0.030 C 
ATOM     28  C   LIG A   1      -4.472  -4.176 123.594  0.00  0.00    +0.004 C 
ENDBRANCH  26  27
ENDBRANCH  17  26
ENDBRANCH   1  16
TORSDOF 10
ENDMDL
MODEL 2
REMARK VINA RESULT:      -6.3      6.841     10.292
REMARK  Name = NuBBE_2177
REMARK  14 active torsions:
REMARK  status: ('A' for Active; 'I' for Inactive)
REMARK    1  A    between atoms: O_1  and  C_2
REMARK    2  A    between atoms: O_1  and  C_16
REMARK    3  A    between atoms: C_2  and  O_3
REMARK    4  A    between atoms: O_3  and  C_4
REMARK    5  A    between atoms: C_5  and  O_14
REMARK    6  A    between atoms: C_9  and  C_11
REMARK    7  A    between atoms: C_11  and  C_12
REMARK    8  A    between atoms: O_14  and  C_15
REMARK    9  A    between atoms: C_17  and  C_18
REMARK   10  A    between atoms: C_18  and  C_19
REMARK   11  A    between atoms: C_22  and  O_27
REMARK   12  A    between atoms: C_23  and  O_25
REMARK   13  A    between atoms: O_25  and  C_26
REMARK   14  A    between atoms: O_27  and  C_28
REMARK                            x       y       z     vdW  Elec       q    Type
REMARK                         _______ _______ _______ _____ _____    ______ ____
ROOT
ATOM      1  O   LIG A   1      -6.740   6.489 131.336  0.00  0.00    -0.453 OA
ENDROOT
BRANCH   1   2
ATOM      2  C   LIG A   1      -6.038   5.421 130.577  0.00  0.00    +0.271 C 
ATOM      3  C   LIG A   1      -4.649   6.003 130.171  0.00  0.00    +0.172 C 
ATOM      4  C   LIG A   1      -3.516   5.611 130.788  0.00  0.00    +0.094 C 
ATOM      5  C   LIG A   1      -3.493   4.686 131.976  0.00  0.00    +0.163 C 
ATOM      6  O   LIG A   1      -2.455   4.285 132.400  0.00  0.00    -0.292 OA
ATOM      7  C   LIG A   1      -4.853   4.369 132.597  0.00  0.00    +0.070 C 
ATOM      8  C   LIG A   1      -5.786   4.160 131.423  0.00  0.00    +0.099 C 
BRANCH   2   9
ATOM      9  O   LIG A   1      -6.772   5.001 129.397  0.00  0.00    -0.337 OA
ATOM     10  C   LIG A   1      -7.103   3.604 129.297  0.00  0.00    +0.199 C 
ENDBRANCH   2   9
BRANCH   3  11
ATOM     11  O   LIG A   1      -4.522   6.872 129.078  0.00  0.00    -0.493 OA
ATOM     12  C   LIG A   1      -3.224   7.349 128.716  0.00  0.00    +0.277 C 
ENDBRANCH   3  11
BRANCH   7  13
ATOM     13  C   LIG A   1      -4.926   3.070 133.420  0.00  0.00    +0.038 C 
BRANCH  13  14
ATOM     14  C   LIG A   1      -4.953   3.223 134.904  0.00  0.00    -0.034 C 
ATOM     15  C   LIG A   1      -4.185   2.506 135.733  0.00  0.00    +0.004 C 
ENDBRANCH  13  14
ENDBRANCH   7  13
ENDBRANCH   1   2
BRANCH   1  16
ATOM     16  C   LIG A   1      -8.122   6.570 131.397  0.00  0.00    +0.132 A 
ATOM     17  C   LIG A   1      -8.839   6.107 132.518  0.00  0.00    +0.002 A 
ATOM     18  C   LIG A   1     -10.242   6.127 132.395  0.00  0.00    +0.057 A 
ATOM     19  C   LIG A   1     -10.992   6.552 131.315  0.00  0.00    +0.162 A 
ATOM     20  C   LIG A   1     -10.289   6.949 130.213  0.00  0.00    +0.165 A 
ATOM     21  C   LIG A   1      -8.887   7.084 130.326  0.00  0.00    +0.095 A 
BRANCH  20  22
ATOM     22  O   LIG A   1     -10.954   7.215 129.052  0.00  0.00    -0.491 OA
ATOM     23  C   LIG A   1     -10.510   8.401 128.396  0.00  0.00    +0.277 C 
ENDBRANCH  20  22
BRANCH  19  24
ATOM     24  O   LIG A   1     -12.323   6.455 131.570  0.00  0.00    -0.491 OA
ATOM     25  C   LIG A   1     -13.140   7.605 131.532  0.00  0.00    +0.277 C 
ENDBRANCH  19  24
BRANCH  17  26
ATOM     26  C   LIG A   1      -8.300   5.504 133.815  0.00  0.00    +0.065 C 
BRANCH  26  27
ATOM     27  C   LIG A   1      -8.609   4.012 134.100  0.00  0.00    -0.030 C 
ATOM     28  C   LIG A   1      -8.698   2.921 133.312  0.00  0.00    +0.004 C 
ENDBRANCH  26  27
ENDBRANCH  17  26
ENDBRANCH   1  16
TORSDOF 10
ENDMDL
MODEL 3
REMARK VINA RESULT:      -6.2      2.057      5.594
REMARK  Name = NuBBE_2177
REMARK  14 active torsions:
REMARK  status: ('A' for Active; 'I' for Inactive)
REMARK    1  A    between atoms: O_1  and  C_2
REMARK    2  A    between atoms: O_1  and  C_16
REMARK    3  A    between atoms: C_2  and  O_3
REMARK    4  A    between atoms: O_3  and  C_4
REMARK    5  A    between atoms: C_5  and  O_14
REMARK    6  A    between atoms: C_9  and  C_11
REMARK    7  A    between atoms: C_11  and  C_12
REMARK    8  A    between atoms: O_14  and  C_15
REMARK    9  A    between atoms: C_17  and  C_18
REMARK   10  A    between atoms: C_18  and  C_19
REMARK   11  A    between atoms: C_22  and  O_27
REMARK   12  A    between atoms: C_23  and  O_25
REMARK   13  A    between atoms: O_25  and  C_26
REMARK   14  A    between atoms: O_27  and  C_28
REMARK                            x       y       z     vdW  Elec       q    Type
REMARK                         _______ _______ _______ _____ _____    ______ ____
ROOT
ATOM      1  O   LIG A   1      -7.564   0.027 127.286  0.00  0.00    -0.453 OA
ENDROOT
BRANCH   1   2
ATOM      2  C   LIG A   1      -6.844  -1.267 127.416  0.00  0.00    +0.271 C 
ATOM      3  C   LIG A   1      -7.910  -2.330 127.826  0.00  0.00    +0.172 C 
ATOM      4  C   LIG A   1      -8.362  -3.246 126.946  0.00  0.00    +0.094 C 
ATOM      5  C   LIG A   1      -7.982  -3.260 125.490  0.00  0.00    +0.163 C 
ATOM      6  O   LIG A   1      -8.320  -4.164 124.793  0.00  0.00    -0.292 OA
ATOM      7  C   LIG A   1      -7.207  -2.040 124.994  0.00  0.00    +0.070 C 
ATOM      8  C   LIG A   1      -6.211  -1.730 126.091  0.00  0.00    +0.099 C 
BRANCH   2   9
ATOM      9  O   LIG A   1      -5.780  -1.216 128.402  0.00  0.00    -0.337 OA
ATOM     10  C   LIG A   1      -4.796  -2.265 128.354  0.00  0.00    +0.199 C 
ENDBRANCH   2   9
BRANCH   3  11
ATOM     11  O   LIG A   1      -8.352  -2.434 129.153  0.00  0.00    -0.493 OA
ATOM     12  C   LIG A   1      -7.676  -3.327 130.042  0.00  0.00    +0.277 C 
ENDBRANCH   3  11
BRANCH   7  13
ATOM     13  C   LIG A   1      -6.368  -2.251 123.721  0.00  0.00    +0.038 C 
BRANCH  13  14
ATOM     14  C   LIG A   1      -5.018  -2.858 123.907  0.00  0.00    -0.034 C 
ATOM     15  C   LIG A   1      -4.755  -4.152 123.691  0.00  0.00    +0.004 C 
ENDBRANCH  13  14
ENDBRANCH   7  13
ENDBRANCH   1   2
BRANCH   1  16
ATOM     16  C   LIG A   1      -7.063   1.083 126.541  0.00  0.00    +0.132 A 
ATOM     17  C   LIG A   1      -7.748   1.585 125.418  0.00  0.00    +0.002 A 
ATOM     18  C   LIG A   1      -7.065   2.569 124.676  0.00  0.00    +0.057 A 
ATOM     19  C   LIG A   1      -5.814   3.101 124.925  0.00  0.00    +0.162 A 
ATOM     20  C   LIG A   1      -5.135   2.571 125.985  0.00  0.00    +0.165 A 
ATOM     21  C   LIG A   1      -5.822   1.686 126.846  0.00  0.00    +0.095 A 
BRANCH  20  22
ATOM     22  O   LIG A   1      -3.831   2.919 126.188  0.00  0.00    -0.491 OA
ATOM     23  C   LIG A   1      -3.436   2.882 127.558  0.00  0.00    +0.277 C 
ENDBRANCH  20  22
BRANCH  19  24
ATOM     24  O   LIG A   1      -5.495   4.056 124.013  0.00  0.00    -0.491 OA
ATOM     25  C   LIG A   1      -5.868   3.901 122.661  0.00  0.00    +0.277 C 
ENDBRANCH  19  24
BRANCH  17  26
ATOM     26  C   LIG A   1      -9.095   1.144 124.844  0.00  0.00    +0.065 C 
BRANCH  26  27
ATOM     27  C   LIG A   1      -9.203   0.977 123.307  0.00  0.00    -0.030 C 
ATOM     28  C   LIG A   1     -10.179   0.521 122.494  0.00  0.00    +0.004 C 
ENDBRANCH  26  27
ENDBRANCH  17  26
ENDBRANCH   1  16
TORSDOF 10
ENDMDL
MODEL 4
REMARK VINA RESULT:      -6.2      2.159      5.711
REMARK  Name = NuBBE_2177
REMARK  14 active torsions:
REMARK  status: ('A' for Active; 'I' for Inactive)
REMARK    1  A    between atoms: O_1  and  C_2
REMARK    2  A    between atoms: O_1  and  C_16
REMARK    3  A    between atoms: C_2  and  O_3
REMARK    4  A    between atoms: O_3  and  C_4
REMARK    5  A    between atoms: C_5  and  O_14
REMARK    6  A    between atoms: C_9  and  C_11
REMARK    7  A    between atoms: C_11  and  C_12
REMARK    8  A    between atoms: O_14  and  C_15
REMARK    9  A    between atoms: C_17  and  C_18
REMARK   10  A    between atoms: C_18  and  C_19
REMARK   11  A    between atoms: C_22  and  O_27
REMARK   12  A    between atoms: C_23  and  O_25
REMARK   13  A    between atoms: O_25  and  C_26
REMARK   14  A    between atoms: O_27  and  C_28
REMARK                            x       y       z     vdW  Elec       q    Type
REMARK                         _______ _______ _______ _____ _____    ______ ____
ROOT
ATOM      1  O   LIG A   1      -7.021   0.134 127.328  0.00  0.00    -0.453 OA
ENDROOT
BRANCH   1   2
ATOM      2  C   LIG A   1      -6.491  -1.208 126.968  0.00  0.00    +0.271 C 
ATOM      3  C   LIG A   1      -6.293  -1.981 128.309  0.00  0.00    +0.172 C 
ATOM      4  C   LIG A   1      -7.133  -2.968 128.682  0.00  0.00    +0.094 C 
ATOM      5  C   LIG A   1      -8.378  -3.332 127.920  0.00  0.00    +0.163 C 
ATOM      6  O   LIG A   1      -9.013  -4.289 128.234  0.00  0.00    -0.292 OA
ATOM      7  C   LIG A   1      -8.771  -2.376 126.793  0.00  0.00    +0.070 C 
ATOM      8  C   LIG A   1      -7.472  -2.021 126.103  0.00  0.00    +0.099 C 
BRANCH   2   9
ATOM      9  O   LIG A   1      -5.239  -1.136 126.239  0.00  0.00    -0.337 OA
ATOM     10  C   LIG A   1      -5.247  -1.614 124.881  0.00  0.00    +0.199 C 
ENDBRANCH   2   9
BRANCH   3  11
ATOM     11  O   LIG A   1      -5.171  -1.748 129.117  0.00  0.00    -0.493 OA
ATOM     12  C   LIG A   1      -4.151  -2.747 129.197  0.00  0.00    +0.277 C 
ENDBRANCH   3  11
BRANCH   7  13
ATOM     13  C   LIG A   1      -9.674  -2.969 125.697  0.00  0.00    +0.038 C 
BRANCH  13  14
ATOM     14  C   LIG A   1      -9.004  -3.360 124.423  0.00  0.00    -0.034 C 
ATOM     15  C   LIG A   1      -9.574  -3.228 123.218  0.00  0.00    +0.004 C 
ENDBRANCH  13  14
ENDBRANCH   7  13
ENDBRANCH   1   2
BRANCH   1  16
ATOM     16  C   LIG A   1      -6.787   1.256 126.549  0.00  0.00    +0.132 A 
ATOM     17  C   LIG A   1      -7.698   1.668 125.556  0.00  0.00    +0.002 A 
ATOM     18  C   LIG A   1      -7.276   2.744 124.751  0.00  0.00    +0.057 A 
ATOM     19  C   LIG A   1      -6.086   3.442 124.825  0.00  0.00    +0.162 A 
ATOM     20  C   LIG A   1      -5.188   3.003 125.756  0.00  0.00    +0.165 A 
ATOM     21  C   LIG A   1      -5.608   2.023 126.682  0.00  0.00    +0.095 A 
BRANCH  20  22
ATOM     22  O   LIG A   1      -3.928   3.527 125.772  0.00  0.00    -0.491 OA
ATOM     23  C   LIG A   1      -3.701   4.439 126.845  0.00  0.00    +0.277 C 
ENDBRANCH  20  22
BRANCH  19  24
ATOM     24  O   LIG A   1      -6.042   4.441 123.904  0.00  0.00    -0.491 OA
ATOM     25  C   LIG A   1      -5.565   4.186 122.601  0.00  0.00    +0.277 C 
ENDBRANCH  19  24
BRANCH  17  26
ATOM     26  C   LIG A   1      -9.043   1.049 125.177  0.00  0.00    +0.065 C 
BRANCH  26  27
ATOM     27  C   LIG A   1      -9.179   0.431 123.762  0.00  0.00    -0.030 C 
ATOM     28  C   LIG A   1      -9.959   0.719 122.699  0.00  0.00    +0.004 C 
ENDBRANCH  26  27
ENDBRANCH  17  26
ENDBRANCH   1  16
TORSDOF 10
ENDMDL
MODEL 5
REMARK VINA RESULT:      -6.2      2.908      5.899
REMARK  Name = NuBBE_2177
REMARK  14 active torsions:
REMARK  status: ('A' for Active; 'I' for Inactive)
REMARK    1  A    between atoms: O_1  and  C_2
REMARK    2  A    between atoms: O_1  and  C_16
REMARK    3  A    between atoms: C_2  and  O_3
REMARK    4  A    between atoms: O_3  and  C_4
REMARK    5  A    between atoms: C_5  and  O_14
REMARK    6  A    between atoms: C_9  and  C_11
REMARK    7  A    between atoms: C_11  and  C_12
REMARK    8  A    between atoms: O_14  and  C_15
REMARK    9  A    between atoms: C_17  and  C_18
REMARK   10  A    between atoms: C_18  and  C_19
REMARK   11  A    between atoms: C_22  and  O_27
REMARK   12  A    between atoms: C_23  and  O_25
REMARK   13  A    between atoms: O_25  and  C_26
REMARK   14  A    between atoms: O_27  and  C_28
REMARK                            x       y       z     vdW  Elec       q    Type
REMARK                         _______ _______ _______ _____ _____    ______ ____
ROOT
ATOM      1  O   LIG A   1      -6.614   0.101 126.565  0.00  0.00    -0.453 OA
ENDROOT
BRANCH   1   2
ATOM      2  C   LIG A   1      -6.197  -1.296 126.860  0.00  0.00    +0.271 C 
ATOM      3  C   LIG A   1      -7.499  -2.084 127.206  0.00  0.00    +0.172 C 
ATOM      4  C   LIG A   1      -8.040  -2.962 126.338  0.00  0.00    +0.094 C 
ATOM      5  C   LIG A   1      -7.523  -3.177 124.941  0.00  0.00    +0.163 C 
ATOM      6  O   LIG A   1      -7.969  -4.051 124.267  0.00  0.00    -0.292 OA
ATOM      7  C   LIG A   1      -6.463  -2.184 124.465  0.00  0.00    +0.070 C 
ATOM      8  C   LIG A   1      -5.542  -1.988 125.651  0.00  0.00    +0.099 C 
BRANCH   2   9
ATOM      9  O   LIG A   1      -5.253  -1.375 127.959  0.00  0.00    -0.337 OA
ATOM     10  C   LIG A   1      -4.728  -2.678 128.274  0.00  0.00    +0.199 C 
ENDBRANCH   2   9
BRANCH   3  11
ATOM     11  O   LIG A   1      -8.087  -1.984 128.476  0.00  0.00    -0.493 OA
ATOM     12  C   LIG A   1      -8.261  -3.168 129.256  0.00  0.00    +0.277 C 
ENDBRANCH   3  11
BRANCH   7  13
ATOM     13  C   LIG A   1      -5.560  -2.668 123.316  0.00  0.00    +0.038 C 
BRANCH  13  14
ATOM     14  C   LIG A   1      -4.405  -3.531 123.695  0.00  0.00    -0.034 C 
ATOM     15  C   LIG A   1      -4.387  -4.858 123.519  0.00  0.00    +0.004 C 
ENDBRANCH  13  14
ENDBRANCH   7  13
ENDBRANCH   1   2
BRANCH   1  16
ATOM     16  C   LIG A   1      -5.959   1.198 127.101  0.00  0.00    +0.132 A 
ATOM     17  C   LIG A   1      -6.491   1.914 128.191  0.00  0.00    +0.002 A 
ATOM     18  C   LIG A   1      -5.793   3.084 128.552  0.00  0.00    +0.057 A 
ATOM     19  C   LIG A   1      -4.652   3.602 127.969  0.00  0.00    +0.162 A 
ATOM     20  C   LIG A   1      -4.173   2.930 126.881  0.00  0.00    +0.165 A 
ATOM     21  C   LIG A   1      -4.746   1.680 126.560  0.00  0.00    +0.095 A 
BRANCH  20  22
ATOM     22  O   LIG A   1      -3.158   3.475 126.150  0.00  0.00    -0.491 OA
ATOM     23  C   LIG A   1      -1.860   3.073 126.583  0.00  0.00    +0.277 C 
ENDBRANCH  20  22
BRANCH  19  24
ATOM     24  O   LIG A   1      -4.243   4.731 128.607  0.00  0.00    -0.491 OA
ATOM     25  C   LIG A   1      -3.339   4.650 129.686  0.00  0.00    +0.277 C 
ENDBRANCH  19  24
BRANCH  17  26
ATOM     26  C   LIG A   1      -7.772   1.642 128.980  0.00  0.00    +0.065 C 
BRANCH  26  27
ATOM     27  C   LIG A   1      -8.595   2.864 129.462  0.00  0.00    -0.030 C 
ATOM     28  C   LIG A   1      -9.628   3.002 130.319  0.00  0.00    +0.004 C 
ENDBRANCH  26  27
ENDBRANCH  17  26
ENDBRANCH   1  16
TORSDOF 10
ENDMDL
MODEL 6
REMARK VINA RESULT:      -6.1      2.775      5.425
REMARK  Name = NuBBE_2177
REMARK  14 active torsions:
REMARK  status: ('A' for Active; 'I' for Inactive)
REMARK    1  A    between atoms: O_1  and  C_2
REMARK    2  A    between atoms: O_1  and  C_16
REMARK    3  A    between atoms: C_2  and  O_3
REMARK    4  A    between atoms: O_3  and  C_4
REMARK    5  A    between atoms: C_5  and  O_14
REMARK    6  A    between atoms: C_9  and  C_11
REMARK    7  A    between atoms: C_11  and  C_12
REMARK    8  A    between atoms: O_14  and  C_15
REMARK    9  A    between atoms: C_17  and  C_18
REMARK   10  A    between atoms: C_18  and  C_19
REMARK   11  A    between atoms: C_22  and  O_27
REMARK   12  A    between atoms: C_23  and  O_25
REMARK   13  A    between atoms: O_25  and  C_26
REMARK   14  A    between atoms: O_27  and  C_28
REMARK                            x       y       z     vdW  Elec       q    Type
REMARK                         _______ _______ _______ _____ _____    ______ ____
ROOT
ATOM      1  O   LIG A   1      -6.804  -0.183 128.205  0.00  0.00    -0.453 OA
ENDROOT
BRANCH   1   2
ATOM      2  C   LIG A   1      -6.363  -1.583 128.442  0.00  0.00    +0.271 C 
ATOM      3  C   LIG A   1      -7.221  -2.125 129.628  0.00  0.00    +0.172 C 
ATOM      4  C   LIG A   1      -8.221  -3.006 129.426  0.00  0.00    +0.094 C 
ATOM      5  C   LIG A   1      -8.674  -3.452 128.062  0.00  0.00    +0.163 C 
ATOM      6  O   LIG A   1      -9.482  -4.321 127.955  0.00  0.00    -0.292 OA
ATOM      7  C   LIG A   1      -8.077  -2.688 126.880  0.00  0.00    +0.070 C 
ATOM      8  C   LIG A   1      -6.616  -2.498 127.230  0.00  0.00    +0.099 C 
BRANCH   2   9
ATOM      9  O   LIG A   1      -4.950  -1.677 128.759  0.00  0.00    -0.337 OA
ATOM     10  C   LIG A   1      -4.366  -2.993 128.748  0.00  0.00    +0.199 C 
ENDBRANCH   2   9
BRANCH   3  11
ATOM     11  O   LIG A   1      -6.907  -1.795 130.954  0.00  0.00    -0.493 OA
ATOM     12  C   LIG A   1      -6.553  -2.839 131.865  0.00  0.00    +0.277 C 
ENDBRANCH   3  11
BRANCH   7  13
ATOM     13  C   LIG A   1      -8.087  -3.427 125.531  0.00  0.00    +0.038 C 
BRANCH  13  14
ATOM     14  C   LIG A   1      -9.282  -3.213 124.664  0.00  0.00    -0.034 C 
ATOM     15  C   LIG A   1      -9.210  -3.029 123.340  0.00  0.00    +0.004 C 
ENDBRANCH  13  14
ENDBRANCH   7  13
ENDBRANCH   1   2
BRANCH   1  16
ATOM     16  C   LIG A   1      -5.924   0.816 127.821  0.00  0.00    +0.132 A 
ATOM     17  C   LIG A   1      -5.557   0.999 126.473  0.00  0.00    +0.002 A 
ATOM     18  C   LIG A   1      -4.557   1.962 126.238  0.00  0.00    +0.057 A 
ATOM     19  C   LIG A   1      -3.903   2.749 127.168  0.00  0.00    +0.162 A 
ATOM     20  C   LIG A   1      -4.228   2.528 128.477  0.00  0.00    +0.165 A 
ATOM     21  C   LIG A   1      -5.319   1.679 128.763  0.00  0.00    +0.095 A 
BRANCH  20  22
ATOM     22  O   LIG A   1      -3.504   3.139 129.459  0.00  0.00    -0.491 OA
ATOM     23  C   LIG A   1      -4.063   4.376 129.897  0.00  0.00    +0.277 C 
ENDBRANCH  20  22
BRANCH  19  24
ATOM     24  O   LIG A   1      -3.020   3.589 126.568  0.00  0.00    -0.491 OA
ATOM     25  C   LIG A   1      -1.664   3.225 126.443  0.00  0.00    +0.277 C 
ENDBRANCH  19  24
BRANCH  17  26
ATOM     26  C   LIG A   1      -6.035   0.231 125.241  0.00  0.00    +0.065 C 
BRANCH  26  27
ATOM     27  C   LIG A   1      -7.374   0.666 124.594  0.00  0.00    -0.030 C 
ATOM     28  C   LIG A   1      -8.665   0.384 124.865  0.00  0.00    +0.004 C 
ENDBRANCH  26  27
ENDBRANCH  17  26
ENDBRANCH   1  16
TORSDOF 10
ENDMDL
MODEL 7
REMARK VINA RESULT:      -6.0      2.324      4.073
REMARK  Name = NuBBE_2177
REMARK  14 active torsions:
REMARK  status: ('A' for Active; 'I' for Inactive)
REMARK    1  A    between atoms: O_1  and  C_2
REMARK    2  A    between atoms: O_1  and  C_16
REMARK    3  A    between atoms: C_2  and  O_3
REMARK    4  A    between atoms: O_3  and  C_4
REMARK    5  A    between atoms: C_5  and  O_14
REMARK    6  A    between atoms: C_9  and  C_11
REMARK    7  A    between atoms: C_11  and  C_12
REMARK    8  A    between atoms: O_14  and  C_15
REMARK    9  A    between atoms: C_17  and  C_18
REMARK   10  A    between atoms: C_18  and  C_19
REMARK   11  A    between atoms: C_22  and  O_27
REMARK   12  A    between atoms: C_23  and  O_25
REMARK   13  A    between atoms: O_25  and  C_26
REMARK   14  A    between atoms: O_27  and  C_28
REMARK                            x       y       z     vdW  Elec       q    Type
REMARK                         _______ _______ _______ _____ _____    ______ ____
ROOT
ATOM      1  O   LIG A   1      -7.244   0.972 126.751  0.00  0.00    -0.453 OA
ENDROOT
BRANCH   1   2
ATOM      2  C   LIG A   1      -8.160   0.667 125.619  0.00  0.00    +0.271 C 
ATOM      3  C   LIG A   1      -7.354   0.938 124.311  0.00  0.00    +0.172 C 
ATOM      4  C   LIG A   1      -6.891  -0.074 123.550  0.00  0.00    +0.094 C 
ATOM      5  C   LIG A   1      -7.000  -1.524 123.938  0.00  0.00    +0.163 C 
ATOM      6  O   LIG A   1      -6.679  -2.374 123.168  0.00  0.00    -0.292 OA
ATOM      7  C   LIG A   1      -7.484  -1.796 125.362  0.00  0.00    +0.070 C 
ATOM      8  C   LIG A   1      -8.604  -0.806 125.596  0.00  0.00    +0.099 C 
BRANCH   2   9
ATOM      9  O   LIG A   1      -9.365   1.476 125.644  0.00  0.00    -0.337 OA
ATOM     10  C   LIG A   1     -10.266   1.337 124.530  0.00  0.00    +0.199 C 
ENDBRANCH   2   9
BRANCH   3  11
ATOM     11  O   LIG A   1      -7.179   2.243 123.827  0.00  0.00    -0.493 OA
ATOM     12  C   LIG A   1      -6.153   3.062 124.392  0.00  0.00    +0.277 C 
ENDBRANCH   3  11
BRANCH   7  13
ATOM     13  C   LIG A   1      -8.100  -3.185 125.605  0.00  0.00    +0.038 C 
BRANCH  13  14
ATOM     14  C   LIG A   1      -9.113  -3.282 126.696  0.00  0.00    -0.034 C 
ATOM     15  C   LIG A   1      -8.944  -4.026 127.796  0.00  0.00    +0.004 C 
ENDBRANCH  13  14
ENDBRANCH   7  13
ENDBRANCH   1   2
BRANCH   1  16
ATOM     16  C   LIG A   1      -7.710   1.372 127.993  0.00  0.00    +0.132 A 
ATOM     17  C   LIG A   1      -7.816   0.468 129.068  0.00  0.00    +0.002 A 
ATOM     18  C   LIG A   1      -8.425   0.974 130.233  0.00  0.00    +0.057 A 
ATOM     19  C   LIG A   1      -8.921   2.246 130.445  0.00  0.00    +0.162 A 
ATOM     20  C   LIG A   1      -8.861   3.101 129.381  0.00  0.00    +0.165 A 
ATOM     21  C   LIG A   1      -8.137   2.697 128.238  0.00  0.00    +0.095 A 
BRANCH  20  22
ATOM     22  O   LIG A   1      -9.484   4.312 129.458  0.00  0.00    -0.491 OA
ATOM     23  C   LIG A   1      -8.662   5.346 129.993  0.00  0.00    +0.277 C 
ENDBRANCH  20  22
BRANCH  19  24
ATOM     24  O   LIG A   1      -9.409   2.381 131.706  0.00  0.00    -0.491 OA
ATOM     25  C   LIG A   1      -8.557   2.219 132.820  0.00  0.00    +0.277 C 
ENDBRANCH  19  24
BRANCH  17  26
ATOM     26  C   LIG A   1      -7.439  -1.013 129.112  0.00  0.00    +0.065 C 
BRANCH  26  27
ATOM     27  C   LIG A   1      -5.934  -1.376 129.053  0.00  0.00    -0.030 C 
ATOM     28  C   LIG A   1      -5.183  -2.062 128.167  0.00  0.00    +0.004 C 
ENDBRANCH  26  27
ENDBRANCH  17  26
ENDBRANCH   1  16
TORSDOF 10
ENDMDL
MODEL 8
REMARK VINA RESULT:      -6.0      1.848      5.672
REMARK  Name = NuBBE_2177
REMARK  14 active torsions:
REMARK  status: ('A' for Active; 'I' for Inactive)
REMARK    1  A    between atoms: O_1  and  C_2
REMARK    2  A    between atoms: O_1  and  C_16
REMARK    3  A    between atoms: C_2  and  O_3
REMARK    4  A    between atoms: O_3  and  C_4
REMARK    5  A    between atoms: C_5  and  O_14
REMARK    6  A    between atoms: C_9  and  C_11
REMARK    7  A    between atoms: C_11  and  C_12
REMARK    8  A    between atoms: O_14  and  C_15
REMARK    9  A    between atoms: C_17  and  C_18
REMARK   10  A    between atoms: C_18  and  C_19
REMARK   11  A    between atoms: C_22  and  O_27
REMARK   12  A    between atoms: C_23  and  O_25
REMARK   13  A    between atoms: O_25  and  C_26
REMARK   14  A    between atoms: O_27  and  C_28
REMARK                            x       y       z     vdW  Elec       q    Type
REMARK                         _______ _______ _______ _____ _____    ______ ____
ROOT
ATOM      1  O   LIG A   1      -9.614  -0.467 125.592  0.00  0.00    -0.453 OA
ENDROOT
BRANCH   1   2
ATOM      2  C   LIG A   1      -8.973  -1.754 125.209  0.00  0.00    +0.271 C 
ATOM      3  C   LIG A   1      -7.518  -1.411 124.764  0.00  0.00    +0.172 C 
ATOM      4  C   LIG A   1      -6.458  -1.697 125.547  0.00  0.00    +0.094 C 
ATOM      5  C   LIG A   1      -6.580  -2.251 126.941  0.00  0.00    +0.163 C 
ATOM      6  O   LIG A   1      -5.606  -2.593 127.535  0.00  0.00    -0.292 OA
ATOM      7  C   LIG A   1      -7.993  -2.283 127.523  0.00  0.00    +0.070 C 
ATOM      8  C   LIG A   1      -8.879  -2.743 126.385  0.00  0.00    +0.099 C 
BRANCH   2   9
ATOM      9  O   LIG A   1      -9.681  -2.432 124.138  0.00  0.00    -0.337 OA
ATOM     10  C   LIG A   1      -9.232  -3.756 123.797  0.00  0.00    +0.199 C 
ENDBRANCH   2   9
BRANCH   3  11
ATOM     11  O   LIG A   1      -7.257  -0.894 123.487  0.00  0.00    -0.493 OA
ATOM     12  C   LIG A   1      -6.452  -1.652 122.581  0.00  0.00    +0.277 C 
ENDBRANCH   3  11
BRANCH   7  13
ATOM     13  C   LIG A   1      -8.225  -3.291 128.663  0.00  0.00    +0.038 C 
BRANCH  13  14
ATOM     14  C   LIG A   1      -7.978  -2.797 130.048  0.00  0.00    -0.034 C 
ATOM     15  C   LIG A   1      -7.024  -3.289 130.848  0.00  0.00    +0.004 C 
ENDBRANCH  13  14
ENDBRANCH   7  13
ENDBRANCH   1   2
BRANCH   1  16
ATOM     16  C   LIG A   1      -8.996   0.756 125.392  0.00  0.00    +0.132 A 
ATOM     17  C   LIG A   1      -8.391   1.459 126.452  0.00  0.00    +0.002 A 
ATOM     18  C   LIG A   1      -7.916   2.748 126.137  0.00  0.00    +0.057 A 
ATOM     19  C   LIG A   1      -7.967   3.394 124.917  0.00  0.00    +0.162 A 
ATOM     20  C   LIG A   1      -8.601   2.727 123.908  0.00  0.00    +0.165 A 
ATOM     21  C   LIG A   1      -8.971   1.381 124.125  0.00  0.00    +0.095 A 
BRANCH  20  22
ATOM     22  O   LIG A   1      -8.844   3.368 122.728  0.00  0.00    -0.491 OA
ATOM     23  C   LIG A   1      -7.783   3.251 121.784  0.00  0.00    +0.277 C 
ENDBRANCH  20  22
BRANCH  19  24
ATOM     24  O   LIG A   1      -7.379   4.618 124.983  0.00  0.00    -0.491 OA
ATOM     25  C   LIG A   1      -6.173   4.790 125.694  0.00  0.00    +0.277 C 
ENDBRANCH  19  24
BRANCH  17  26
ATOM     26  C   LIG A   1      -8.259   1.049 127.919  0.00  0.00    +0.065 C 
BRANCH  26  27
ATOM     27  C   LIG A   1      -6.843   1.073 128.550  0.00  0.00    -0.030 C 
ATOM     28  C   LIG A   1      -6.291   0.437 129.603  0.00  0.00    +0.004 C 
ENDBRANCH  26  27
ENDBRANCH  17  26
ENDBRANCH   1  16
TORSDOF 10
ENDMDL
MODEL 9
REMARK VINA RESULT:      -5.8      4.457      7.549
REMARK  Name = NuBBE_2177
REMARK  14 active torsions:
REMARK  status: ('A' for Active; 'I' for Inactive)
REMARK    1  A    between atoms: O_1  and  C_2
REMARK    2  A    between atoms: O_1  and  C_16
REMARK    3  A    between atoms: C_2  and  O_3
REMARK    4  A    between atoms: O_3  and  C_4
REMARK    5  A    between atoms: C_5  and  O_14
REMARK    6  A    between atoms: C_9  and  C_11
REMARK    7  A    between atoms: C_11  and  C_12
REMARK    8  A    between atoms: O_14  and  C_15
REMARK    9  A    between atoms: C_17  and  C_18
REMARK   10  A    between atoms: C_18  and  C_19
REMARK   11  A    between atoms: C_22  and  O_27
REMARK   12  A    between atoms: C_23  and  O_25
REMARK   13  A    between atoms: O_25  and  C_26
REMARK   14  A    between atoms: O_27  and  C_28
REMARK                            x       y       z     vdW  Elec       q    Type
REMARK                         _______ _______ _______ _____ _____    ______ ____
ROOT
ATOM      1  O   LIG A   1      -9.304   3.347 129.272  0.00  0.00    -0.453 OA
ENDROOT
BRANCH   1   2
ATOM      2  C   LIG A   1      -8.635   4.593 129.730  0.00  0.00    +0.271 C 
ATOM      3  C   LIG A   1      -9.597   5.770 129.376  0.00  0.00    +0.172 C 
ATOM      4  C   LIG A   1     -10.312   6.402 130.328  0.00  0.00    +0.094 C 
ATOM      5  C   LIG A   1     -10.343   5.971 131.770  0.00  0.00    +0.163 C 
ATOM      6  O   LIG A   1     -10.899   6.641 132.582  0.00  0.00    -0.292 OA
ATOM      7  C   LIG A   1      -9.678   4.629 132.076  0.00  0.00    +0.070 C 
ATOM      8  C   LIG A   1      -8.408   4.620 131.253  0.00  0.00    +0.099 C 
BRANCH   2   9
ATOM      9  O   LIG A   1      -7.342   4.795 129.103  0.00  0.00    -0.337 OA
ATOM     10  C   LIG A   1      -6.194   4.822 129.971  0.00  0.00    +0.199 C 
ENDBRANCH   2   9
BRANCH   3  11
ATOM     11  O   LIG A   1      -9.665   6.279 128.071  0.00  0.00    -0.493 OA
ATOM     12  C   LIG A   1     -10.559   7.358 127.792  0.00  0.00    +0.277 C 
ENDBRANCH   3  11
BRANCH   7  13
ATOM     13  C   LIG A   1      -9.228   4.423 133.534  0.00  0.00    +0.038 C 
BRANCH  13  14
ATOM     14  C   LIG A   1      -7.968   5.107 133.944  0.00  0.00    -0.034 C 
ATOM     15  C   LIG A   1      -7.202   4.695 134.962  0.00  0.00    +0.004 C 
ENDBRANCH  13  14
ENDBRANCH   7  13
ENDBRANCH   1   2
BRANCH   1  16
ATOM     16  C   LIG A   1      -8.596   2.197 128.962  0.00  0.00    +0.132 A 
ATOM     17  C   LIG A   1      -8.409   1.168 129.905  0.00  0.00    +0.002 A 
ATOM     18  C   LIG A   1      -7.562   0.118 129.503  0.00  0.00    +0.057 A 
ATOM     19  C   LIG A   1      -6.903  -0.024 128.296  0.00  0.00    +0.162 A 
ATOM     20  C   LIG A   1      -7.049   1.003 127.407  0.00  0.00    +0.165 A 
ATOM     21  C   LIG A   1      -7.994   2.011 127.697  0.00  0.00    +0.095 A 
BRANCH  20  22
ATOM     22  O   LIG A   1      -6.294   1.017 126.270  0.00  0.00    -0.491 OA
ATOM     23  C   LIG A   1      -5.635   2.260 126.036  0.00  0.00    +0.277 C 
ENDBRANCH  20  22
BRANCH  19  24
ATOM     24  O   LIG A   1      -6.199  -1.185 128.253  0.00  0.00    -0.491 OA
ATOM     25  C   LIG A   1      -6.832  -2.388 127.874  0.00  0.00    +0.277 C 
ENDBRANCH  19  24
BRANCH  17  26
ATOM     26  C   LIG A   1      -8.931   1.081 131.340  0.00  0.00    +0.065 C 
BRANCH  26  27
ATOM     27  C   LIG A   1      -7.889   1.083 132.487  0.00  0.00    -0.030 C 
ATOM     28  C   LIG A   1      -6.714   1.722 132.666  0.00  0.00    +0.004 C 
ENDBRANCH  26  27
ENDBRANCH  17  26
ENDBRANCH   1  16
TORSDOF 10
ENDMDL
