MODEL 1
REMARK VINA RESULT:      -7.4      0.000      0.000
REMARK  Name = NuBBE_2367
REMARK  7 active torsions:
REMARK  status: ('A' for Active; 'I' for Inactive)
REMARK    1  A    between atoms: C_1  and  O_3
REMARK    2  A    between atoms: C_1  and  C_5
REMARK    3  A    between atoms: O_3  and  C_4
REMARK    4  A    between atoms: C_14  and  C_16
REMARK    5  A    between atoms: C_16  and  C_17
REMARK    6  A    between atoms: C_27  and  O_30
REMARK    7  A    between atoms: O_30  and  C_31
REMARK                            x       y       z     vdW  Elec       q    Type
REMARK                         _______ _______ _______ _____ _____    ______ ____
ROOT
ATOM      1  C   LIG A   1      -6.930  -1.463 125.446  0.00  0.00    +0.123 C 
ATOM      2  C   LIG A   1      -8.327  -0.794 125.971  0.00  0.00    +0.082 C 
ATOM      3  N   LIG A   1      -9.378  -1.468 125.264  0.00  0.00    -0.297 NA
ATOM      4  C   LIG A   1      -9.079  -1.220 123.823  0.00  0.00    +0.088 C 
ATOM      5  C   LIG A   1      -7.881  -0.143 123.624  0.00  0.00    +0.005 C 
ATOM      6  C   LIG A   1      -6.519  -0.529 124.340  0.00  0.00    +0.030 C 
ATOM      7  C   LIG A   1      -8.328   1.137 124.334  0.00  0.00    +0.010 C 
ATOM      8  C   LIG A   1      -8.511   0.758 125.809  0.00  0.00    +0.008 C 
ATOM      9  C   LIG A   1      -9.437  -2.860 125.811  0.00  0.00    +0.089 C 
ATOM     10  C   LIG A   1      -8.622  -3.304 127.162  0.00  0.00    +0.053 C 
ATOM     11  C   LIG A   1      -7.207  -2.729 127.538  0.00  0.00    -0.017 A 
ATOM     12  C   LIG A   1      -6.427  -1.866 126.768  0.00  0.00    +0.039 A 
ATOM     13  N   LIG A   1      -5.322  -1.472 127.453  0.00  0.00    -0.357 N 
ATOM     14  H   LIG A   1      -4.600  -0.844 127.123  0.00  0.00    +0.166 HD
ATOM     15  C   LIG A   1      -5.391  -1.990 128.730  0.00  0.00    +0.047 A 
ATOM     16  C   LIG A   1      -6.530  -2.800 128.786  0.00  0.00    +0.007 A 
ATOM     17  C   LIG A   1      -6.833  -3.447 129.988  0.00  0.00    +0.056 A 
ATOM     18  C   LIG A   1      -6.005  -3.298 131.102  0.00  0.00    +0.121 A 
ATOM     19  C   LIG A   1      -4.898  -2.447 131.035  0.00  0.00    +0.048 A 
ATOM     20  C   LIG A   1      -4.563  -1.784 129.842  0.00  0.00    +0.030 A 
ENDROOT
BRANCH   1  21
ATOM     21  C   LIG A   1      -6.620  -2.885 124.680  0.00  0.00    +0.321 C 
ATOM     22  O   LIG A   1      -7.348  -3.602 124.040  0.00  0.00    -0.250 OA
BRANCH  21  23
ATOM     23  O   LIG A   1      -5.265  -3.171 124.830  0.00  0.00    -0.467 OA
ATOM     24  C   LIG A   1      -4.650  -3.729 123.661  0.00  0.00    +0.280 C 
ENDBRANCH  21  23
ENDBRANCH   1  21
BRANCH   8  25
ATOM     25  C   LIG A   1      -7.638   1.618 126.751  0.00  0.00    +0.002 C 
ATOM     26  C   LIG A   1      -7.734   1.235 128.225  0.00  0.00    +0.004 C 
ENDBRANCH   8  25
BRANCH  18  27
ATOM     27  O   LIG A   1      -6.248  -3.938 132.293  0.00  0.00    -0.495 OA
ATOM     28  C   LIG A   1      -5.272  -4.932 132.625  0.00  0.00    +0.277 C 
ENDBRANCH  18  27
TORSDOF 4
ENDMDL
MODEL 2
REMARK VINA RESULT:      -7.0      7.494     10.898
REMARK  Name = NuBBE_2367
REMARK  7 active torsions:
REMARK  status: ('A' for Active; 'I' for Inactive)
REMARK    1  A    between atoms: C_1  and  O_3
REMARK    2  A    between atoms: C_1  and  C_5
REMARK    3  A    between atoms: O_3  and  C_4
REMARK    4  A    between atoms: C_14  and  C_16
REMARK    5  A    between atoms: C_16  and  C_17
REMARK    6  A    between atoms: C_27  and  O_30
REMARK    7  A    between atoms: O_30  and  C_31
REMARK                            x       y       z     vdW  Elec       q    Type
REMARK                         _______ _______ _______ _____ _____    ______ ____
ROOT
ATOM      1  C   LIG A   1      -7.683   4.138 132.965  0.00  0.00    +0.123 C 
ATOM      2  C   LIG A   1      -6.830   5.454 133.427  0.00  0.00    +0.082 C 
ATOM      3  N   LIG A   1      -5.502   5.263 132.918  0.00  0.00    -0.297 NA
ATOM      4  C   LIG A   1      -5.044   3.984 133.536  0.00  0.00    +0.088 C 
ATOM      5  C   LIG A   1      -6.076   3.450 134.671  0.00  0.00    +0.005 C 
ATOM      6  C   LIG A   1      -7.564   3.236 134.165  0.00  0.00    +0.030 C 
ATOM      7  C   LIG A   1      -6.190   4.568 135.711  0.00  0.00    +0.010 C 
ATOM      8  C   LIG A   1      -6.751   5.783 134.962  0.00  0.00    +0.008 C 
ATOM      9  C   LIG A   1      -5.589   5.414 131.431  0.00  0.00    +0.089 C 
ATOM     10  C   LIG A   1      -6.930   5.992 130.687  0.00  0.00    +0.053 C 
ATOM     11  C   LIG A   1      -8.388   5.698 131.199  0.00  0.00    -0.017 A 
ATOM     12  C   LIG A   1      -8.748   4.864 132.258  0.00  0.00    +0.039 A 
ATOM     13  N   LIG A   1     -10.081   4.943 132.504  0.00  0.00    -0.357 N 
ATOM     14  H   LIG A   1     -10.593   4.444 133.220  0.00  0.00    +0.166 HD
ATOM     15  C   LIG A   1     -10.623   5.904 131.675  0.00  0.00    +0.047 A 
ATOM     16  C   LIG A   1      -9.598   6.353 130.836  0.00  0.00    +0.007 A 
ATOM     17  C   LIG A   1      -9.888   7.343 129.893  0.00  0.00    +0.056 A 
ATOM     18  C   LIG A   1     -11.181   7.860 129.784  0.00  0.00    +0.121 A 
ATOM     19  C   LIG A   1     -12.177   7.429 130.664  0.00  0.00    +0.048 A 
ATOM     20  C   LIG A   1     -11.920   6.433 131.620  0.00  0.00    +0.030 A 
ENDROOT
BRANCH   1  21
ATOM     21  C   LIG A   1      -7.409   3.012 131.798  0.00  0.00    +0.321 C 
ATOM     22  O   LIG A   1      -6.375   2.528 131.408  0.00  0.00    -0.250 OA
BRANCH  21  23
ATOM     23  O   LIG A   1      -8.641   2.604 131.292  0.00  0.00    -0.467 OA
ATOM     24  C   LIG A   1      -8.551   1.762 130.135  0.00  0.00    +0.280 C 
ENDBRANCH  21  23
ENDBRANCH   1  21
BRANCH   8  25
ATOM     25  C   LIG A   1      -8.066   6.304 135.584  0.00  0.00    +0.002 C 
ATOM     26  C   LIG A   1      -7.978   6.620 137.074  0.00  0.00    +0.004 C 
ENDBRANCH   8  25
BRANCH  18  27
ATOM     27  O   LIG A   1     -11.517   8.813 128.853  0.00  0.00    -0.495 OA
ATOM     28  C   LIG A   1     -12.897   9.195 128.890  0.00  0.00    +0.277 C 
ENDBRANCH  18  27
TORSDOF 4
ENDMDL
MODEL 3
REMARK VINA RESULT:      -7.0      2.421      3.996
REMARK  Name = NuBBE_2367
REMARK  7 active torsions:
REMARK  status: ('A' for Active; 'I' for Inactive)
REMARK    1  A    between atoms: C_1  and  O_3
REMARK    2  A    between atoms: C_1  and  C_5
REMARK    3  A    between atoms: O_3  and  C_4
REMARK    4  A    between atoms: C_14  and  C_16
REMARK    5  A    between atoms: C_16  and  C_17
REMARK    6  A    between atoms: C_27  and  O_30
REMARK    7  A    between atoms: O_30  and  C_31
REMARK                            x       y       z     vdW  Elec       q    Type
REMARK                         _______ _______ _______ _____ _____    ______ ____
ROOT
ATOM      1  C   LIG A   1      -8.242  -0.122 126.296  0.00  0.00    +0.123 C 
ATOM      2  C   LIG A   1      -7.212  -0.525 125.091  0.00  0.00    +0.082 C 
ATOM      3  N   LIG A   1      -6.689   0.713 124.588  0.00  0.00    -0.297 NA
ATOM      4  C   LIG A   1      -7.893   1.474 124.141  0.00  0.00    +0.088 C 
ATOM      5  C   LIG A   1      -9.238   0.564 124.173  0.00  0.00    +0.005 C 
ATOM      6  C   LIG A   1      -9.569  -0.077 125.587  0.00  0.00    +0.030 C 
ATOM      7  C   LIG A   1      -8.966  -0.641 123.269  0.00  0.00    +0.010 C 
ATOM      8  C   LIG A   1      -7.771  -1.374 123.893  0.00  0.00    +0.008 C 
ATOM      9  C   LIG A   1      -5.783   1.257 125.648  0.00  0.00    +0.089 C 
ATOM     10  C   LIG A   1      -5.321   0.368 126.944  0.00  0.00    +0.053 C 
ATOM     11  C   LIG A   1      -6.263  -0.679 127.646  0.00  0.00    -0.017 A 
ATOM     12  C   LIG A   1      -7.602  -0.929 127.345  0.00  0.00    +0.039 A 
ATOM     13  N   LIG A   1      -8.070  -1.983 128.061  0.00  0.00    -0.357 N 
ATOM     14  H   LIG A   1      -9.004  -2.370 128.024  0.00  0.00    +0.166 HD
ATOM     15  C   LIG A   1      -7.024  -2.519 128.786  0.00  0.00    +0.047 A 
ATOM     16  C   LIG A   1      -5.910  -1.701 128.570  0.00  0.00    +0.007 A 
ATOM     17  C   LIG A   1      -4.705  -2.031 129.197  0.00  0.00    +0.056 A 
ATOM     18  C   LIG A   1      -4.623  -3.147 130.033  0.00  0.00    +0.121 A 
ATOM     19  C   LIG A   1      -5.738  -3.975 130.196  0.00  0.00    +0.048 A 
ATOM     20  C   LIG A   1      -6.965  -3.669 129.584  0.00  0.00    +0.030 A 
ENDROOT
BRANCH   1  21
ATOM     21  C   LIG A   1      -8.403   1.255 127.181  0.00  0.00    +0.321 C 
ATOM     22  O   LIG A   1      -8.536   2.400 126.827  0.00  0.00    -0.250 OA
BRANCH  21  23
ATOM     23  O   LIG A   1      -8.419   0.902 128.529  0.00  0.00    -0.467 OA
ATOM     24  C   LIG A   1      -8.409   2.020 129.428  0.00  0.00    +0.280 C 
ENDBRANCH  21  23
ENDBRANCH   1  21
BRANCH   8  25
ATOM     25  C   LIG A   1      -8.093  -2.846 124.233  0.00  0.00    +0.002 C 
ATOM     26  C   LIG A   1      -9.435  -3.339 123.697  0.00  0.00    +0.004 C 
ENDBRANCH   8  25
BRANCH  18  27
ATOM     27  O   LIG A   1      -3.468  -3.492 130.691  0.00  0.00    -0.495 OA
ATOM     28  C   LIG A   1      -3.673  -3.878 132.055  0.00  0.00    +0.277 C 
ENDBRANCH  18  27
TORSDOF 4
ENDMDL
MODEL 4
REMARK VINA RESULT:      -7.0      2.821      5.212
REMARK  Name = NuBBE_2367
REMARK  7 active torsions:
REMARK  status: ('A' for Active; 'I' for Inactive)
REMARK    1  A    between atoms: C_1  and  O_3
REMARK    2  A    between atoms: C_1  and  C_5
REMARK    3  A    between atoms: O_3  and  C_4
REMARK    4  A    between atoms: C_14  and  C_16
REMARK    5  A    between atoms: C_16  and  C_17
REMARK    6  A    between atoms: C_27  and  O_30
REMARK    7  A    between atoms: O_30  and  C_31
REMARK                            x       y       z     vdW  Elec       q    Type
REMARK                         _______ _______ _______ _____ _____    ______ ____
ROOT
ATOM      1  C   LIG A   1      -8.108  -1.066 125.623  0.00  0.00    +0.123 C 
ATOM      2  C   LIG A   1      -7.146  -2.137 126.398  0.00  0.00    +0.082 C 
ATOM      3  N   LIG A   1      -6.714  -3.074 125.401  0.00  0.00    -0.297 NA
ATOM      4  C   LIG A   1      -7.978  -3.658 124.864  0.00  0.00    +0.088 C 
ATOM      5  C   LIG A   1      -9.276  -3.208 125.730  0.00  0.00    +0.005 C 
ATOM      6  C   LIG A   1      -9.481  -1.640 125.848  0.00  0.00    +0.030 C 
ATOM      7  C   LIG A   1      -9.014  -3.663 127.168  0.00  0.00    +0.010 C 
ATOM      8  C   LIG A   1      -7.747  -2.923 127.619  0.00  0.00    +0.008 C 
ATOM      9  C   LIG A   1      -5.762  -2.342 124.509  0.00  0.00    +0.089 C 
ATOM     10  C   LIG A   1      -5.173  -0.860 124.887  0.00  0.00    +0.053 C 
ATOM     11  C   LIG A   1      -6.017   0.231 125.644  0.00  0.00    -0.017 A 
ATOM     12  C   LIG A   1      -7.362   0.142 126.006  0.00  0.00    +0.039 A 
ATOM     13  N   LIG A   1      -7.733   1.211 126.756  0.00  0.00    -0.357 N 
ATOM     14  H   LIG A   1      -8.649   1.384 127.148  0.00  0.00    +0.166 HD
ATOM     15  C   LIG A   1      -6.617   1.990 126.990  0.00  0.00    +0.047 A 
ATOM     16  C   LIG A   1      -5.558   1.419 126.277  0.00  0.00    +0.007 A 
ATOM     17  C   LIG A   1      -4.299   2.023 126.350  0.00  0.00    +0.056 A 
ATOM     18  C   LIG A   1      -4.111   3.181 127.106  0.00  0.00    +0.121 A 
ATOM     19  C   LIG A   1      -5.174   3.706 127.846  0.00  0.00    +0.048 A 
ATOM     20  C   LIG A   1      -6.452   3.127 127.792  0.00  0.00    +0.030 A 
ENDROOT
BRANCH   1  21
ATOM     21  C   LIG A   1      -8.267  -0.697 124.028  0.00  0.00    +0.321 C 
ATOM     22  O   LIG A   1      -8.161  -1.395 123.050  0.00  0.00    -0.250 OA
BRANCH  21  23
ATOM     23  O   LIG A   1      -8.627   0.646 123.929  0.00  0.00    -0.467 OA
ATOM     24  C   LIG A   1      -9.757   0.890 123.080  0.00  0.00    +0.280 C 
ENDBRANCH  21  23
ENDBRANCH   1  21
BRANCH   8  25
ATOM     25  C   LIG A   1      -7.981  -2.074 128.888  0.00  0.00    +0.002 C 
ATOM     26  C   LIG A   1      -6.776  -1.245 129.324  0.00  0.00    +0.004 C 
ENDBRANCH   8  25
BRANCH  18  27
ATOM     27  O   LIG A   1      -2.899   3.823 127.182  0.00  0.00    -0.495 OA
ATOM     28  C   LIG A   1      -1.818   3.088 126.597  0.00  0.00    +0.277 C 
ENDBRANCH  18  27
TORSDOF 4
ENDMDL
MODEL 5
REMARK VINA RESULT:      -6.8      2.099      2.706
REMARK  Name = NuBBE_2367
REMARK  7 active torsions:
REMARK  status: ('A' for Active; 'I' for Inactive)
REMARK    1  A    between atoms: C_1  and  O_3
REMARK    2  A    between atoms: C_1  and  C_5
REMARK    3  A    between atoms: O_3  and  C_4
REMARK    4  A    between atoms: C_14  and  C_16
REMARK    5  A    between atoms: C_16  and  C_17
REMARK    6  A    between atoms: C_27  and  O_30
REMARK    7  A    between atoms: O_30  and  C_31
REMARK                            x       y       z     vdW  Elec       q    Type
REMARK                         _______ _______ _______ _____ _____    ______ ____
ROOT
ATOM      1  C   LIG A   1      -7.299  -1.607 124.484  0.00  0.00    +0.123 C 
ATOM      2  C   LIG A   1      -8.826  -1.201 124.909  0.00  0.00    +0.082 C 
ATOM      3  N   LIG A   1      -9.585  -2.418 124.864  0.00  0.00    -0.297 NA
ATOM      4  C   LIG A   1      -9.444  -2.896 123.457  0.00  0.00    +0.088 C 
ATOM      5  C   LIG A   1      -8.722  -1.795 122.507  0.00  0.00    +0.005 C 
ATOM      6  C   LIG A   1      -7.289  -1.329 123.005  0.00  0.00    +0.030 C 
ATOM      7  C   LIG A   1      -9.578  -0.528 122.588  0.00  0.00    +0.010 C 
ATOM      8  C   LIG A   1      -9.562  -0.102 124.061  0.00  0.00    +0.008 C 
ATOM      9  C   LIG A   1      -9.120  -3.255 126.014  0.00  0.00    +0.089 C 
ATOM     10  C   LIG A   1      -8.155  -2.658 127.197  0.00  0.00    +0.053 C 
ATOM     11  C   LIG A   1      -7.032  -1.590 126.930  0.00  0.00    -0.017 A 
ATOM     12  C   LIG A   1      -6.641  -1.083 125.690  0.00  0.00    +0.039 A 
ATOM     13  N   LIG A   1      -5.731  -0.086 125.840  0.00  0.00    -0.357 N 
ATOM     14  H   LIG A   1      -5.296   0.450 125.100  0.00  0.00    +0.166 HD
ATOM     15  C   LIG A   1      -5.567   0.157 127.189  0.00  0.00    +0.047 A 
ATOM     16  C   LIG A   1      -6.334  -0.790 127.876  0.00  0.00    +0.007 A 
ATOM     17  C   LIG A   1      -6.343  -0.758 129.274  0.00  0.00    +0.056 A 
ATOM     18  C   LIG A   1      -5.588   0.192 129.966  0.00  0.00    +0.121 A 
ATOM     19  C   LIG A   1      -4.866   1.156 129.257  0.00  0.00    +0.048 A 
ATOM     20  C   LIG A   1      -4.833   1.149 127.852  0.00  0.00    +0.030 A 
ENDROOT
BRANCH   1  21
ATOM     21  C   LIG A   1      -6.523  -3.057 124.455  0.00  0.00    +0.321 C 
ATOM     22  O   LIG A   1      -6.963  -4.177 124.390  0.00  0.00    -0.250 OA
BRANCH  21  23
ATOM     23  O   LIG A   1      -5.151  -2.812 124.465  0.00  0.00    -0.467 OA
ATOM     24  C   LIG A   1      -4.395  -3.672 123.600  0.00  0.00    +0.280 C 
ENDBRANCH  21  23
ENDBRANCH   1  21
BRANCH   8  25
ATOM     25  C   LIG A   1      -9.028   1.334 124.254  0.00  0.00    +0.002 C 
ATOM     26  C   LIG A   1      -9.037   2.187 122.989  0.00  0.00    +0.004 C 
ENDBRANCH   8  25
BRANCH  18  27
ATOM     27  O   LIG A   1      -5.544   0.241 131.338  0.00  0.00    -0.495 OA
ATOM     28  C   LIG A   1      -6.195   1.388 131.896  0.00  0.00    +0.277 C 
ENDBRANCH  18  27
TORSDOF 4
ENDMDL
MODEL 6
REMARK VINA RESULT:      -6.8      2.597      3.988
REMARK  Name = NuBBE_2367
REMARK  7 active torsions:
REMARK  status: ('A' for Active; 'I' for Inactive)
REMARK    1  A    between atoms: C_1  and  O_3
REMARK    2  A    between atoms: C_1  and  C_5
REMARK    3  A    between atoms: O_3  and  C_4
REMARK    4  A    between atoms: C_14  and  C_16
REMARK    5  A    between atoms: C_16  and  C_17
REMARK    6  A    between atoms: C_27  and  O_30
REMARK    7  A    between atoms: O_30  and  C_31
REMARK                            x       y       z     vdW  Elec       q    Type
REMARK                         _______ _______ _______ _____ _____    ______ ____
ROOT
ATOM      1  C   LIG A   1      -7.993  -0.667 124.846  0.00  0.00    +0.123 C 
ATOM      2  C   LIG A   1      -7.580  -2.244 124.971  0.00  0.00    +0.082 C 
ATOM      3  N   LIG A   1      -6.647  -2.494 123.910  0.00  0.00    -0.297 NA
ATOM      4  C   LIG A   1      -7.396  -2.150 122.665  0.00  0.00    +0.088 C 
ATOM      5  C   LIG A   1      -8.968  -1.868 122.955  0.00  0.00    +0.005 C 
ATOM      6  C   LIG A   1      -9.250  -0.725 124.020  0.00  0.00    +0.030 C 
ATOM      7  C   LIG A   1      -9.520  -3.136 123.612  0.00  0.00    +0.010 C 
ATOM      8  C   LIG A   1      -8.727  -3.316 124.913  0.00  0.00    +0.008 C 
ATOM      9  C   LIG A   1      -5.384  -1.778 124.273  0.00  0.00    +0.089 C 
ATOM     10  C   LIG A   1      -5.140  -1.134 125.760  0.00  0.00    +0.053 C 
ATOM     11  C   LIG A   1      -6.291  -0.484 126.613  0.00  0.00    -0.017 A 
ATOM     12  C   LIG A   1      -7.613  -0.281 126.212  0.00  0.00    +0.039 A 
ATOM     13  N   LIG A   1      -8.363   0.188 127.243  0.00  0.00    -0.357 N 
ATOM     14  H   LIG A   1      -9.350   0.410 127.217  0.00  0.00    +0.166 HD
ATOM     15  C   LIG A   1      -7.579   0.217 128.378  0.00  0.00    +0.047 A 
ATOM     16  C   LIG A   1      -6.286  -0.158 127.997  0.00  0.00    +0.007 A 
ATOM     17  C   LIG A   1      -5.289  -0.212 128.975  0.00  0.00    +0.056 A 
ATOM     18  C   LIG A   1      -5.578   0.118 130.301  0.00  0.00    +0.121 A 
ATOM     19  C   LIG A   1      -6.887   0.445 130.665  0.00  0.00    +0.048 A 
ATOM     20  C   LIG A   1      -7.912   0.512 129.707  0.00  0.00    +0.030 A 
ENDROOT
BRANCH   1  21
ATOM     21  C   LIG A   1      -7.268   0.595 124.080  0.00  0.00    +0.321 C 
ATOM     22  O   LIG A   1      -6.749   0.655 122.993  0.00  0.00    -0.250 OA
BRANCH  21  23
ATOM     23  O   LIG A   1      -7.378   1.718 124.897  0.00  0.00    -0.467 OA
ATOM     24  C   LIG A   1      -6.474   2.780 124.561  0.00  0.00    +0.280 C 
ENDBRANCH  21  23
ENDBRANCH   1  21
BRANCH   8  25
ATOM     25  C   LIG A   1      -9.639  -3.361 126.158  0.00  0.00    +0.002 C 
ATOM     26  C   LIG A   1      -8.901  -3.587 127.475  0.00  0.00    +0.004 C 
ENDBRANCH   8  25
BRANCH  18  27
ATOM     27  O   LIG A   1      -4.622   0.106 131.288  0.00  0.00    -0.495 OA
ATOM     28  C   LIG A   1      -4.223   1.412 131.721  0.00  0.00    +0.277 C 
ENDBRANCH  18  27
TORSDOF 4
ENDMDL
MODEL 7
REMARK VINA RESULT:      -6.7      3.823      5.526
REMARK  Name = NuBBE_2367
REMARK  7 active torsions:
REMARK  status: ('A' for Active; 'I' for Inactive)
REMARK    1  A    between atoms: C_1  and  O_3
REMARK    2  A    between atoms: C_1  and  C_5
REMARK    3  A    between atoms: O_3  and  C_4
REMARK    4  A    between atoms: C_14  and  C_16
REMARK    5  A    between atoms: C_16  and  C_17
REMARK    6  A    between atoms: C_27  and  O_30
REMARK    7  A    between atoms: O_30  and  C_31
REMARK                            x       y       z     vdW  Elec       q    Type
REMARK                         _______ _______ _______ _____ _____    ______ ____
ROOT
ATOM      1  C   LIG A   1      -6.780   0.423 126.041  0.00  0.00    +0.123 C 
ATOM      2  C   LIG A   1      -7.756   1.661 125.605  0.00  0.00    +0.082 C 
ATOM      3  N   LIG A   1      -8.993   1.451 126.301  0.00  0.00    -0.297 NA
ATOM      4  C   LIG A   1      -9.458   0.109 125.843  0.00  0.00    +0.088 C 
ATOM      5  C   LIG A   1      -8.557  -0.466 124.621  0.00  0.00    +0.005 C 
ATOM      6  C   LIG A   1      -7.006  -0.573 124.936  0.00  0.00    +0.030 C 
ATOM      7  C   LIG A   1      -8.641   0.571 123.498  0.00  0.00    +0.010 C 
ATOM      8  C   LIG A   1      -8.053   1.865 124.076  0.00  0.00    +0.008 C 
ATOM      9  C   LIG A   1      -8.722   1.722 127.748  0.00  0.00    +0.089 C 
ATOM     10  C   LIG A   1      -7.328   2.415 128.261  0.00  0.00    +0.053 C 
ATOM     11  C   LIG A   1      -5.936   2.147 127.580  0.00  0.00    -0.017 A 
ATOM     12  C   LIG A   1      -5.672   1.249 126.545  0.00  0.00    +0.039 A 
ATOM     13  N   LIG A   1      -4.389   1.368 126.117  0.00  0.00    -0.357 N 
ATOM     14  H   LIG A   1      -3.949   0.838 125.376  0.00  0.00    +0.166 HD
ATOM     15  C   LIG A   1      -3.796   2.414 126.794  0.00  0.00    +0.047 A 
ATOM     16  C   LIG A   1      -4.726   2.881 127.729  0.00  0.00    +0.007 A 
ATOM     17  C   LIG A   1      -4.369   3.954 128.551  0.00  0.00    +0.056 A 
ATOM     18  C   LIG A   1      -3.103   4.534 128.449  0.00  0.00    +0.121 A 
ATOM     19  C   LIG A   1      -2.208   4.080 127.476  0.00  0.00    +0.048 A 
ATOM     20  C   LIG A   1      -2.534   3.002 126.636  0.00  0.00    +0.030 A 
ENDROOT
BRANCH   1  21
ATOM     21  C   LIG A   1      -6.838  -0.619 127.312  0.00  0.00    +0.321 C 
ATOM     22  O   LIG A   1      -7.782  -1.134 127.857  0.00  0.00    -0.250 OA
BRANCH  21  23
ATOM     23  O   LIG A   1      -5.530  -0.906 127.696  0.00  0.00    -0.467 OA
ATOM     24  C   LIG A   1      -5.272  -2.302 127.905  0.00  0.00    +0.280 C 
ENDBRANCH  21  23
ENDBRANCH   1  21
BRANCH   8  25
ATOM     25  C   LIG A   1      -6.861   2.393 123.247  0.00  0.00    +0.002 C 
ATOM     26  C   LIG A   1      -6.185   3.630 123.830  0.00  0.00    +0.004 C 
ENDBRANCH   8  25
BRANCH  18  27
ATOM     27  O   LIG A   1      -2.700   5.571 129.255  0.00  0.00    -0.495 OA
ATOM     28  C   LIG A   1      -2.220   6.711 128.534  0.00  0.00    +0.277 C 
ENDBRANCH  18  27
TORSDOF 4
ENDMDL
MODEL 8
REMARK VINA RESULT:      -6.5      4.018      7.634
REMARK  Name = NuBBE_2367
REMARK  7 active torsions:
REMARK  status: ('A' for Active; 'I' for Inactive)
REMARK    1  A    between atoms: C_1  and  O_3
REMARK    2  A    between atoms: C_1  and  C_5
REMARK    3  A    between atoms: O_3  and  C_4
REMARK    4  A    between atoms: C_14  and  C_16
REMARK    5  A    between atoms: C_16  and  C_17
REMARK    6  A    between atoms: C_27  and  O_30
REMARK    7  A    between atoms: O_30  and  C_31
REMARK                            x       y       z     vdW  Elec       q    Type
REMARK                         _______ _______ _______ _____ _____    ______ ____
ROOT
ATOM      1  C   LIG A   1      -6.657   3.470 128.447  0.00  0.00    +0.123 C 
ATOM      2  C   LIG A   1      -5.620   2.205 128.432  0.00  0.00    +0.082 C 
ATOM      3  N   LIG A   1      -5.790   1.541 129.692  0.00  0.00    -0.297 NA
ATOM      4  C   LIG A   1      -5.475   2.584 130.712  0.00  0.00    +0.088 C 
ATOM      5  C   LIG A   1      -4.864   3.930 130.041  0.00  0.00    +0.005 C 
ATOM      6  C   LIG A   1      -5.788   4.597 128.936  0.00  0.00    +0.030 C 
ATOM      7  C   LIG A   1      -3.612   3.499 129.272  0.00  0.00    +0.010 C 
ATOM      8  C   LIG A   1      -4.093   2.503 128.209  0.00  0.00    +0.008 C 
ATOM      9  C   LIG A   1      -7.134   0.883 129.651  0.00  0.00    +0.089 C 
ATOM     10  C   LIG A   1      -8.005   0.759 128.269  0.00  0.00    +0.053 C 
ATOM     11  C   LIG A   1      -8.009   1.871 127.156  0.00  0.00    -0.017 A 
ATOM     12  C   LIG A   1      -7.378   3.114 127.216  0.00  0.00    +0.039 A 
ATOM     13  N   LIG A   1      -7.484   3.768 126.030  0.00  0.00    -0.357 N 
ATOM     14  H   LIG A   1      -7.108   4.681 125.810  0.00  0.00    +0.166 HD
ATOM     15  C   LIG A   1      -8.108   2.935 125.124  0.00  0.00    +0.047 A 
ATOM     16  C   LIG A   1      -8.473   1.774 125.815  0.00  0.00    +0.007 A 
ATOM     17  C   LIG A   1      -9.127   0.756 125.114  0.00  0.00    +0.056 A 
ATOM     18  C   LIG A   1      -9.420   0.905 123.757  0.00  0.00    +0.121 A 
ATOM     19  C   LIG A   1      -9.004   2.054 123.079  0.00  0.00    +0.048 A 
ATOM     20  C   LIG A   1      -8.349   3.097 123.754  0.00  0.00    +0.030 A 
ENDROOT
BRANCH   1  21
ATOM     21  C   LIG A   1      -7.985   3.783 129.365  0.00  0.00    +0.321 C 
ATOM     22  O   LIG A   1      -8.263   3.427 130.483  0.00  0.00    -0.250 OA
BRANCH  21  23
ATOM     23  O   LIG A   1      -8.817   4.637 128.644  0.00  0.00    -0.467 OA
ATOM     24  C   LIG A   1      -9.476   5.628 129.445  0.00  0.00    +0.280 C 
ENDBRANCH  21  23
ENDBRANCH   1  21
BRANCH   8  25
ATOM     25  C   LIG A   1      -3.720   2.944 126.776  0.00  0.00    +0.002 C 
ATOM     26  C   LIG A   1      -2.234   3.220 126.567  0.00  0.00    +0.004 C 
ENDBRANCH   8  25
BRANCH  18  27
ATOM     27  O   LIG A   1     -10.086  -0.058 123.037  0.00  0.00    -0.495 OA
ATOM     28  C   LIG A   1      -9.328  -1.256 122.835  0.00  0.00    +0.277 C 
ENDBRANCH  18  27
TORSDOF 4
ENDMDL
MODEL 9
REMARK VINA RESULT:      -6.5      6.190      8.802
REMARK  Name = NuBBE_2367
REMARK  7 active torsions:
REMARK  status: ('A' for Active; 'I' for Inactive)
REMARK    1  A    between atoms: C_1  and  O_3
REMARK    2  A    between atoms: C_1  and  C_5
REMARK    3  A    between atoms: O_3  and  C_4
REMARK    4  A    between atoms: C_14  and  C_16
REMARK    5  A    between atoms: C_16  and  C_17
REMARK    6  A    between atoms: C_27  and  O_30
REMARK    7  A    between atoms: O_30  and  C_31
REMARK                            x       y       z     vdW  Elec       q    Type
REMARK                         _______ _______ _______ _____ _____    ______ ____
ROOT
ATOM      1  C   LIG A   1      -7.876   4.614 131.162  0.00  0.00    +0.123 C 
ATOM      2  C   LIG A   1      -7.447   3.120 131.673  0.00  0.00    +0.082 C 
ATOM      3  N   LIG A   1      -8.575   2.273 131.407  0.00  0.00    -0.297 NA
ATOM      4  C   LIG A   1      -9.696   2.890 132.176  0.00  0.00    +0.088 C 
ATOM      5  C   LIG A   1      -9.184   4.080 133.154  0.00  0.00    +0.005 C 
ATOM      6  C   LIG A   1      -8.402   5.249 132.421  0.00  0.00    +0.030 C 
ATOM      7  C   LIG A   1      -8.140   3.456 134.085  0.00  0.00    +0.010 C 
ATOM      8  C   LIG A   1      -7.016   2.948 133.174  0.00  0.00    +0.008 C 
ATOM      9  C   LIG A   1      -8.652   2.118 129.921  0.00  0.00    +0.089 C 
ATOM     10  C   LIG A   1      -7.447   2.610 128.926  0.00  0.00    +0.053 C 
ATOM     11  C   LIG A   1      -6.575   3.890 129.204  0.00  0.00    -0.017 A 
ATOM     12  C   LIG A   1      -6.748   4.809 130.239  0.00  0.00    +0.039 A 
ATOM     13  N   LIG A   1      -5.740   5.719 130.252  0.00  0.00    -0.357 N 
ATOM     14  H   LIG A   1      -5.627   6.485 130.904  0.00  0.00    +0.166 HD
ATOM     15  C   LIG A   1      -4.822   5.369 129.283  0.00  0.00    +0.047 A 
ATOM     16  C   LIG A   1      -5.342   4.264 128.601  0.00  0.00    +0.007 A 
ATOM     17  C   LIG A   1      -4.594   3.707 127.559  0.00  0.00    +0.056 A 
ATOM     18  C   LIG A   1      -3.360   4.255 127.200  0.00  0.00    +0.121 A 
ATOM     19  C   LIG A   1      -2.841   5.330 127.927  0.00  0.00    +0.048 A 
ATOM     20  C   LIG A   1      -3.569   5.916 128.976  0.00  0.00    +0.030 A 
ENDROOT
BRANCH   1  21
ATOM     21  C   LIG A   1      -9.056   5.119 130.134  0.00  0.00    +0.321 C 
ATOM     22  O   LIG A   1     -10.073   4.574 129.783  0.00  0.00    -0.250 OA
BRANCH  21  23
ATOM     23  O   LIG A   1      -8.737   6.407 129.709  0.00  0.00    -0.467 OA
ATOM     24  C   LIG A   1      -9.831   7.333 129.766  0.00  0.00    +0.280 C 
ENDBRANCH  21  23
ENDBRANCH   1  21
BRANCH   8  25
ATOM     25  C   LIG A   1      -5.644   3.564 133.531  0.00  0.00    +0.002 C 
ATOM     26  C   LIG A   1      -4.507   3.158 132.597  0.00  0.00    +0.004 C 
ENDBRANCH   8  25
BRANCH  18  27
ATOM     27  O   LIG A   1      -2.606   3.758 126.165  0.00  0.00    -0.495 OA
ATOM     28  C   LIG A   1      -1.502   2.950 126.591  0.00  0.00    +0.277 C 
ENDBRANCH  18  27
TORSDOF 4
ENDMDL
