MODEL 1
REMARK VINA RESULT:      -6.7      0.000      0.000
REMARK  Name = NuBBE_1358
REMARK  0 active torsions:
REMARK  status: ('A' for Active; 'I' for Inactive)
REMARK                            x       y       z     vdW  Elec       q    Type
REMARK                         _______ _______ _______ _____ _____    ______ ____
ROOT
ATOM      1  O   LIG A   1      -6.069  -2.021 128.551  0.00  0.00    -0.276 OA
ATOM      2  C   LIG A   1      -7.011  -2.414 127.886  0.00  0.00    +0.216 C 
ATOM      3  C   LIG A   1      -8.251  -2.951 128.565  0.00  0.00    +0.096 C 
ATOM      4  C   LIG A   1      -8.958  -4.019 127.758  0.00  0.00    +0.011 C 
ATOM      5  C   LIG A   1      -9.274  -3.447 126.385  0.00  0.00    +0.023 C 
ATOM      6  C   LIG A   1      -7.937  -3.203 125.671  0.00  0.00    +0.080 C 
ATOM      7  N   LIG A   1      -7.031  -2.369 126.487  0.00  0.00    -0.298 N 
ATOM      8  C   LIG A   1      -5.809  -1.937 125.825  0.00  0.00    +0.113 C 
ATOM      9  C   LIG A   1      -6.039  -1.378 124.421  0.00  0.00    +0.024 C 
ATOM     10  C   LIG A   1      -6.722  -2.474 123.584  0.00  0.00    +0.013 C 
ATOM     11  C   LIG A   1      -8.103  -2.733 124.194  0.00  0.00    +0.024 C 
ATOM     12  C   LIG A   1      -8.934  -1.458 124.003  0.00  0.00    +0.090 C 
ATOM     13  N   LIG A   1      -8.292  -0.346 124.667  0.00  0.00    -0.299 NA
ATOM     14  C   LIG A   1      -9.142   0.605 125.328  0.00  0.00    +0.085 C 
ATOM     15  C   LIG A   1      -8.517   1.194 126.588  0.00  0.00    +0.015 C 
ATOM     16  C   LIG A   1      -6.992   1.209 126.639  0.00  0.00    +0.003 C 
ATOM     17  C   LIG A   1      -6.319   1.063 125.278  0.00  0.00    +0.019 C 
ATOM     18  C   LIG A   1      -6.890  -0.065 124.387  0.00  0.00    +0.061 C 
ENDROOT
TORSDOF 0
ENDMDL
MODEL 2
REMARK VINA RESULT:      -6.4      1.637      4.211
REMARK  Name = NuBBE_1358
REMARK  0 active torsions:
REMARK  status: ('A' for Active; 'I' for Inactive)
REMARK                            x       y       z     vdW  Elec       q    Type
REMARK                         _______ _______ _______ _____ _____    ______ ____
ROOT
ATOM      1  O   LIG A   1      -9.362   1.285 126.391  0.00  0.00    -0.276 OA
ATOM      2  C   LIG A   1      -8.647   0.897 125.484  0.00  0.00    +0.216 C 
ATOM      3  C   LIG A   1      -7.657   1.840 124.838  0.00  0.00    +0.096 C 
ATOM      4  C   LIG A   1      -7.407   1.533 123.377  0.00  0.00    +0.011 C 
ATOM      5  C   LIG A   1      -6.957   0.085 123.265  0.00  0.00    +0.023 C 
ATOM      6  C   LIG A   1      -8.144  -0.797 123.678  0.00  0.00    +0.080 C 
ATOM      7  N   LIG A   1      -8.663  -0.420 125.009  0.00  0.00    -0.298 N 
ATOM      8  C   LIG A   1      -9.672  -1.308 125.564  0.00  0.00    +0.113 C 
ATOM      9  C   LIG A   1      -9.308  -2.790 125.459  0.00  0.00    +0.024 C 
ATOM     10  C   LIG A   1      -9.092  -3.116 123.971  0.00  0.00    +0.013 C 
ATOM     11  C   LIG A   1      -7.874  -2.322 123.492  0.00  0.00    +0.024 C 
ATOM     12  C   LIG A   1      -6.650  -2.865 124.240  0.00  0.00    +0.090 C 
ATOM     13  N   LIG A   1      -6.828  -2.701 125.665  0.00  0.00    -0.299 NA
ATOM     14  C   LIG A   1      -5.672  -2.335 126.435  0.00  0.00    +0.085 C 
ATOM     15  C   LIG A   1      -6.000  -1.430 127.617  0.00  0.00    +0.015 C 
ATOM     16  C   LIG A   1      -7.416  -1.538 128.174  0.00  0.00    +0.003 C 
ATOM     17  C   LIG A   1      -8.145  -2.821 127.787  0.00  0.00    +0.019 C 
ATOM     18  C   LIG A   1      -8.047  -3.197 126.290  0.00  0.00    +0.061 C 
ENDROOT
TORSDOF 0
ENDMDL
MODEL 3
REMARK VINA RESULT:      -6.4      1.836      4.417
REMARK  Name = NuBBE_1358
REMARK  0 active torsions:
REMARK  status: ('A' for Active; 'I' for Inactive)
REMARK                            x       y       z     vdW  Elec       q    Type
REMARK                         _______ _______ _______ _____ _____    ______ ____
ROOT
ATOM      1  O   LIG A   1     -10.493   0.642 124.745  0.00  0.00    -0.276 OA
ATOM      2  C   LIG A   1      -9.284   0.726 124.865  0.00  0.00    +0.216 C 
ATOM      3  C   LIG A   1      -8.681   1.750 125.801  0.00  0.00    +0.096 C 
ATOM      4  C   LIG A   1      -7.328   2.253 125.343  0.00  0.00    +0.011 C 
ATOM      5  C   LIG A   1      -6.412   1.054 125.158  0.00  0.00    +0.023 C 
ATOM      6  C   LIG A   1      -6.967   0.229 123.988  0.00  0.00    +0.080 C 
ATOM      7  N   LIG A   1      -8.389  -0.115 124.193  0.00  0.00    -0.298 N 
ATOM      8  C   LIG A   1      -8.956  -1.041 123.226  0.00  0.00    +0.113 C 
ATOM      9  C   LIG A   1      -8.076  -2.262 122.958  0.00  0.00    +0.024 C 
ATOM     10  C   LIG A   1      -6.712  -1.757 122.454  0.00  0.00    +0.013 C 
ATOM     11  C   LIG A   1      -6.056  -0.974 123.594  0.00  0.00    +0.024 C 
ATOM     12  C   LIG A   1      -5.762  -1.969 124.724  0.00  0.00    +0.090 C 
ATOM     13  N   LIG A   1      -6.991  -2.580 125.177  0.00  0.00    -0.299 NA
ATOM     14  C   LIG A   1      -7.125  -2.820 126.587  0.00  0.00    +0.085 C 
ATOM     15  C   LIG A   1      -8.557  -2.665 127.088  0.00  0.00    +0.015 C 
ATOM     16  C   LIG A   1      -9.658  -2.895 126.058  0.00  0.00    +0.003 C 
ATOM     17  C   LIG A   1      -9.211  -3.675 124.826  0.00  0.00    +0.019 C 
ATOM     18  C   LIG A   1      -7.881  -3.193 124.200  0.00  0.00    +0.061 C 
ENDROOT
TORSDOF 0
ENDMDL
MODEL 4
REMARK VINA RESULT:      -6.3      2.135      3.994
REMARK  Name = NuBBE_1358
REMARK  0 active torsions:
REMARK  status: ('A' for Active; 'I' for Inactive)
REMARK                            x       y       z     vdW  Elec       q    Type
REMARK                         _______ _______ _______ _____ _____    ______ ____
ROOT
ATOM      1  O   LIG A   1      -8.327  -2.014 122.141  0.00  0.00    -0.276 OA
ATOM      2  C   LIG A   1      -7.386  -2.104 122.909  0.00  0.00    +0.216 C 
ATOM      3  C   LIG A   1      -5.974  -2.202 122.377  0.00  0.00    +0.096 C 
ATOM      4  C   LIG A   1      -5.055  -3.010 123.268  0.00  0.00    +0.011 C 
ATOM      5  C   LIG A   1      -5.087  -2.402 124.661  0.00  0.00    +0.023 C 
ATOM      6  C   LIG A   1      -6.501  -2.614 125.221  0.00  0.00    +0.080 C 
ATOM      7  N   LIG A   1      -7.533  -2.091 124.302  0.00  0.00    -0.298 N 
ATOM      8  C   LIG A   1      -8.892  -2.087 124.820  0.00  0.00    +0.113 C 
ATOM      9  C   LIG A   1      -9.005  -1.520 126.236  0.00  0.00    +0.024 C 
ATOM     10  C   LIG A   1      -8.102  -2.363 127.154  0.00  0.00    +0.013 C 
ATOM     11  C   LIG A   1      -6.654  -2.154 126.703  0.00  0.00    +0.024 C 
ATOM     12  C   LIG A   1      -6.298  -0.686 126.970  0.00  0.00    +0.090 C 
ATOM     13  N   LIG A   1      -7.186   0.181 126.229  0.00  0.00    -0.299 NA
ATOM     14  C   LIG A   1      -6.617   1.370 125.656  0.00  0.00    +0.085 C 
ATOM     15  C   LIG A   1      -7.258   1.761 124.329  0.00  0.00    +0.015 C 
ATOM     16  C   LIG A   1      -8.693   1.291 124.110  0.00  0.00    +0.003 C 
ATOM     17  C   LIG A   1      -9.427   0.905 125.390  0.00  0.00    +0.019 C 
ATOM     18  C   LIG A   1      -8.626  -0.006 126.350  0.00  0.00    +0.061 C 
ENDROOT
TORSDOF 0
ENDMDL
MODEL 5
REMARK VINA RESULT:      -6.0      1.755      3.449
REMARK  Name = NuBBE_1358
REMARK  0 active torsions:
REMARK  status: ('A' for Active; 'I' for Inactive)
REMARK                            x       y       z     vdW  Elec       q    Type
REMARK                         _______ _______ _______ _____ _____    ______ ____
ROOT
ATOM      1  O   LIG A   1      -9.870  -2.833 125.727  0.00  0.00    -0.276 OA
ATOM      2  C   LIG A   1      -8.696  -2.751 125.416  0.00  0.00    +0.216 C 
ATOM      3  C   LIG A   1      -8.217  -3.308 124.094  0.00  0.00    +0.096 C 
ATOM      4  C   LIG A   1      -6.789  -3.807 124.140  0.00  0.00    +0.011 C 
ATOM      5  C   LIG A   1      -5.902  -2.670 124.623  0.00  0.00    +0.023 C 
ATOM      6  C   LIG A   1      -6.287  -2.376 126.080  0.00  0.00    +0.080 C 
ATOM      7  N   LIG A   1      -7.735  -2.123 126.218  0.00  0.00    -0.298 N 
ATOM      8  C   LIG A   1      -8.170  -1.663 127.528  0.00  0.00    +0.113 C 
ATOM      9  C   LIG A   1      -7.306  -0.539 128.100  0.00  0.00    +0.024 C 
ATOM     10  C   LIG A   1      -5.859  -1.055 128.185  0.00  0.00    +0.013 C 
ATOM     11  C   LIG A   1      -5.370  -1.311 126.757  0.00  0.00    +0.024 C 
ATOM     12  C   LIG A   1      -5.308   0.045 126.043  0.00  0.00    +0.090 C 
ATOM     13  N   LIG A   1      -6.619   0.655 126.025  0.00  0.00    -0.299 NA
ATOM     14  C   LIG A   1      -6.995   1.369 124.837  0.00  0.00    +0.085 C 
ATOM     15  C   LIG A   1      -8.483   1.264 124.520  0.00  0.00    +0.015 C 
ATOM     16  C   LIG A   1      -9.406   1.003 125.706  0.00  0.00    +0.003 C 
ATOM     17  C   LIG A   1      -8.791   1.330 127.062  0.00  0.00    +0.019 C 
ATOM     18  C   LIG A   1      -7.357   0.789 127.273  0.00  0.00    +0.061 C 
ENDROOT
TORSDOF 0
ENDMDL
MODEL 6
REMARK VINA RESULT:      -6.0      6.855      9.387
REMARK  Name = NuBBE_1358
REMARK  0 active torsions:
REMARK  status: ('A' for Active; 'I' for Inactive)
REMARK                            x       y       z     vdW  Elec       q    Type
REMARK                         _______ _______ _______ _____ _____    ______ ____
ROOT
ATOM      1  O   LIG A   1      -5.049   3.155 130.935  0.00  0.00    -0.276 OA
ATOM      2  C   LIG A   1      -5.677   4.185 131.104  0.00  0.00    +0.216 C 
ATOM      3  C   LIG A   1      -5.508   5.346 130.149  0.00  0.00    +0.096 C 
ATOM      4  C   LIG A   1      -5.702   6.694 130.809  0.00  0.00    +0.011 C 
ATOM      5  C   LIG A   1      -7.071   6.708 131.471  0.00  0.00    +0.023 C 
ATOM      6  C   LIG A   1      -7.036   5.685 132.616  0.00  0.00    +0.080 C 
ATOM      7  N   LIG A   1      -6.599   4.356 132.143  0.00  0.00    -0.298 N 
ATOM      8  C   LIG A   1      -6.701   3.279 133.116  0.00  0.00    +0.113 C 
ATOM      9  C   LIG A   1      -8.041   3.244 133.852  0.00  0.00    +0.024 C 
ATOM     10  C   LIG A   1      -8.225   4.599 134.558  0.00  0.00    +0.013 C 
ATOM     11  C   LIG A   1      -8.337   5.677 133.476  0.00  0.00    +0.024 C 
ATOM     12  C   LIG A   1      -9.632   5.411 132.697  0.00  0.00    +0.090 C 
ATOM     13  N   LIG A   1      -9.587   4.097 132.097  0.00  0.00    -0.299 NA
ATOM     14  C   LIG A   1     -10.154   3.955 130.784  0.00  0.00    +0.085 C 
ATOM     15  C   LIG A   1      -9.419   2.935 129.921  0.00  0.00    +0.015 C 
ATOM     16  C   LIG A   1      -8.672   1.835 130.669  0.00  0.00    +0.003 C 
ATOM     17  C   LIG A   1      -9.124   1.641 132.112  0.00  0.00    +0.019 C 
ATOM     18  C   LIG A   1      -9.269   2.946 132.930  0.00  0.00    +0.061 C 
ENDROOT
TORSDOF 0
ENDMDL
MODEL 7
REMARK VINA RESULT:      -5.9      7.697     10.111
REMARK  Name = NuBBE_1358
REMARK  0 active torsions:
REMARK  status: ('A' for Active; 'I' for Inactive)
REMARK                            x       y       z     vdW  Elec       q    Type
REMARK                         _______ _______ _______ _____ _____    ______ ____
ROOT
ATOM      1  O   LIG A   1      -2.081   6.740 128.028  0.00  0.00    -0.276 OA
ATOM      2  C   LIG A   1      -2.723   5.776 128.406  0.00  0.00    +0.216 C 
ATOM      3  C   LIG A   1      -2.407   4.395 127.878  0.00  0.00    +0.096 C 
ATOM      4  C   LIG A   1      -3.620   3.492 127.808  0.00  0.00    +0.011 C 
ATOM      5  C   LIG A   1      -4.250   3.432 129.190  0.00  0.00    +0.023 C 
ATOM      6  C   LIG A   1      -4.792   4.833 129.507  0.00  0.00    +0.080 C 
ATOM      7  N   LIG A   1      -3.748   5.867 129.355  0.00  0.00    -0.298 N 
ATOM      8  C   LIG A   1      -4.116   7.201 129.801  0.00  0.00    +0.113 C 
ATOM      9  C   LIG A   1      -4.789   7.224 131.175  0.00  0.00    +0.024 C 
ATOM     10  C   LIG A   1      -6.045   6.338 131.098  0.00  0.00    +0.013 C 
ATOM     11  C   LIG A   1      -5.585   4.899 130.848  0.00  0.00    +0.024 C 
ATOM     12  C   LIG A   1      -4.807   4.445 132.090  0.00  0.00    +0.090 C 
ATOM     13  N   LIG A   1      -3.667   5.308 132.301  0.00  0.00    -0.299 NA
ATOM     14  C   LIG A   1      -2.452   4.692 132.760  0.00  0.00    +0.085 C 
ATOM     15  C   LIG A   1      -1.197   5.360 132.210  0.00  0.00    +0.015 C 
ATOM     16  C   LIG A   1      -1.333   6.828 131.818  0.00  0.00    +0.003 C 
ATOM     17  C   LIG A   1      -2.535   7.533 132.438  0.00  0.00    +0.019 C 
ATOM     18  C   LIG A   1      -3.866   6.750 132.346  0.00  0.00    +0.061 C 
ENDROOT
TORSDOF 0
ENDMDL
MODEL 8
REMARK VINA RESULT:      -5.9      6.872      9.421
REMARK  Name = NuBBE_1358
REMARK  0 active torsions:
REMARK  status: ('A' for Active; 'I' for Inactive)
REMARK                            x       y       z     vdW  Elec       q    Type
REMARK                         _______ _______ _______ _____ _____    ______ ____
ROOT
ATOM      1  O   LIG A   1      -9.064   5.337 128.542  0.00  0.00    -0.276 OA
ATOM      2  C   LIG A   1      -9.504   5.560 129.655  0.00  0.00    +0.216 C 
ATOM      3  C   LIG A   1     -10.977   5.840 129.851  0.00  0.00    +0.096 C 
ATOM      4  C   LIG A   1     -11.258   6.772 131.010  0.00  0.00    +0.011 C 
ATOM      5  C   LIG A   1     -10.629   6.180 132.262  0.00  0.00    +0.023 C 
ATOM      6  C   LIG A   1      -9.106   6.207 132.066  0.00  0.00    +0.080 C 
ATOM      7  N   LIG A   1      -8.709   5.542 130.808  0.00  0.00    -0.298 N 
ATOM      8  C   LIG A   1      -7.278   5.362 130.618  0.00  0.00    +0.113 C 
ATOM      9  C   LIG A   1      -6.564   4.799 131.848  0.00  0.00    +0.024 C 
ATOM     10  C   LIG A   1      -6.814   5.764 133.020  0.00  0.00    +0.013 C 
ATOM     11  C   LIG A   1      -8.314   5.745 133.327  0.00  0.00    +0.024 C 
ATOM     12  C   LIG A   1      -8.659   4.340 133.837  0.00  0.00    +0.090 C 
ATOM     13  N   LIG A   1      -8.340   3.356 132.829  0.00  0.00    -0.299 NA
ATOM     14  C   LIG A   1      -9.243   2.248 132.682  0.00  0.00    +0.085 C 
ATOM     15  C   LIG A   1      -9.367   1.761 131.242  0.00  0.00    +0.015 C 
ATOM     16  C   LIG A   1      -8.171   2.033 130.336  0.00  0.00    +0.003 C 
ATOM     17  C   LIG A   1      -6.874   2.331 131.082  0.00  0.00    +0.019 C 
ATOM     18  C   LIG A   1      -7.009   3.350 132.238  0.00  0.00    +0.061 C 
ENDROOT
TORSDOF 0
ENDMDL
MODEL 9
REMARK VINA RESULT:      -5.8      7.236      9.644
REMARK  Name = NuBBE_1358
REMARK  0 active torsions:
REMARK  status: ('A' for Active; 'I' for Inactive)
REMARK                            x       y       z     vdW  Elec       q    Type
REMARK                         _______ _______ _______ _____ _____    ______ ____
ROOT
ATOM      1  O   LIG A   1      -6.981   7.367 130.724  0.00  0.00    -0.276 OA
ATOM      2  C   LIG A   1      -7.989   6.770 131.057  0.00  0.00    +0.216 C 
ATOM      3  C   LIG A   1      -9.268   6.933 130.266  0.00  0.00    +0.096 C 
ATOM      4  C   LIG A   1     -10.515   6.793 131.112  0.00  0.00    +0.011 C 
ATOM      5  C   LIG A   1     -10.461   5.448 131.819  0.00  0.00    +0.023 C 
ATOM      6  C   LIG A   1      -9.289   5.497 132.810  0.00  0.00    +0.080 C 
ATOM      7  N   LIG A   1      -8.031   5.887 132.143  0.00  0.00    -0.298 N 
ATOM      8  C   LIG A   1      -6.831   5.793 132.960  0.00  0.00    +0.113 C 
ATOM      9  C   LIG A   1      -6.719   4.478 133.733  0.00  0.00    +0.024 C 
ATOM     10  C   LIG A   1      -7.967   4.349 134.626  0.00  0.00    +0.013 C 
ATOM     11  C   LIG A   1      -9.186   4.226 133.707  0.00  0.00    +0.024 C 
ATOM     12  C   LIG A   1      -9.054   2.899 132.947  0.00  0.00    +0.090 C 
ATOM     13  N   LIG A   1      -7.836   2.894 132.170  0.00  0.00    -0.299 NA
ATOM     14  C   LIG A   1      -7.888   2.280 130.871  0.00  0.00    +0.085 C 
ATOM     15  C   LIG A   1      -6.984   2.962 129.850  0.00  0.00    +0.015 C 
ATOM     16  C   LIG A   1      -5.778   3.708 130.411  0.00  0.00    +0.003 C 
ATOM     17  C   LIG A   1      -5.393   3.300 131.829  0.00  0.00    +0.019 C 
ATOM     18  C   LIG A   1      -6.574   3.213 132.824  0.00  0.00    +0.061 C 
ENDROOT
TORSDOF 0
ENDMDL
