MODEL 1
REMARK VINA RESULT:      -8.0      0.000      0.000
REMARK  Name = NuBBE_238
REMARK  19 active torsions:
REMARK  status: ('A' for Active; 'I' for Inactive)
REMARK    1  A    between atoms: C_1  and  C_2
REMARK    2  A    between atoms: C_7  and  O_9
REMARK    3  A    between atoms: C_12  and  O_14
REMARK    4  A    between atoms: O_14  and  C_15
REMARK    5  A    between atoms: C_15  and  C_16
REMARK    6  A    between atoms: C_19  and  O_21
REMARK    7  A    between atoms: O_21  and  C_22
REMARK    8  A    between atoms: C_22  and  C_23
REMARK    9  A    between atoms: C_26  and  O_28
REMARK   10  A    between atoms: O_28  and  C_29
REMARK   11  A    between atoms: C_29  and  C_30
REMARK   12  A    between atoms: C_30  and  C_31
REMARK   13  A    between atoms: C_30  and  C_32
REMARK   14  A    between atoms: C_32  and  C_33
REMARK   15  A    between atoms: C_38  and  C_39
REMARK   16  A    between atoms: C_38  and  C_40
REMARK   17  A    between atoms: C_40  and  C_41
REMARK   18  A    between atoms: C_42  and  C_43
REMARK   19  A    between atoms: C_42  and  C_45
REMARK                            x       y       z     vdW  Elec       q    Type
REMARK                         _______ _______ _______ _____ _____    ______ ____
ROOT
ATOM      1  C   LIG A   1      -4.449   5.754 126.921  0.00  0.00    +0.008 C 
ATOM      2  C   LIG A   1      -3.969   4.301 126.789  0.00  0.00    -0.005 C 
ATOM      3  C   LIG A   1      -4.123   3.838 125.341  0.00  0.00    +0.036 C 
ATOM      4  C   LIG A   1      -5.586   3.680 124.924  0.00  0.00    +0.131 C 
ATOM      5  C   LIG A   1      -6.518   3.047 126.014  0.00  0.00    +0.089 C 
ATOM      6  C   LIG A   1      -7.403   2.110 125.222  0.00  0.00    +0.012 C 
ATOM      7  C   LIG A   1      -8.548   2.911 124.673  0.00  0.00    +0.343 C 
ATOM      8  O   LIG A   1      -8.669   4.060 125.513  0.00  0.00    -0.297 OA
ATOM      9  C   LIG A   1      -7.692   3.941 126.569  0.00  0.00    +0.327 C 
ATOM     10  C   LIG A   1      -7.290   0.780 125.215  0.00  0.00    +0.023 C 
ATOM     11  C   LIG A   1      -6.284   0.016 126.004  0.00  0.00    +0.200 C 
ATOM     12  C   LIG A   1      -5.190   0.922 126.605  0.00  0.00    +0.054 C 
ATOM     13  C   LIG A   1      -5.695   2.305 127.126  0.00  0.00    +0.018 C 
ATOM     14  C   LIG A   1      -4.558   3.223 127.799  0.00  0.00    -0.022 C 
ATOM     15  C   LIG A   1      -3.336   2.355 128.231  0.00  0.00    +0.012 C 
ENDROOT
BRANCH   4  16
ATOM     16  O   LIG A   1      -6.088   4.931 124.461  0.00  0.00    -0.391 OA
ATOM     17  H   LIG A   1      -5.380   5.371 123.959  0.00  0.00    +0.210 HD
ENDBRANCH   4  16
BRANCH   7  18
ATOM     18  O   LIG A   1      -9.804   2.240 124.548  0.00  0.00    -0.431 OA
BRANCH  18  19
ATOM     19  C   LIG A   1     -10.048   1.617 123.378  0.00  0.00    +0.306 C 
ATOM     20  C   LIG A   1      -9.259   2.190 122.269  0.00  0.00    +0.136 C 
ATOM     21  O   LIG A   1     -10.826   0.667 123.193  0.00  0.00    -0.251 OA
ENDBRANCH  18  19
ENDBRANCH   7  18
BRANCH   9  22
ATOM     22  O   LIG A   1      -8.314   3.296 127.712  0.00  0.00    -0.434 OA
BRANCH  22  23
ATOM     23  C   LIG A   1      -8.661   4.056 128.782  0.00  0.00    +0.306 C 
ATOM     24  C   LIG A   1      -8.698   3.220 130.045  0.00  0.00    +0.136 C 
ATOM     25  O   LIG A   1      -8.935   5.241 128.757  0.00  0.00    -0.251 OA
ENDBRANCH  22  23
ENDBRANCH   9  22
BRANCH  11  26
ATOM     26  O   LIG A   1      -5.621  -0.975 125.194  0.00  0.00    -0.457 OA
BRANCH  26  27
ATOM     27  C   LIG A   1      -6.256  -2.172 125.038  0.00  0.00    +0.310 C 
ATOM     28  O   LIG A   1      -6.905  -2.763 125.889  0.00  0.00    -0.251 OA
BRANCH  27  29
ATOM     29  C   LIG A   1      -5.977  -2.740 123.668  0.00  0.00    +0.094 C 
ATOM     30  C   LIG A   1      -6.356  -1.707 122.607  0.00  0.00    +0.019 C 
BRANCH  29  31
ATOM     31  C   LIG A   1      -4.529  -3.221 123.539  0.00  0.00    +0.011 C 
ATOM     32  C   LIG A   1      -4.365  -4.737 123.536  0.00  0.00    +0.004 C 
ENDBRANCH  29  31
ENDBRANCH  27  29
ENDBRANCH  26  27
ENDBRANCH  11  26
BRANCH  14  33
ATOM     33  C   LIG A   1      -5.107   3.924 129.102  0.00  0.00    +0.034 C 
BRANCH  33  34
ATOM     34  C   LIG A   1      -4.318   3.726 130.385  0.00  0.00    -0.023 C 
ATOM     35  C   LIG A   1      -3.445   4.595 130.938  0.00  0.00    -0.055 C 
ATOM     36  C   LIG A   1      -2.728   4.283 132.229  0.00  0.00    +0.043 C 
BRANCH  35  37
ATOM     37  C   LIG A   1      -3.112   5.882 130.356  0.00  0.00    -0.005 C 
ATOM     38  C   LIG A   1      -1.884   6.413 130.370  0.00  0.00    +0.008 C 
ENDBRANCH  35  37
ENDBRANCH  33  34
ENDBRANCH  14  33
TORSDOF 12
ENDMDL
MODEL 2
REMARK VINA RESULT:      -7.9      3.571      5.075
REMARK  Name = NuBBE_238
REMARK  19 active torsions:
REMARK  status: ('A' for Active; 'I' for Inactive)
REMARK    1  A    between atoms: C_1  and  C_2
REMARK    2  A    between atoms: C_7  and  O_9
REMARK    3  A    between atoms: C_12  and  O_14
REMARK    4  A    between atoms: O_14  and  C_15
REMARK    5  A    between atoms: C_15  and  C_16
REMARK    6  A    between atoms: C_19  and  O_21
REMARK    7  A    between atoms: O_21  and  C_22
REMARK    8  A    between atoms: C_22  and  C_23
REMARK    9  A    between atoms: C_26  and  O_28
REMARK   10  A    between atoms: O_28  and  C_29
REMARK   11  A    between atoms: C_29  and  C_30
REMARK   12  A    between atoms: C_30  and  C_31
REMARK   13  A    between atoms: C_30  and  C_32
REMARK   14  A    between atoms: C_32  and  C_33
REMARK   15  A    between atoms: C_38  and  C_39
REMARK   16  A    between atoms: C_38  and  C_40
REMARK   17  A    between atoms: C_40  and  C_41
REMARK   18  A    between atoms: C_42  and  C_43
REMARK   19  A    between atoms: C_42  and  C_45
REMARK                            x       y       z     vdW  Elec       q    Type
REMARK                         _______ _______ _______ _____ _____    ______ ____
ROOT
ATOM      1  C   LIG A   1      -4.446  -0.895 129.916  0.00  0.00    +0.008 C 
ATOM      2  C   LIG A   1      -5.218  -1.996 129.174  0.00  0.00    -0.005 C 
ATOM      3  C   LIG A   1      -4.968  -1.877 127.672  0.00  0.00    +0.036 C 
ATOM      4  C   LIG A   1      -5.616  -0.634 127.062  0.00  0.00    +0.131 C 
ATOM      5  C   LIG A   1      -7.047  -0.299 127.609  0.00  0.00    +0.089 C 
ATOM      6  C   LIG A   1      -7.810   0.123 126.373  0.00  0.00    +0.012 C 
ATOM      7  C   LIG A   1      -7.533   1.579 126.134  0.00  0.00    +0.343 C 
ATOM      8  O   LIG A   1      -7.133   2.121 127.395  0.00  0.00    -0.297 OA
ATOM      9  C   LIG A   1      -7.225   1.067 128.377  0.00  0.00    +0.327 C 
ATOM     10  C   LIG A   1      -8.730  -0.621 125.757  0.00  0.00    +0.023 C 
ATOM     11  C   LIG A   1      -9.158  -1.974 126.205  0.00  0.00    +0.200 C 
ATOM     12  C   LIG A   1      -8.227  -2.563 127.284  0.00  0.00    +0.054 C 
ATOM     13  C   LIG A   1      -7.698  -1.531 128.331  0.00  0.00    +0.018 C 
ATOM     14  C   LIG A   1      -6.769  -2.161 129.483  0.00  0.00    -0.022 C 
ATOM     15  C   LIG A   1      -7.003  -3.699 129.597  0.00  0.00    +0.012 C 
ENDROOT
BRANCH   4  16
ATOM     16  O   LIG A   1      -4.730   0.476 127.185  0.00  0.00    -0.391 OA
ATOM     17  H   LIG A   1      -4.525   0.796 126.289  0.00  0.00    +0.210 HD
ENDBRANCH   4  16
BRANCH   7  18
ATOM     18  O   LIG A   1      -8.590   2.353 125.564  0.00  0.00    -0.431 OA
BRANCH  18  19
ATOM     19  C   LIG A   1      -8.269   3.578 125.102  0.00  0.00    +0.306 C 
ATOM     20  C   LIG A   1      -7.209   3.522 124.075  0.00  0.00    +0.136 C 
ATOM     21  O   LIG A   1      -8.771   4.658 125.454  0.00  0.00    -0.251 OA
ENDBRANCH  18  19
ENDBRANCH   7  18
BRANCH   9  22
ATOM     22  O   LIG A   1      -8.534   1.121 129.003  0.00  0.00    -0.434 OA
BRANCH  22  23
ATOM     23  C   LIG A   1      -8.839   2.184 129.790  0.00  0.00    +0.306 C 
ATOM     24  C   LIG A   1      -8.062   2.131 131.089  0.00  0.00    +0.136 C 
ATOM     25  O   LIG A   1      -9.640   3.061 129.525  0.00  0.00    -0.251 OA
ENDBRANCH  22  23
ENDBRANCH   9  22
BRANCH  11  26
ATOM     26  O   LIG A   1      -9.187  -2.910 125.109  0.00  0.00    -0.457 OA
BRANCH  26  27
ATOM     27  C   LIG A   1      -9.048  -2.396 123.854  0.00  0.00    +0.310 C 
ATOM     28  O   LIG A   1      -9.907  -1.804 123.215  0.00  0.00    -0.251 OA
BRANCH  27  29
ATOM     29  C   LIG A   1      -7.689  -2.735 123.294  0.00  0.00    +0.094 C 
ATOM     30  C   LIG A   1      -6.982  -1.447 122.870  0.00  0.00    +0.019 C 
BRANCH  29  31
ATOM     31  C   LIG A   1      -6.864  -3.569 124.278  0.00  0.00    +0.011 C 
ATOM     32  C   LIG A   1      -5.357  -3.506 124.051  0.00  0.00    +0.004 C 
ENDBRANCH  29  31
ENDBRANCH  27  29
ENDBRANCH  26  27
ENDBRANCH  11  26
BRANCH  14  33
ATOM     33  C   LIG A   1      -7.125  -1.538 130.888  0.00  0.00    +0.034 C 
BRANCH  33  34
ATOM     34  C   LIG A   1      -7.555  -2.495 131.987  0.00  0.00    -0.023 C 
ATOM     35  C   LIG A   1      -6.785  -2.973 132.989  0.00  0.00    -0.055 C 
ATOM     36  C   LIG A   1      -7.336  -3.916 134.030  0.00  0.00    +0.043 C 
BRANCH  35  37
ATOM     37  C   LIG A   1      -5.382  -2.640 133.154  0.00  0.00    -0.005 C 
ATOM     38  C   LIG A   1      -4.375  -3.406 132.718  0.00  0.00    +0.008 C 
ENDBRANCH  35  37
ENDBRANCH  33  34
ENDBRANCH  14  33
TORSDOF 12
ENDMDL
MODEL 3
REMARK VINA RESULT:      -7.8      5.163      6.559
REMARK  Name = NuBBE_238
REMARK  19 active torsions:
REMARK  status: ('A' for Active; 'I' for Inactive)
REMARK    1  A    between atoms: C_1  and  C_2
REMARK    2  A    between atoms: C_7  and  O_9
REMARK    3  A    between atoms: C_12  and  O_14
REMARK    4  A    between atoms: O_14  and  C_15
REMARK    5  A    between atoms: C_15  and  C_16
REMARK    6  A    between atoms: C_19  and  O_21
REMARK    7  A    between atoms: O_21  and  C_22
REMARK    8  A    between atoms: C_22  and  C_23
REMARK    9  A    between atoms: C_26  and  O_28
REMARK   10  A    between atoms: O_28  and  C_29
REMARK   11  A    between atoms: C_29  and  C_30
REMARK   12  A    between atoms: C_30  and  C_31
REMARK   13  A    between atoms: C_30  and  C_32
REMARK   14  A    between atoms: C_32  and  C_33
REMARK   15  A    between atoms: C_38  and  C_39
REMARK   16  A    between atoms: C_38  and  C_40
REMARK   17  A    between atoms: C_40  and  C_41
REMARK   18  A    between atoms: C_42  and  C_43
REMARK   19  A    between atoms: C_42  and  C_45
REMARK                            x       y       z     vdW  Elec       q    Type
REMARK                         _______ _______ _______ _____ _____    ______ ____
ROOT
ATOM      1  C   LIG A   1      -3.483  -2.146 131.676  0.00  0.00    +0.008 C 
ATOM      2  C   LIG A   1      -4.185  -3.185 130.788  0.00  0.00    -0.005 C 
ATOM      3  C   LIG A   1      -4.046  -2.785 129.320  0.00  0.00    +0.036 C 
ATOM      4  C   LIG A   1      -4.856  -1.537 128.969  0.00  0.00    +0.131 C 
ATOM      5  C   LIG A   1      -6.274  -1.462 129.632  0.00  0.00    +0.089 C 
ATOM      6  C   LIG A   1      -7.155  -0.925 128.526  0.00  0.00    +0.012 C 
ATOM      7  C   LIG A   1      -7.045   0.572 128.535  0.00  0.00    +0.343 C 
ATOM      8  O   LIG A   1      -6.623   0.933 129.852  0.00  0.00    -0.297 OA
ATOM      9  C   LIG A   1      -6.541  -0.276 130.636  0.00  0.00    +0.327 C 
ATOM     10  C   LIG A   1      -8.032  -1.651 127.831  0.00  0.00    +0.023 C 
ATOM     11  C   LIG A   1      -8.290  -3.101 128.054  0.00  0.00    +0.200 C 
ATOM     12  C   LIG A   1      -7.235  -3.756 128.968  0.00  0.00    +0.054 C 
ATOM     13  C   LIG A   1      -6.748  -2.865 130.155  0.00  0.00    +0.018 C 
ATOM     14  C   LIG A   1      -5.687  -3.574 131.134  0.00  0.00    -0.022 C 
ATOM     15  C   LIG A   1      -5.754  -5.125 130.986  0.00  0.00    +0.012 C 
ENDROOT
BRANCH   4  16
ATOM     16  O   LIG A   1      -4.082  -0.372 129.245  0.00  0.00    -0.391 OA
ATOM     17  H   LIG A   1      -3.388  -0.306 128.566  0.00  0.00    +0.210 HD
ENDBRANCH   4  16
BRANCH   7  18
ATOM     18  O   LIG A   1      -8.211   1.308 128.159  0.00  0.00    -0.431 OA
BRANCH  18  19
ATOM     19  C   LIG A   1      -8.055   2.256 127.213  0.00  0.00    +0.306 C 
ATOM     20  C   LIG A   1      -7.358   1.736 126.019  0.00  0.00    +0.136 C 
ATOM     21  O   LIG A   1      -8.434   3.437 127.277  0.00  0.00    -0.251 OA
ENDBRANCH  18  19
ENDBRANCH   7  18
BRANCH   9  22
ATOM     22  O   LIG A   1      -7.807  -0.477 131.321  0.00  0.00    -0.434 OA
BRANCH  22  23
ATOM     23  C   LIG A   1      -8.210   0.445 132.232  0.00  0.00    +0.306 C 
ATOM     24  C   LIG A   1      -9.549   1.036 131.841  0.00  0.00    +0.136 C 
ATOM     25  O   LIG A   1      -7.591   0.788 133.222  0.00  0.00    -0.251 OA
ENDBRANCH  22  23
ENDBRANCH   9  22
BRANCH  11  26
ATOM     26  O   LIG A   1      -8.293  -3.833 126.812  0.00  0.00    -0.457 OA
BRANCH  26  27
ATOM     27  C   LIG A   1      -9.007  -3.299 125.781  0.00  0.00    +0.310 C 
ATOM     28  O   LIG A   1     -10.134  -2.828 125.848  0.00  0.00    -0.251 OA
BRANCH  27  29
ATOM     29  C   LIG A   1      -8.248  -3.444 124.485  0.00  0.00    +0.094 C 
ATOM     30  C   LIG A   1      -9.148  -3.022 123.323  0.00  0.00    +0.019 C 
BRANCH  29  31
ATOM     31  C   LIG A   1      -6.922  -2.679 124.517  0.00  0.00    +0.011 C 
ATOM     32  C   LIG A   1      -5.707  -3.504 124.105  0.00  0.00    +0.004 C 
ENDBRANCH  29  31
ENDBRANCH  27  29
ENDBRANCH  26  27
ENDBRANCH  11  26
BRANCH  14  33
ATOM     33  C   LIG A   1      -6.013  -3.243 132.642  0.00  0.00    +0.034 C 
BRANCH  33  34
ATOM     34  C   LIG A   1      -6.196  -4.416 133.590  0.00  0.00    -0.023 C 
ATOM     35  C   LIG A   1      -5.243  -4.991 134.354  0.00  0.00    -0.055 C 
ATOM     36  C   LIG A   1      -5.556  -6.152 135.268  0.00  0.00    +0.043 C 
BRANCH  35  37
ATOM     37  C   LIG A   1      -3.856  -4.566 134.368  0.00  0.00    -0.005 C 
ATOM     38  C   LIG A   1      -2.868  -5.217 133.742  0.00  0.00    +0.008 C 
ENDBRANCH  35  37
ENDBRANCH  33  34
ENDBRANCH  14  33
TORSDOF 12
ENDMDL
MODEL 4
REMARK VINA RESULT:      -7.7      3.651      8.069
REMARK  Name = NuBBE_238
REMARK  19 active torsions:
REMARK  status: ('A' for Active; 'I' for Inactive)
REMARK    1  A    between atoms: C_1  and  C_2
REMARK    2  A    between atoms: C_7  and  O_9
REMARK    3  A    between atoms: C_12  and  O_14
REMARK    4  A    between atoms: O_14  and  C_15
REMARK    5  A    between atoms: C_15  and  C_16
REMARK    6  A    between atoms: C_19  and  O_21
REMARK    7  A    between atoms: O_21  and  C_22
REMARK    8  A    between atoms: C_22  and  C_23
REMARK    9  A    between atoms: C_26  and  O_28
REMARK   10  A    between atoms: O_28  and  C_29
REMARK   11  A    between atoms: C_29  and  C_30
REMARK   12  A    between atoms: C_30  and  C_31
REMARK   13  A    between atoms: C_30  and  C_32
REMARK   14  A    between atoms: C_32  and  C_33
REMARK   15  A    between atoms: C_38  and  C_39
REMARK   16  A    between atoms: C_38  and  C_40
REMARK   17  A    between atoms: C_40  and  C_41
REMARK   18  A    between atoms: C_42  and  C_43
REMARK   19  A    between atoms: C_42  and  C_45
REMARK                            x       y       z     vdW  Elec       q    Type
REMARK                         _______ _______ _______ _____ _____    ______ ____
ROOT
ATOM      1  C   LIG A   1      -6.602   2.038 133.748  0.00  0.00    +0.008 C 
ATOM      2  C   LIG A   1      -7.632   3.175 133.817  0.00  0.00    -0.005 C 
ATOM      3  C   LIG A   1      -8.795   2.874 132.873  0.00  0.00    +0.036 C 
ATOM      4  C   LIG A   1      -8.396   2.958 131.399  0.00  0.00    +0.131 C 
ATOM      5  C   LIG A   1      -7.432   4.141 131.042  0.00  0.00    +0.089 C 
ATOM      6  C   LIG A   1      -7.969   4.650 129.723  0.00  0.00    +0.012 C 
ATOM      7  C   LIG A   1      -7.380   3.807 128.629  0.00  0.00    +0.343 C 
ATOM      8  O   LIG A   1      -6.179   3.245 129.163  0.00  0.00    -0.297 OA
ATOM      9  C   LIG A   1      -6.001   3.768 130.496  0.00  0.00    +0.327 C 
ATOM     10  C   LIG A   1      -8.659   5.781 129.568  0.00  0.00    +0.023 C 
ATOM     11  C   LIG A   1      -8.989   6.725 130.671  0.00  0.00    +0.200 C 
ATOM     12  C   LIG A   1      -8.712   6.127 132.065  0.00  0.00    +0.054 C 
ATOM     13  C   LIG A   1      -7.425   5.245 132.158  0.00  0.00    +0.018 C 
ATOM     14  C   LIG A   1      -7.115   4.667 133.627  0.00  0.00    -0.022 C 
ATOM     15  C   LIG A   1      -7.859   5.501 134.714  0.00  0.00    +0.012 C 
ENDROOT
BRANCH   4  16
ATOM     16  O   LIG A   1      -7.871   1.702 130.975  0.00  0.00    -0.391 OA
ATOM     17  H   LIG A   1      -6.900   1.769 130.972  0.00  0.00    +0.210 HD
ENDBRANCH   4  16
BRANCH   7  18
ATOM     18  O   LIG A   1      -7.124   4.455 127.381  0.00  0.00    -0.431 OA
BRANCH  18  19
ATOM     19  C   LIG A   1      -7.912   4.112 126.343  0.00  0.00    +0.306 C 
ATOM     20  C   LIG A   1      -7.777   2.683 125.995  0.00  0.00    +0.136 C 
ATOM     21  O   LIG A   1      -8.682   4.859 125.718  0.00  0.00    -0.251 OA
ENDBRANCH  18  19
ENDBRANCH   7  18
BRANCH   9  22
ATOM     22  O   LIG A   1      -5.167   4.955 130.427  0.00  0.00    -0.434 OA
BRANCH  22  23
ATOM     23  C   LIG A   1      -3.998   4.893 129.740  0.00  0.00    +0.306 C 
ATOM     24  C   LIG A   1      -3.786   6.154 128.927  0.00  0.00    +0.136 C 
ATOM     25  O   LIG A   1      -3.219   3.959 129.740  0.00  0.00    -0.251 OA
ENDBRANCH  22  23
ENDBRANCH   9  22
BRANCH  11  26
ATOM     26  O   LIG A   1     -10.378   7.110 130.640  0.00  0.00    -0.457 OA
BRANCH  26  27
ATOM     27  C   LIG A   1     -10.808   7.783 129.535  0.00  0.00    +0.310 C 
ATOM     28  O   LIG A   1     -10.105   8.374 128.727  0.00  0.00    -0.251 OA
BRANCH  27  29
ATOM     29  C   LIG A   1     -12.316   7.784 129.475  0.00  0.00    +0.094 C 
ATOM     30  C   LIG A   1     -12.878   7.552 130.877  0.00  0.00    +0.019 C 
BRANCH  29  31
ATOM     31  C   LIG A   1     -12.855   9.061 128.822  0.00  0.00    +0.011 C 
ATOM     32  C   LIG A   1     -13.204  10.173 129.804  0.00  0.00    +0.004 C 
ENDBRANCH  29  31
ENDBRANCH  27  29
ENDBRANCH  26  27
ENDBRANCH  11  26
BRANCH  14  33
ATOM     33  C   LIG A   1      -5.573   4.765 133.949  0.00  0.00    +0.034 C 
BRANCH  33  34
ATOM     34  C   LIG A   1      -4.856   6.042 133.544  0.00  0.00    -0.023 C 
ATOM     35  C   LIG A   1      -3.542   6.175 133.261  0.00  0.00    -0.055 C 
ATOM     36  C   LIG A   1      -2.950   7.503 132.858  0.00  0.00    +0.043 C 
BRANCH  35  37
ATOM     37  C   LIG A   1      -2.591   5.081 133.324  0.00  0.00    -0.005 C 
ATOM     38  C   LIG A   1      -1.479   5.013 132.582  0.00  0.00    +0.008 C 
ENDBRANCH  35  37
ENDBRANCH  33  34
ENDBRANCH  14  33
TORSDOF 12
ENDMDL
MODEL 5
REMARK VINA RESULT:      -7.6      2.545      6.400
REMARK  Name = NuBBE_238
REMARK  19 active torsions:
REMARK  status: ('A' for Active; 'I' for Inactive)
REMARK    1  A    between atoms: C_1  and  C_2
REMARK    2  A    between atoms: C_7  and  O_9
REMARK    3  A    between atoms: C_12  and  O_14
REMARK    4  A    between atoms: O_14  and  C_15
REMARK    5  A    between atoms: C_15  and  C_16
REMARK    6  A    between atoms: C_19  and  O_21
REMARK    7  A    between atoms: O_21  and  C_22
REMARK    8  A    between atoms: C_22  and  C_23
REMARK    9  A    between atoms: C_26  and  O_28
REMARK   10  A    between atoms: O_28  and  C_29
REMARK   11  A    between atoms: C_29  and  C_30
REMARK   12  A    between atoms: C_30  and  C_31
REMARK   13  A    between atoms: C_30  and  C_32
REMARK   14  A    between atoms: C_32  and  C_33
REMARK   15  A    between atoms: C_38  and  C_39
REMARK   16  A    between atoms: C_38  and  C_40
REMARK   17  A    between atoms: C_40  and  C_41
REMARK   18  A    between atoms: C_42  and  C_43
REMARK   19  A    between atoms: C_42  and  C_45
REMARK                            x       y       z     vdW  Elec       q    Type
REMARK                         _______ _______ _______ _____ _____    ______ ____
ROOT
ATOM      1  C   LIG A   1      -8.233   0.486 129.954  0.00  0.00    +0.008 C 
ATOM      2  C   LIG A   1      -6.809   1.056 129.868  0.00  0.00    -0.005 C 
ATOM      3  C   LIG A   1      -6.870   2.579 129.764  0.00  0.00    +0.036 C 
ATOM      4  C   LIG A   1      -7.435   3.058 128.427  0.00  0.00    +0.131 C 
ATOM      5  C   LIG A   1      -6.953   2.243 127.177  0.00  0.00    +0.089 C 
ATOM      6  C   LIG A   1      -6.712   3.308 126.130  0.00  0.00    +0.012 C 
ATOM      7  C   LIG A   1      -8.023   3.605 125.463  0.00  0.00    +0.343 C 
ATOM      8  O   LIG A   1      -8.841   2.450 125.660  0.00  0.00    -0.297 OA
ATOM      9  C   LIG A   1      -8.050   1.463 126.356  0.00  0.00    +0.327 C 
ATOM     10  C   LIG A   1      -5.508   3.729 125.737  0.00  0.00    +0.023 C 
ATOM     11  C   LIG A   1      -4.218   3.197 126.257  0.00  0.00    +0.200 C 
ATOM     12  C   LIG A   1      -4.402   2.318 127.511  0.00  0.00    +0.054 C 
ATOM     13  C   LIG A   1      -5.666   1.401 127.491  0.00  0.00    +0.018 C 
ATOM     14  C   LIG A   1      -5.823   0.449 128.778  0.00  0.00    -0.022 C 
ATOM     15  C   LIG A   1      -4.456   0.283 129.508  0.00  0.00    +0.012 C 
ENDROOT
BRANCH   4  16
ATOM     16  O   LIG A   1      -8.857   3.117 128.503  0.00  0.00    -0.391 OA
ATOM     17  H   LIG A   1      -9.164   2.329 128.985  0.00  0.00    +0.210 HD
ENDBRANCH   4  16
BRANCH   7  18
ATOM     18  O   LIG A   1      -7.977   3.963 124.080  0.00  0.00    -0.431 OA
BRANCH  18  19
ATOM     19  C   LIG A   1      -8.157   2.969 123.187  0.00  0.00    +0.306 C 
ATOM     20  C   LIG A   1      -6.880   2.511 122.603  0.00  0.00    +0.136 C 
ATOM     21  O   LIG A   1      -9.239   2.455 122.858  0.00  0.00    -0.251 OA
ENDBRANCH  18  19
ENDBRANCH   7  18
BRANCH   9  22
ATOM     22  O   LIG A   1      -7.419   0.593 125.379  0.00  0.00    -0.434 OA
BRANCH  22  23
ATOM     23  C   LIG A   1      -8.161  -0.381 124.794  0.00  0.00    +0.306 C 
ATOM     24  C   LIG A   1      -8.995  -1.112 125.827  0.00  0.00    +0.136 C 
ATOM     25  O   LIG A   1      -8.160  -0.667 123.612  0.00  0.00    -0.251 OA
ENDBRANCH  22  23
ENDBRANCH   9  22
BRANCH  11  26
ATOM     26  O   LIG A   1      -3.312   4.262 126.611  0.00  0.00    -0.457 OA
BRANCH  26  27
ATOM     27  C   LIG A   1      -3.766   5.190 127.500  0.00  0.00    +0.310 C 
ATOM     28  O   LIG A   1      -4.612   6.047 127.283  0.00  0.00    -0.251 OA
BRANCH  27  29
ATOM     29  C   LIG A   1      -3.010   5.086 128.801  0.00  0.00    +0.094 C 
ATOM     30  C   LIG A   1      -2.108   6.310 128.960  0.00  0.00    +0.019 C 
BRANCH  29  31
ATOM     31  C   LIG A   1      -3.954   4.886 129.990  0.00  0.00    +0.011 C 
ATOM     32  C   LIG A   1      -3.425   3.943 131.065  0.00  0.00    +0.004 C 
ENDBRANCH  29  31
ENDBRANCH  27  29
ENDBRANCH  26  27
ENDBRANCH  11  26
BRANCH  14  33
ATOM     33  C   LIG A   1      -6.292  -0.995 128.348  0.00  0.00    +0.034 C 
BRANCH  33  34
ATOM     34  C   LIG A   1      -5.819  -2.163 129.196  0.00  0.00    -0.023 C 
ATOM     35  C   LIG A   1      -6.582  -3.159 129.697  0.00  0.00    -0.055 C 
ATOM     36  C   LIG A   1      -5.986  -4.274 130.522  0.00  0.00    +0.043 C 
BRANCH  35  37
ATOM     37  C   LIG A   1      -8.017  -3.249 129.503  0.00  0.00    -0.005 C 
ATOM     38  C   LIG A   1      -8.593  -3.757 128.407  0.00  0.00    +0.008 C 
ENDBRANCH  35  37
ENDBRANCH  33  34
ENDBRANCH  14  33
TORSDOF 12
ENDMDL
MODEL 6
REMARK VINA RESULT:      -7.6      3.471      8.673
REMARK  Name = NuBBE_238
REMARK  19 active torsions:
REMARK  status: ('A' for Active; 'I' for Inactive)
REMARK    1  A    between atoms: C_1  and  C_2
REMARK    2  A    between atoms: C_7  and  O_9
REMARK    3  A    between atoms: C_12  and  O_14
REMARK    4  A    between atoms: O_14  and  C_15
REMARK    5  A    between atoms: C_15  and  C_16
REMARK    6  A    between atoms: C_19  and  O_21
REMARK    7  A    between atoms: O_21  and  C_22
REMARK    8  A    between atoms: C_22  and  C_23
REMARK    9  A    between atoms: C_26  and  O_28
REMARK   10  A    between atoms: O_28  and  C_29
REMARK   11  A    between atoms: C_29  and  C_30
REMARK   12  A    between atoms: C_30  and  C_31
REMARK   13  A    between atoms: C_30  and  C_32
REMARK   14  A    between atoms: C_32  and  C_33
REMARK   15  A    between atoms: C_38  and  C_39
REMARK   16  A    between atoms: C_38  and  C_40
REMARK   17  A    between atoms: C_40  and  C_41
REMARK   18  A    between atoms: C_42  and  C_43
REMARK   19  A    between atoms: C_42  and  C_45
REMARK                            x       y       z     vdW  Elec       q    Type
REMARK                         _______ _______ _______ _____ _____    ______ ____
ROOT
ATOM      1  C   LIG A   1      -5.345  -0.597 126.204  0.00  0.00    +0.008 C 
ATOM      2  C   LIG A   1      -6.399   0.520 126.186  0.00  0.00    -0.005 C 
ATOM      3  C   LIG A   1      -5.820   1.785 126.818  0.00  0.00    +0.036 C 
ATOM      4  C   LIG A   1      -5.600   1.644 128.324  0.00  0.00    +0.131 C 
ATOM      5  C   LIG A   1      -6.736   0.879 129.089  0.00  0.00    +0.089 C 
ATOM      6  C   LIG A   1      -6.903   1.675 130.364  0.00  0.00    +0.012 C 
ATOM      7  C   LIG A   1      -5.879   1.189 131.349  0.00  0.00    +0.343 C 
ATOM      8  O   LIG A   1      -5.529  -0.135 130.939  0.00  0.00    -0.297 OA
ATOM      9  C   LIG A   1      -6.346  -0.474 129.798  0.00  0.00    +0.327 C 
ATOM     10  C   LIG A   1      -7.924   2.495 130.621  0.00  0.00    +0.023 C 
ATOM     11  C   LIG A   1      -9.065   2.735 129.696  0.00  0.00    +0.200 C 
ATOM     12  C   LIG A   1      -8.811   2.173 128.282  0.00  0.00    +0.054 C 
ATOM     13  C   LIG A   1      -8.058   0.804 128.246  0.00  0.00    +0.018 C 
ATOM     14  C   LIG A   1      -7.842   0.198 126.771  0.00  0.00    -0.022 C 
ATOM     15  C   LIG A   1      -8.846   0.837 125.763  0.00  0.00    +0.012 C 
ENDROOT
BRANCH   4  16
ATOM     16  O   LIG A   1      -4.320   1.068 128.569  0.00  0.00    -0.391 OA
ATOM     17  H   LIG A   1      -4.355   0.134 128.298  0.00  0.00    +0.210 HD
ENDBRANCH   4  16
BRANCH   7  18
ATOM     18  O   LIG A   1      -6.250   1.210 132.729  0.00  0.00    -0.431 OA
BRANCH  18  19
ATOM     19  C   LIG A   1      -5.718   2.188 133.488  0.00  0.00    +0.306 C 
ATOM     20  C   LIG A   1      -6.757   2.997 134.157  0.00  0.00    +0.136 C 
ATOM     21  O   LIG A   1      -4.510   2.427 133.650  0.00  0.00    -0.251 OA
ENDBRANCH  18  19
ENDBRANCH   7  18
BRANCH   9  22
ATOM     22  O   LIG A   1      -7.541  -1.157 130.262  0.00  0.00    -0.434 OA
BRANCH  22  23
ATOM     23  C   LIG A   1      -7.424  -2.418 130.752  0.00  0.00    +0.306 C 
ATOM     24  C   LIG A   1      -7.059  -3.390 129.648  0.00  0.00    +0.136 C 
ATOM     25  O   LIG A   1      -7.606  -2.755 131.906  0.00  0.00    -0.251 OA
ENDBRANCH  22  23
ENDBRANCH   9  22
BRANCH  11  26
ATOM     26  O   LIG A   1      -9.341   4.143 129.552  0.00  0.00    -0.457 OA
BRANCH  26  27
ATOM     27  C   LIG A   1     -10.451   4.624 130.181  0.00  0.00    +0.310 C 
ATOM     28  O   LIG A   1     -11.557   4.102 130.197  0.00  0.00    -0.251 OA
BRANCH  27  29
ATOM     29  C   LIG A   1     -10.162   5.968 130.803  0.00  0.00    +0.094 C 
ATOM     30  C   LIG A   1     -11.455   6.545 131.381  0.00  0.00    +0.019 C 
BRANCH  29  31
ATOM     31  C   LIG A   1      -9.036   5.883 131.837  0.00  0.00    +0.011 C 
ATOM     32  C   LIG A   1      -7.747   6.587 131.426  0.00  0.00    +0.004 C 
ENDBRANCH  29  31
ENDBRANCH  27  29
ENDBRANCH  26  27
ENDBRANCH  11  26
BRANCH  14  33
ATOM     33  C   LIG A   1      -8.111  -1.356 126.763  0.00  0.00    +0.034 C 
BRANCH  33  34
ATOM     34  C   LIG A   1      -8.960  -1.912 125.633  0.00  0.00    -0.023 C 
ATOM     35  C   LIG A   1      -8.578  -2.815 124.704  0.00  0.00    -0.055 C 
ATOM     36  C   LIG A   1      -9.525  -3.297 123.632  0.00  0.00    +0.043 C 
BRANCH  35  37
ATOM     37  C   LIG A   1      -7.248  -3.392 124.642  0.00  0.00    -0.005 C 
ATOM     38  C   LIG A   1      -6.312  -3.020 123.762  0.00  0.00    +0.008 C 
ENDBRANCH  35  37
ENDBRANCH  33  34
ENDBRANCH  14  33
TORSDOF 12
ENDMDL
MODEL 7
REMARK VINA RESULT:      -7.3      1.581      2.018
REMARK  Name = NuBBE_238
REMARK  19 active torsions:
REMARK  status: ('A' for Active; 'I' for Inactive)
REMARK    1  A    between atoms: C_1  and  C_2
REMARK    2  A    between atoms: C_7  and  O_9
REMARK    3  A    between atoms: C_12  and  O_14
REMARK    4  A    between atoms: O_14  and  C_15
REMARK    5  A    between atoms: C_15  and  C_16
REMARK    6  A    between atoms: C_19  and  O_21
REMARK    7  A    between atoms: O_21  and  C_22
REMARK    8  A    between atoms: C_22  and  C_23
REMARK    9  A    between atoms: C_26  and  O_28
REMARK   10  A    between atoms: O_28  and  C_29
REMARK   11  A    between atoms: C_29  and  C_30
REMARK   12  A    between atoms: C_30  and  C_31
REMARK   13  A    between atoms: C_30  and  C_32
REMARK   14  A    between atoms: C_32  and  C_33
REMARK   15  A    between atoms: C_38  and  C_39
REMARK   16  A    between atoms: C_38  and  C_40
REMARK   17  A    between atoms: C_40  and  C_41
REMARK   18  A    between atoms: C_42  and  C_43
REMARK   19  A    between atoms: C_42  and  C_45
REMARK                            x       y       z     vdW  Elec       q    Type
REMARK                         _______ _______ _______ _____ _____    ______ ____
ROOT
ATOM      1  C   LIG A   1      -4.119   4.516 127.839  0.00  0.00    +0.008 C 
ATOM      2  C   LIG A   1      -4.011   2.991 127.985  0.00  0.00    -0.005 C 
ATOM      3  C   LIG A   1      -4.039   2.338 126.604  0.00  0.00    +0.036 C 
ATOM      4  C   LIG A   1      -5.406   2.449 125.927  0.00  0.00    +0.131 C 
ATOM      5  C   LIG A   1      -6.634   2.238 126.879  0.00  0.00    +0.089 C 
ATOM      6  C   LIG A   1      -7.587   1.408 126.048  0.00  0.00    +0.012 C 
ATOM      7  C   LIG A   1      -8.384   2.344 125.187  0.00  0.00    +0.343 C 
ATOM      8  O   LIG A   1      -8.344   3.616 125.838  0.00  0.00    -0.297 OA
ATOM      9  C   LIG A   1      -7.615   3.457 127.073  0.00  0.00    +0.327 C 
ATOM     10  C   LIG A   1      -7.817   0.106 126.228  0.00  0.00    +0.023 C 
ATOM     11  C   LIG A   1      -7.182  -0.723 127.290  0.00  0.00    +0.200 C 
ATOM     12  C   LIG A   1      -6.006  -0.002 127.980  0.00  0.00    +0.054 C 
ATOM     13  C   LIG A   1      -6.220   1.527 128.216  0.00  0.00    +0.018 C 
ATOM     14  C   LIG A   1      -5.011   2.262 128.983  0.00  0.00    -0.022 C 
ATOM     15  C   LIG A   1      -4.139   1.224 129.753  0.00  0.00    +0.012 C 
ENDROOT
BRANCH   4  16
ATOM     16  O   LIG A   1      -5.490   3.685 125.222  0.00  0.00    -0.391 OA
ATOM     17  H   LIG A   1      -4.696   4.207 125.435  0.00  0.00    +0.210 HD
ENDBRANCH   4  16
BRANCH   7  18
ATOM     18  O   LIG A   1      -9.732   1.967 124.898  0.00  0.00    -0.431 OA
BRANCH  18  19
ATOM     19  C   LIG A   1     -10.001   1.588 123.632  0.00  0.00    +0.306 C 
ATOM     20  C   LIG A   1      -9.050   2.173 122.666  0.00  0.00    +0.136 C 
ATOM     21  O   LIG A   1     -10.918   0.836 123.262  0.00  0.00    -0.251 OA
ENDBRANCH  18  19
ENDBRANCH   7  18
BRANCH   9  22
ATOM     22  O   LIG A   1      -8.558   3.173 128.141  0.00  0.00    -0.434 OA
BRANCH  22  23
ATOM     23  C   LIG A   1      -8.816   4.139 129.059  0.00  0.00    +0.306 C 
ATOM     24  C   LIG A   1      -9.552   3.563 130.252  0.00  0.00    +0.136 C 
ATOM     25  O   LIG A   1      -8.531   5.317 128.955  0.00  0.00    -0.251 OA
ENDBRANCH  22  23
ENDBRANCH   9  22
BRANCH  11  26
ATOM     26  O   LIG A   1      -6.671  -1.961 126.757  0.00  0.00    -0.457 OA
BRANCH  26  27
ATOM     27  C   LIG A   1      -5.908  -1.882 125.630  0.00  0.00    +0.310 C 
ATOM     28  O   LIG A   1      -5.146  -0.972 125.335  0.00  0.00    -0.251 OA
BRANCH  27  29
ATOM     29  C   LIG A   1      -6.194  -3.049 124.718  0.00  0.00    +0.094 C 
ATOM     30  C   LIG A   1      -7.626  -2.939 124.192  0.00  0.00    +0.019 C 
BRANCH  29  31
ATOM     31  C   LIG A   1      -5.157  -3.159 123.597  0.00  0.00    +0.011 C 
ATOM     32  C   LIG A   1      -4.364  -4.461 123.597  0.00  0.00    +0.004 C 
ENDBRANCH  29  31
ENDBRANCH  27  29
ENDBRANCH  26  27
ENDBRANCH  11  26
BRANCH  14  33
ATOM     33  C   LIG A   1      -5.568   3.278 130.053  0.00  0.00    +0.034 C 
BRANCH  33  34
ATOM     34  C   LIG A   1      -6.173   2.696 131.320  0.00  0.00    -0.023 C 
ATOM     35  C   LIG A   1      -6.519   3.374 132.435  0.00  0.00    -0.055 C 
ATOM     36  C   LIG A   1      -7.123   2.678 133.629  0.00  0.00    +0.043 C 
BRANCH  35  37
ATOM     37  C   LIG A   1      -6.342   4.806 132.594  0.00  0.00    -0.005 C 
ATOM     38  C   LIG A   1      -7.282   5.713 132.305  0.00  0.00    +0.008 C 
ENDBRANCH  35  37
ENDBRANCH  33  34
ENDBRANCH  14  33
TORSDOF 12
ENDMDL
MODEL 8
REMARK VINA RESULT:      -7.3      4.021      7.685
REMARK  Name = NuBBE_238
REMARK  19 active torsions:
REMARK  status: ('A' for Active; 'I' for Inactive)
REMARK    1  A    between atoms: C_1  and  C_2
REMARK    2  A    between atoms: C_7  and  O_9
REMARK    3  A    between atoms: C_12  and  O_14
REMARK    4  A    between atoms: O_14  and  C_15
REMARK    5  A    between atoms: C_15  and  C_16
REMARK    6  A    between atoms: C_19  and  O_21
REMARK    7  A    between atoms: O_21  and  C_22
REMARK    8  A    between atoms: C_22  and  C_23
REMARK    9  A    between atoms: C_26  and  O_28
REMARK   10  A    between atoms: O_28  and  C_29
REMARK   11  A    between atoms: C_29  and  C_30
REMARK   12  A    between atoms: C_30  and  C_31
REMARK   13  A    between atoms: C_30  and  C_32
REMARK   14  A    between atoms: C_32  and  C_33
REMARK   15  A    between atoms: C_38  and  C_39
REMARK   16  A    between atoms: C_38  and  C_40
REMARK   17  A    between atoms: C_40  and  C_41
REMARK   18  A    between atoms: C_42  and  C_43
REMARK   19  A    between atoms: C_42  and  C_45
REMARK                            x       y       z     vdW  Elec       q    Type
REMARK                         _______ _______ _______ _____ _____    ______ ____
ROOT
ATOM      1  C   LIG A   1      -7.618   0.998 132.658  0.00  0.00    +0.008 C 
ATOM      2  C   LIG A   1      -8.591   2.147 132.963  0.00  0.00    -0.005 C 
ATOM      3  C   LIG A   1      -9.701   2.173 131.914  0.00  0.00    +0.036 C 
ATOM      4  C   LIG A   1      -9.199   2.602 130.534  0.00  0.00    +0.131 C 
ATOM      5  C   LIG A   1      -8.154   3.770 130.545  0.00  0.00    +0.089 C 
ATOM      6  C   LIG A   1      -8.573   4.632 129.375  0.00  0.00    +0.012 C 
ATOM      7  C   LIG A   1      -7.955   4.058 128.134  0.00  0.00    +0.343 C 
ATOM      8  O   LIG A   1      -6.823   3.299 128.567  0.00  0.00    -0.297 OA
ATOM      9  C   LIG A   1      -6.710   3.453 129.997  0.00  0.00    +0.327 C 
ATOM     10  C   LIG A   1      -9.193   5.809 129.481  0.00  0.00    +0.023 C 
ATOM     11  C   LIG A   1      -9.548   6.462 130.771  0.00  0.00    +0.200 C 
ATOM     12  C   LIG A   1      -9.397   5.512 131.977  0.00  0.00    +0.054 C 
ATOM     13  C   LIG A   1      -8.167   4.551 131.907  0.00  0.00    +0.018 C 
ATOM     14  C   LIG A   1      -7.986   3.600 133.191  0.00  0.00    -0.022 C 
ATOM     15  C   LIG A   1      -8.759   4.178 134.416  0.00  0.00    +0.012 C 
ENDROOT
BRANCH   4  16
ATOM     16  O   LIG A   1      -8.711   1.463 129.829  0.00  0.00    -0.391 OA
ATOM     17  H   LIG A   1      -9.396   1.188 129.194  0.00  0.00    +0.210 HD
ENDBRANCH   4  16
BRANCH   7  18
ATOM     18  O   LIG A   1      -7.582   4.983 127.110  0.00  0.00    -0.431 OA
BRANCH  18  19
ATOM     19  C   LIG A   1      -7.740   4.577 125.835  0.00  0.00    +0.306 C 
ATOM     20  C   LIG A   1      -6.456   4.520 125.108  0.00  0.00    +0.136 C 
ATOM     21  O   LIG A   1      -8.809   4.269 125.282  0.00  0.00    -0.251 OA
ENDBRANCH  18  19
ENDBRANCH   7  18
BRANCH   9  22
ATOM     22  O   LIG A   1      -5.814   4.561 130.280  0.00  0.00    -0.434 OA
BRANCH  22  23
ATOM     23  C   LIG A   1      -4.476   4.370 130.149  0.00  0.00    +0.306 C 
ATOM     24  C   LIG A   1      -4.044   3.100 130.854  0.00  0.00    +0.136 C 
ATOM     25  O   LIG A   1      -3.702   5.110 129.573  0.00  0.00    -0.251 OA
ENDBRANCH  22  23
ENDBRANCH   9  22
BRANCH  11  26
ATOM     26  O   LIG A   1     -10.910   6.933 130.767  0.00  0.00    -0.457 OA
BRANCH  26  27
ATOM     27  C   LIG A   1     -11.735   6.431 129.805  0.00  0.00    +0.310 C 
ATOM     28  O   LIG A   1     -11.912   5.248 129.548  0.00  0.00    -0.251 OA
BRANCH  27  29
ATOM     29  C   LIG A   1     -12.359   7.551 129.010  0.00  0.00    +0.094 C 
ATOM     30  C   LIG A   1     -11.262   8.501 128.529  0.00  0.00    +0.019 C 
BRANCH  29  31
ATOM     31  C   LIG A   1     -13.227   7.019 127.866  0.00  0.00    +0.011 C 
ATOM     32  C   LIG A   1     -12.549   7.029 126.501  0.00  0.00    +0.004 C 
ENDBRANCH  29  31
ENDBRANCH  27  29
ENDBRANCH  26  27
ENDBRANCH  11  26
BRANCH  14  33
ATOM     33  C   LIG A   1      -6.467   3.510 133.608  0.00  0.00    +0.034 C 
BRANCH  33  34
ATOM     34  C   LIG A   1      -5.758   4.811 133.944  0.00  0.00    -0.023 C 
ATOM     35  C   LIG A   1      -5.412   5.248 135.174  0.00  0.00    -0.055 C 
ATOM     36  C   LIG A   1      -4.698   6.562 135.375  0.00  0.00    +0.043 C 
BRANCH  35  37
ATOM     37  C   LIG A   1      -5.694   4.518 136.396  0.00  0.00    -0.005 C 
ATOM     38  C   LIG A   1      -5.395   4.968 137.621  0.00  0.00    +0.008 C 
ENDBRANCH  35  37
ENDBRANCH  33  34
ENDBRANCH  14  33
TORSDOF 12
ENDMDL
MODEL 9
REMARK VINA RESULT:      -7.2      3.023      6.519
REMARK  Name = NuBBE_238
REMARK  19 active torsions:
REMARK  status: ('A' for Active; 'I' for Inactive)
REMARK    1  A    between atoms: C_1  and  C_2
REMARK    2  A    between atoms: C_7  and  O_9
REMARK    3  A    between atoms: C_12  and  O_14
REMARK    4  A    between atoms: O_14  and  C_15
REMARK    5  A    between atoms: C_15  and  C_16
REMARK    6  A    between atoms: C_19  and  O_21
REMARK    7  A    between atoms: O_21  and  C_22
REMARK    8  A    between atoms: C_22  and  C_23
REMARK    9  A    between atoms: C_26  and  O_28
REMARK   10  A    between atoms: O_28  and  C_29
REMARK   11  A    between atoms: C_29  and  C_30
REMARK   12  A    between atoms: C_30  and  C_31
REMARK   13  A    between atoms: C_30  and  C_32
REMARK   14  A    between atoms: C_32  and  C_33
REMARK   15  A    between atoms: C_38  and  C_39
REMARK   16  A    between atoms: C_38  and  C_40
REMARK   17  A    between atoms: C_40  and  C_41
REMARK   18  A    between atoms: C_42  and  C_43
REMARK   19  A    between atoms: C_42  and  C_45
REMARK                            x       y       z     vdW  Elec       q    Type
REMARK                         _______ _______ _______ _____ _____    ______ ____
ROOT
ATOM      1  C   LIG A   1      -9.990   5.741 132.503  0.00  0.00    +0.008 C 
ATOM      2  C   LIG A   1      -8.577   6.169 132.077  0.00  0.00    -0.005 C 
ATOM      3  C   LIG A   1      -8.585   6.582 130.607  0.00  0.00    +0.036 C 
ATOM      4  C   LIG A   1      -8.806   5.399 129.663  0.00  0.00    +0.131 C 
ATOM      5  C   LIG A   1      -8.054   4.084 130.066  0.00  0.00    +0.089 C 
ATOM      6  C   LIG A   1      -7.550   3.544 128.745  0.00  0.00    +0.012 C 
ATOM      7  C   LIG A   1      -8.659   2.749 128.119  0.00  0.00    +0.343 C 
ATOM      8  O   LIG A   1      -9.520   2.354 129.190  0.00  0.00    -0.297 OA
ATOM      9  C   LIG A   1      -8.936   2.827 130.423  0.00  0.00    +0.327 C 
ATOM     10  C   LIG A   1      -6.281   3.593 128.338  0.00  0.00    +0.023 C 
ATOM     11  C   LIG A   1      -5.162   4.168 129.134  0.00  0.00    +0.200 C 
ATOM     12  C   LIG A   1      -5.655   4.973 130.353  0.00  0.00    +0.054 C 
ATOM     13  C   LIG A   1      -6.893   4.364 131.085  0.00  0.00    +0.018 C 
ATOM     14  C   LIG A   1      -7.370   5.181 132.387  0.00  0.00    -0.022 C 
ATOM     15  C   LIG A   1      -6.220   6.092 132.916  0.00  0.00    +0.012 C 
ENDROOT
BRANCH   4  16
ATOM     16  O   LIG A   1     -10.204   5.177 129.494  0.00  0.00    -0.391 OA
ATOM     17  H   LIG A   1     -10.679   5.820 130.050  0.00  0.00    +0.210 HD
ENDBRANCH   4  16
BRANCH   7  18
ATOM     18  O   LIG A   1      -8.277   1.617 127.334  0.00  0.00    -0.431 OA
BRANCH  18  19
ATOM     19  C   LIG A   1      -8.774   1.547 126.083  0.00  0.00    +0.306 C 
ATOM     20  C   LIG A   1      -8.907   0.152 125.617  0.00  0.00    +0.136 C 
ATOM     21  O   LIG A   1      -9.104   2.504 125.363  0.00  0.00    -0.251 OA
ENDBRANCH  18  19
ENDBRANCH   7  18
BRANCH   9  22
ATOM     22  O   LIG A   1      -8.104   1.775 130.981  0.00  0.00    -0.434 OA
BRANCH  22  23
ATOM     23  C   LIG A   1      -8.649   0.548 131.181  0.00  0.00    +0.306 C 
ATOM     24  C   LIG A   1      -7.908  -0.505 130.382  0.00  0.00    +0.136 C 
ATOM     25  O   LIG A   1      -9.613   0.301 131.880  0.00  0.00    -0.251 OA
ENDBRANCH  22  23
ENDBRANCH   9  22
BRANCH  11  26
ATOM     26  O   LIG A   1      -4.349   5.053 128.338  0.00  0.00    -0.457 OA
BRANCH  26  27
ATOM     27  C   LIG A   1      -3.000   4.855 128.374  0.00  0.00    +0.310 C 
ATOM     28  O   LIG A   1      -2.414   3.814 128.112  0.00  0.00    -0.251 OA
BRANCH  27  29
ATOM     29  C   LIG A   1      -2.300   6.093 128.878  0.00  0.00    +0.094 C 
ATOM     30  C   LIG A   1      -3.069   7.331 128.417  0.00  0.00    +0.019 C 
BRANCH  29  31
ATOM     31  C   LIG A   1      -2.098   6.050 130.396  0.00  0.00    +0.011 C 
ATOM     32  C   LIG A   1      -2.808   7.163 131.159  0.00  0.00    +0.004 C 
ENDBRANCH  29  31
ENDBRANCH  27  29
ENDBRANCH  26  27
ENDBRANCH  11  26
BRANCH  14  33
ATOM     33  C   LIG A   1      -7.748   4.192 133.557  0.00  0.00    +0.034 C 
BRANCH  33  34
ATOM     34  C   LIG A   1      -6.691   3.930 134.616  0.00  0.00    -0.023 C 
ATOM     35  C   LIG A   1      -5.873   2.858 134.693  0.00  0.00    -0.055 C 
ATOM     36  C   LIG A   1      -4.852   2.719 135.796  0.00  0.00    +0.043 C 
BRANCH  35  37
ATOM     37  C   LIG A   1      -5.900   1.756 133.749  0.00  0.00    -0.005 C 
ATOM     38  C   LIG A   1      -5.046   1.626 132.727  0.00  0.00    +0.008 C 
ENDBRANCH  35  37
ENDBRANCH  33  34
ENDBRANCH  14  33
TORSDOF 12
ENDMDL
