MODEL 1
REMARK VINA RESULT:      -7.6      0.000      0.000
REMARK  Name = NuBBE_1305
REMARK  5 active torsions:
REMARK  status: ('A' for Active; 'I' for Inactive)
REMARK    1  A    between atoms: C_4  and  C_5
REMARK    2  A    between atoms: C_18  and  O_19
REMARK    3  A    between atoms: O_19  and  C_20
REMARK    4  A    between atoms: C_22  and  O_23
REMARK    5  A    between atoms: O_23  and  C_24
REMARK                            x       y       z     vdW  Elec       q    Type
REMARK                         _______ _______ _______ _____ _____    ______ ____
ROOT
ATOM      1  O   LIG A   1      -7.747   5.096 134.496  0.00  0.00    -0.287 OA
ATOM      2  C   LIG A   1      -7.730   5.615 133.386  0.00  0.00    +0.197 A 
ATOM      3  C   LIG A   1      -9.009   5.801 132.679  0.00  0.00    +0.098 A 
ATOM      4  C   LIG A   1      -9.038   6.406 131.484  0.00  0.00    +0.139 A 
ATOM      5  O   LIG A   1      -7.904   6.861 130.835  0.00  0.00    -0.454 OA
ATOM      6  C   LIG A   1      -6.509   6.082 132.689  0.00  0.00    +0.106 A 
ATOM      7  C   LIG A   1      -6.680   6.683 131.437  0.00  0.00    +0.146 A 
ATOM      8  C   LIG A   1      -5.582   7.150 130.710  0.00  0.00    +0.092 A 
ATOM      9  C   LIG A   1      -4.300   7.018 131.231  0.00  0.00    +0.127 A 
ATOM     10  C   LIG A   1      -4.125   6.416 132.481  0.00  0.00    +0.092 A 
ATOM     11  C   LIG A   1      -5.216   5.944 133.225  0.00  0.00    +0.138 A 
ENDROOT
BRANCH   4  12
ATOM     12  C   LIG A   1     -10.304   6.630 130.743  0.00  0.00    +0.021 A 
ATOM     13  C   LIG A   1     -10.310   6.650 129.336  0.00  0.00    +0.061 A 
ATOM     14  C   LIG A   1     -11.509   6.863 128.681  0.00  0.00    +0.167 A 
ATOM     15  O   LIG A   1     -11.684   6.904 127.332  0.00  0.00    -0.453 OA
ATOM     16  C   LIG A   1     -13.106   7.145 127.249  0.00  0.00    +0.466 C 
ATOM     17  O   LIG A   1     -13.746   7.247 128.538  0.00  0.00    -0.453 OA
ATOM     18  C   LIG A   1     -12.684   7.060 129.365  0.00  0.00    +0.166 A 
ATOM     19  C   LIG A   1     -12.727   7.061 130.739  0.00  0.00    +0.050 A 
ATOM     20  C   LIG A   1     -11.526   6.853 131.427  0.00  0.00    +0.015 A 
ENDBRANCH   4  12
BRANCH   9  21
ATOM     21  O   LIG A   1      -3.142   7.429 130.632  0.00  0.00    -0.495 OA
ATOM     22  C   LIG A   1      -2.136   6.442 130.436  0.00  0.00    +0.277 C 
ENDBRANCH   9  21
BRANCH  11  23
ATOM     23  O   LIG A   1      -5.088   5.352 134.451  0.00  0.00    -0.494 OA
ATOM     24  C   LIG A   1      -3.856   4.716 134.766  0.00  0.00    +0.277 C 
ENDBRANCH  11  23
TORSDOF 3
ENDMDL
MODEL 2
REMARK VINA RESULT:      -7.6      8.880     10.420
REMARK  Name = NuBBE_1305
REMARK  5 active torsions:
REMARK  status: ('A' for Active; 'I' for Inactive)
REMARK    1  A    between atoms: C_4  and  C_5
REMARK    2  A    between atoms: C_18  and  O_19
REMARK    3  A    between atoms: O_19  and  C_20
REMARK    4  A    between atoms: C_22  and  O_23
REMARK    5  A    between atoms: O_23  and  C_24
REMARK                            x       y       z     vdW  Elec       q    Type
REMARK                         _______ _______ _______ _____ _____    ______ ____
ROOT
ATOM      1  O   LIG A   1      -6.613   2.653 127.087  0.00  0.00    -0.287 OA
ATOM      2  C   LIG A   1      -6.851   2.285 125.943  0.00  0.00    +0.197 A 
ATOM      3  C   LIG A   1      -6.418   3.144 124.826  0.00  0.00    +0.098 A 
ATOM      4  C   LIG A   1      -6.617   2.756 123.560  0.00  0.00    +0.139 A 
ATOM      5  O   LIG A   1      -7.247   1.572 123.218  0.00  0.00    -0.454 OA
ATOM      6  C   LIG A   1      -7.543   1.026 125.585  0.00  0.00    +0.106 A 
ATOM      7  C   LIG A   1      -7.700   0.749 124.222  0.00  0.00    +0.146 A 
ATOM      8  C   LIG A   1      -8.343  -0.416 123.796  0.00  0.00    +0.092 A 
ATOM      9  C   LIG A   1      -8.837  -1.316 124.734  0.00  0.00    +0.127 A 
ATOM     10  C   LIG A   1      -8.684  -1.042 126.097  0.00  0.00    +0.092 A 
ATOM     11  C   LIG A   1      -8.039   0.121 126.541  0.00  0.00    +0.138 A 
ENDROOT
BRANCH   4  12
ATOM     12  C   LIG A   1      -6.184   3.580 122.404  0.00  0.00    +0.021 A 
ATOM     13  C   LIG A   1      -6.935   3.585 121.213  0.00  0.00    +0.061 A 
ATOM     14  C   LIG A   1      -6.498   4.364 120.158  0.00  0.00    +0.167 A 
ATOM     15  O   LIG A   1      -7.110   4.482 118.948  0.00  0.00    -0.453 OA
ATOM     16  C   LIG A   1      -6.223   5.408 118.284  0.00  0.00    +0.466 C 
ATOM     17  O   LIG A   1      -5.105   5.816 119.099  0.00  0.00    -0.453 OA
ATOM     18  C   LIG A   1      -5.357   5.123 120.240  0.00  0.00    +0.166 A 
ATOM     19  C   LIG A   1      -4.584   5.142 121.377  0.00  0.00    +0.050 A 
ATOM     20  C   LIG A   1      -5.000   4.358 122.459  0.00  0.00    +0.015 A 
ENDBRANCH   4  12
BRANCH   9  21
ATOM     21  O   LIG A   1      -9.483  -2.489 124.461  0.00  0.00    -0.495 OA
ATOM     22  C   LIG A   1      -8.709  -3.680 124.531  0.00  0.00    +0.277 C 
ENDBRANCH   9  21
BRANCH  11  23
ATOM     23  O   LIG A   1      -7.867   0.425 127.863  0.00  0.00    -0.494 OA
ATOM     24  C   LIG A   1      -7.550  -0.631 128.761  0.00  0.00    +0.277 C 
ENDBRANCH  11  23
TORSDOF 3
ENDMDL
MODEL 3
REMARK VINA RESULT:      -7.5      7.473     10.305
REMARK  Name = NuBBE_1305
REMARK  5 active torsions:
REMARK  status: ('A' for Active; 'I' for Inactive)
REMARK    1  A    between atoms: C_4  and  C_5
REMARK    2  A    between atoms: C_18  and  O_19
REMARK    3  A    between atoms: O_19  and  C_20
REMARK    4  A    between atoms: C_22  and  O_23
REMARK    5  A    between atoms: O_23  and  C_24
REMARK                            x       y       z     vdW  Elec       q    Type
REMARK                         _______ _______ _______ _____ _____    ______ ____
ROOT
ATOM      1  O   LIG A   1      -9.281   2.466 124.825  0.00  0.00    -0.287 OA
ATOM      2  C   LIG A   1      -8.163   2.012 125.040  0.00  0.00    +0.197 A 
ATOM      3  C   LIG A   1      -7.148   2.899 125.634  0.00  0.00    +0.098 A 
ATOM      4  C   LIG A   1      -5.929   2.428 125.927  0.00  0.00    +0.139 A 
ATOM      5  O   LIG A   1      -5.537   1.125 125.676  0.00  0.00    -0.454 OA
ATOM      6  C   LIG A   1      -7.745   0.621 124.750  0.00  0.00    +0.106 A 
ATOM      7  C   LIG A   1      -6.436   0.264 125.092  0.00  0.00    +0.146 A 
ATOM      8  C   LIG A   1      -5.959  -1.027 124.852  0.00  0.00    +0.092 A 
ATOM      9  C   LIG A   1      -6.790  -1.975 124.266  0.00  0.00    +0.127 A 
ATOM     10  C   LIG A   1      -8.099  -1.621 123.921  0.00  0.00    +0.092 A 
ATOM     11  C   LIG A   1      -8.594  -0.331 124.157  0.00  0.00    +0.138 A 
ENDROOT
BRANCH   4  12
ATOM     12  C   LIG A   1      -4.880   3.280 126.541  0.00  0.00    +0.021 A 
ATOM     13  C   LIG A   1      -5.151   4.623 126.861  0.00  0.00    +0.061 A 
ATOM     14  C   LIG A   1      -4.147   5.384 127.429  0.00  0.00    +0.167 A 
ATOM     15  O   LIG A   1      -4.249   6.690 127.800  0.00  0.00    -0.453 OA
ATOM     16  C   LIG A   1      -2.924   6.930 128.321  0.00  0.00    +0.466 C 
ATOM     17  O   LIG A   1      -2.061   5.777 128.247  0.00  0.00    -0.453 OA
ATOM     18  C   LIG A   1      -2.900   4.868 127.683  0.00  0.00    +0.166 A 
ATOM     19  C   LIG A   1      -2.583   3.565 127.378  0.00  0.00    +0.050 A 
ATOM     20  C   LIG A   1      -3.580   2.774 126.796  0.00  0.00    +0.015 A 
ENDBRANCH   4  12
BRANCH   9  21
ATOM     21  O   LIG A   1      -6.458  -3.269 123.976  0.00  0.00    -0.495 OA
ATOM     22  C   LIG A   1      -5.071  -3.582 123.942  0.00  0.00    +0.277 C 
ENDBRANCH   9  21
BRANCH  11  23
ATOM     23  O   LIG A   1      -9.867   0.054 123.838  0.00  0.00    -0.494 OA
ATOM     24  C   LIG A   1     -10.221   0.134 122.463  0.00  0.00    +0.277 C 
ENDBRANCH  11  23
TORSDOF 3
ENDMDL
MODEL 4
REMARK VINA RESULT:      -7.3      7.643      8.534
REMARK  Name = NuBBE_1305
REMARK  5 active torsions:
REMARK  status: ('A' for Active; 'I' for Inactive)
REMARK    1  A    between atoms: C_4  and  C_5
REMARK    2  A    between atoms: C_18  and  O_19
REMARK    3  A    between atoms: O_19  and  C_20
REMARK    4  A    between atoms: C_22  and  O_23
REMARK    5  A    between atoms: O_23  and  C_24
REMARK                            x       y       z     vdW  Elec       q    Type
REMARK                         _______ _______ _______ _____ _____    ______ ____
ROOT
ATOM      1  O   LIG A   1      -7.193   0.228 126.379  0.00  0.00    -0.287 OA
ATOM      2  C   LIG A   1      -6.638   1.196 125.873  0.00  0.00    +0.197 A 
ATOM      3  C   LIG A   1      -7.068   1.629 124.531  0.00  0.00    +0.098 A 
ATOM      4  C   LIG A   1      -6.519   2.709 123.962  0.00  0.00    +0.139 A 
ATOM      5  O   LIG A   1      -5.521   3.459 124.561  0.00  0.00    -0.454 OA
ATOM      6  C   LIG A   1      -5.557   1.981 126.511  0.00  0.00    +0.106 A 
ATOM      7  C   LIG A   1      -5.060   3.079 125.799  0.00  0.00    +0.146 A 
ATOM      8  C   LIG A   1      -4.038   3.873 126.327  0.00  0.00    +0.092 A 
ATOM      9  C   LIG A   1      -3.503   3.574 127.575  0.00  0.00    +0.127 A 
ATOM     10  C   LIG A   1      -3.996   2.477 128.288  0.00  0.00    +0.092 A 
ATOM     11  C   LIG A   1      -5.022   1.671 127.775  0.00  0.00    +0.138 A 
ENDROOT
BRANCH   4  12
ATOM     12  C   LIG A   1      -6.931   3.191 122.621  0.00  0.00    +0.021 A 
ATOM     13  C   LIG A   1      -5.990   3.782 121.757  0.00  0.00    +0.061 A 
ATOM     14  C   LIG A   1      -6.414   4.220 120.516  0.00  0.00    +0.167 A 
ATOM     15  O   LIG A   1      -5.632   4.804 119.567  0.00  0.00    -0.453 OA
ATOM     16  C   LIG A   1      -6.598   5.030 118.518  0.00  0.00    +0.466 C 
ATOM     17  O   LIG A   1      -7.928   4.586 118.859  0.00  0.00    -0.453 OA
ATOM     18  C   LIG A   1      -7.720   4.099 120.111  0.00  0.00    +0.166 A 
ATOM     19  C   LIG A   1      -8.678   3.540 120.923  0.00  0.00    +0.050 A 
ATOM     20  C   LIG A   1      -8.278   3.093 122.187  0.00  0.00    +0.015 A 
ENDBRANCH   4  12
BRANCH   9  21
ATOM     21  O   LIG A   1      -2.507   4.262 128.209  0.00  0.00    -0.495 OA
ATOM     22  C   LIG A   1      -2.552   5.681 128.124  0.00  0.00    +0.277 C 
ENDBRANCH   9  21
BRANCH  11  23
ATOM     23  O   LIG A   1      -5.533   0.592 128.442  0.00  0.00    -0.494 OA
ATOM     24  C   LIG A   1      -4.798   0.069 129.540  0.00  0.00    +0.277 C 
ENDBRANCH  11  23
TORSDOF 3
ENDMDL
MODEL 5
REMARK VINA RESULT:      -7.2      1.707      2.105
REMARK  Name = NuBBE_1305
REMARK  5 active torsions:
REMARK  status: ('A' for Active; 'I' for Inactive)
REMARK    1  A    between atoms: C_4  and  C_5
REMARK    2  A    between atoms: C_18  and  O_19
REMARK    3  A    between atoms: O_19  and  C_20
REMARK    4  A    between atoms: C_22  and  O_23
REMARK    5  A    between atoms: O_23  and  C_24
REMARK                            x       y       z     vdW  Elec       q    Type
REMARK                         _______ _______ _______ _____ _____    ______ ____
ROOT
ATOM      1  O   LIG A   1      -5.466   5.568 134.151  0.00  0.00    -0.287 OA
ATOM      2  C   LIG A   1      -5.811   5.717 132.984  0.00  0.00    +0.197 A 
ATOM      3  C   LIG A   1      -7.224   6.027 132.705  0.00  0.00    +0.098 A 
ATOM      4  C   LIG A   1      -7.632   6.243 131.448  0.00  0.00    +0.139 A 
ATOM      5  O   LIG A   1      -6.790   6.167 130.352  0.00  0.00    -0.454 OA
ATOM      6  C   LIG A   1      -4.908   5.615 131.815  0.00  0.00    +0.106 A 
ATOM      7  C   LIG A   1      -5.468   5.849 130.554  0.00  0.00    +0.146 A 
ATOM      8  C   LIG A   1      -4.687   5.771 129.397  0.00  0.00    +0.092 A 
ATOM      9  C   LIG A   1      -3.337   5.457 129.493  0.00  0.00    +0.127 A 
ATOM     10  C   LIG A   1      -2.774   5.221 130.752  0.00  0.00    +0.092 A 
ATOM     11  C   LIG A   1      -3.541   5.297 131.922  0.00  0.00    +0.138 A 
ENDROOT
BRANCH   4  12
ATOM     12  C   LIG A   1      -9.041   6.573 131.120  0.00  0.00    +0.021 A 
ATOM     13  C   LIG A   1      -9.344   7.362 129.994  0.00  0.00    +0.061 A 
ATOM     14  C   LIG A   1     -10.669   7.649 129.724  0.00  0.00    +0.167 A 
ATOM     15  O   LIG A   1     -11.126   8.389 128.677  0.00  0.00    -0.453 OA
ATOM     16  C   LIG A   1     -12.551   8.338 128.909  0.00  0.00    +0.466 C 
ATOM     17  O   LIG A   1     -12.913   7.582 130.082  0.00  0.00    -0.453 OA
ATOM     18  C   LIG A   1     -11.688   7.193 130.523  0.00  0.00    +0.166 A 
ATOM     19  C   LIG A   1     -11.442   6.430 131.640  0.00  0.00    +0.050 A 
ATOM     20  C   LIG A   1     -10.109   6.128 131.940  0.00  0.00    +0.015 A 
ENDBRANCH   4  12
BRANCH   9  21
ATOM     21  O   LIG A   1      -2.459   5.349 128.450  0.00  0.00    -0.495 OA
ATOM     22  C   LIG A   1      -2.594   4.206 127.615  0.00  0.00    +0.277 C 
ENDBRANCH   9  21
BRANCH  11  23
ATOM     23  O   LIG A   1      -3.029   5.076 133.171  0.00  0.00    -0.494 OA
ATOM     24  C   LIG A   1      -1.868   5.797 133.560  0.00  0.00    +0.277 C 
ENDBRANCH  11  23
TORSDOF 3
ENDMDL
MODEL 6
REMARK VINA RESULT:      -7.1      2.223      3.526
REMARK  Name = NuBBE_1305
REMARK  5 active torsions:
REMARK  status: ('A' for Active; 'I' for Inactive)
REMARK    1  A    between atoms: C_4  and  C_5
REMARK    2  A    between atoms: C_18  and  O_19
REMARK    3  A    between atoms: O_19  and  C_20
REMARK    4  A    between atoms: C_22  and  O_23
REMARK    5  A    between atoms: O_23  and  C_24
REMARK                            x       y       z     vdW  Elec       q    Type
REMARK                         _______ _______ _______ _____ _____    ______ ____
ROOT
ATOM      1  O   LIG A   1      -4.974   6.545 131.801  0.00  0.00    -0.287 OA
ATOM      2  C   LIG A   1      -6.029   5.941 131.956  0.00  0.00    +0.197 A 
ATOM      3  C   LIG A   1      -7.274   6.571 131.482  0.00  0.00    +0.098 A 
ATOM      4  C   LIG A   1      -8.441   5.924 131.591  0.00  0.00    +0.139 A 
ATOM      5  O   LIG A   1      -8.565   4.670 132.162  0.00  0.00    -0.454 OA
ATOM      6  C   LIG A   1      -6.156   4.606 132.585  0.00  0.00    +0.106 A 
ATOM      7  C   LIG A   1      -7.438   4.050 132.649  0.00  0.00    +0.146 A 
ATOM      8  C   LIG A   1      -7.648   2.796 133.228  0.00  0.00    +0.092 A 
ATOM      9  C   LIG A   1      -6.573   2.086 133.751  0.00  0.00    +0.127 A 
ATOM     10  C   LIG A   1      -5.290   2.639 133.691  0.00  0.00    +0.092 A 
ATOM     11  C   LIG A   1      -5.061   3.895 133.111  0.00  0.00    +0.138 A 
ENDROOT
BRANCH   4  12
ATOM     12  C   LIG A   1      -9.717   6.512 131.114  0.00  0.00    +0.021 A 
ATOM     13  C   LIG A   1      -9.748   7.289 129.940  0.00  0.00    +0.061 A 
ATOM     14  C   LIG A   1     -10.956   7.821 129.530  0.00  0.00    +0.167 A 
ATOM     15  O   LIG A   1     -11.155   8.584 128.420  0.00  0.00    -0.453 OA
ATOM     16  C   LIG A   1     -12.575   8.830 128.509  0.00  0.00    +0.466 C 
ATOM     17  O   LIG A   1     -13.191   8.221 129.662  0.00  0.00    -0.453 OA
ATOM     18  C   LIG A   1     -12.116   7.617 130.235  0.00  0.00    +0.166 A 
ATOM     19  C   LIG A   1     -12.135   6.876 131.393  0.00  0.00    +0.050 A 
ATOM     20  C   LIG A   1     -10.925   6.330 131.835  0.00  0.00    +0.015 A 
ENDBRANCH   4  12
BRANCH   9  21
ATOM     21  O   LIG A   1      -6.632   0.855 134.342  0.00  0.00    -0.495 OA
ATOM     22  C   LIG A   1      -5.497   0.451 135.097  0.00  0.00    +0.277 C 
ENDBRANCH   9  21
BRANCH  11  23
ATOM     23  O   LIG A   1      -3.823   4.470 133.030  0.00  0.00    -0.494 OA
ATOM     24  C   LIG A   1      -2.682   3.633 133.172  0.00  0.00    +0.277 C 
ENDBRANCH  11  23
TORSDOF 3
ENDMDL
MODEL 7
REMARK VINA RESULT:      -7.1      7.541     10.245
REMARK  Name = NuBBE_1305
REMARK  5 active torsions:
REMARK  status: ('A' for Active; 'I' for Inactive)
REMARK    1  A    between atoms: C_4  and  C_5
REMARK    2  A    between atoms: C_18  and  O_19
REMARK    3  A    between atoms: O_19  and  C_20
REMARK    4  A    between atoms: C_22  and  O_23
REMARK    5  A    between atoms: O_23  and  C_24
REMARK                            x       y       z     vdW  Elec       q    Type
REMARK                         _______ _______ _______ _____ _____    ______ ____
ROOT
ATOM      1  O   LIG A   1      -8.018   0.773 123.417  0.00  0.00    -0.287 OA
ATOM      2  C   LIG A   1      -7.490   0.682 124.519  0.00  0.00    +0.197 A 
ATOM      3  C   LIG A   1      -6.498   1.700 124.907  0.00  0.00    +0.098 A 
ATOM      4  C   LIG A   1      -5.933   1.664 126.121  0.00  0.00    +0.139 A 
ATOM      5  O   LIG A   1      -6.210   0.684 127.059  0.00  0.00    -0.454 OA
ATOM      6  C   LIG A   1      -7.778  -0.380 125.511  0.00  0.00    +0.106 A 
ATOM      7  C   LIG A   1      -7.105  -0.308 126.735  0.00  0.00    +0.146 A 
ATOM      8  C   LIG A   1      -7.316  -1.270 127.727  0.00  0.00    +0.092 A 
ATOM      9  C   LIG A   1      -8.203  -2.316 127.499  0.00  0.00    +0.127 A 
ATOM     10  C   LIG A   1      -8.876  -2.392 126.275  0.00  0.00    +0.092 A 
ATOM     11  C   LIG A   1      -8.678  -1.434 125.271  0.00  0.00    +0.138 A 
ENDROOT
BRANCH   4  12
ATOM     12  C   LIG A   1      -4.941   2.675 126.561  0.00  0.00    +0.021 A 
ATOM     13  C   LIG A   1      -5.359   3.966 126.937  0.00  0.00    +0.061 A 
ATOM     14  C   LIG A   1      -4.404   4.881 127.339  0.00  0.00    +0.167 A 
ATOM     15  O   LIG A   1      -4.644   6.160 127.737  0.00  0.00    -0.453 OA
ATOM     16  C   LIG A   1      -3.304   6.609 128.033  0.00  0.00    +0.466 C 
ATOM     17  O   LIG A   1      -2.298   5.602 127.803  0.00  0.00    -0.453 OA
ATOM     18  C   LIG A   1      -3.068   4.567 127.376  0.00  0.00    +0.166 A 
ATOM     19  C   LIG A   1      -2.609   3.324 127.008  0.00  0.00    +0.050 A 
ATOM     20  C   LIG A   1      -3.554   2.379 126.591  0.00  0.00    +0.015 A 
ENDBRANCH   4  12
BRANCH   9  21
ATOM     21  O   LIG A   1      -8.505  -3.321 128.376  0.00  0.00    -0.495 OA
ATOM     22  C   LIG A   1      -7.934  -3.231 129.675  0.00  0.00    +0.277 C 
ENDBRANCH   9  21
BRANCH  11  23
ATOM     23  O   LIG A   1      -9.318  -1.471 124.063  0.00  0.00    -0.494 OA
ATOM     24  C   LIG A   1      -9.209  -2.652 123.279  0.00  0.00    +0.277 C 
ENDBRANCH  11  23
TORSDOF 3
ENDMDL
MODEL 8
REMARK VINA RESULT:      -7.0      8.395     10.909
REMARK  Name = NuBBE_1305
REMARK  5 active torsions:
REMARK  status: ('A' for Active; 'I' for Inactive)
REMARK    1  A    between atoms: C_4  and  C_5
REMARK    2  A    between atoms: C_18  and  O_19
REMARK    3  A    between atoms: O_19  and  C_20
REMARK    4  A    between atoms: C_22  and  O_23
REMARK    5  A    between atoms: O_23  and  C_24
REMARK                            x       y       z     vdW  Elec       q    Type
REMARK                         _______ _______ _______ _____ _____    ______ ____
ROOT
ATOM      1  O   LIG A   1      -9.437  -2.516 124.817  0.00  0.00    -0.287 OA
ATOM      2  C   LIG A   1      -9.011  -1.768 125.689  0.00  0.00    +0.197 A 
ATOM      3  C   LIG A   1      -8.533  -2.363 126.950  0.00  0.00    +0.098 A 
ATOM      4  C   LIG A   1      -8.017  -1.585 127.910  0.00  0.00    +0.139 A 
ATOM      5  O   LIG A   1      -7.922  -0.209 127.804  0.00  0.00    -0.454 OA
ATOM      6  C   LIG A   1      -8.931  -0.294 125.576  0.00  0.00    +0.106 A 
ATOM      7  C   LIG A   1      -8.384   0.400 126.661  0.00  0.00    +0.146 A 
ATOM      8  C   LIG A   1      -8.272   1.793 126.638  0.00  0.00    +0.092 A 
ATOM      9  C   LIG A   1      -8.710   2.505 125.527  0.00  0.00    +0.127 A 
ATOM     10  C   LIG A   1      -9.259   1.814 124.441  0.00  0.00    +0.092 A 
ATOM     11  C   LIG A   1      -9.375   0.417 124.447  0.00  0.00    +0.138 A 
ENDROOT
BRANCH   4  12
ATOM     12  C   LIG A   1      -7.509  -2.141 129.188  0.00  0.00    +0.021 A 
ATOM     13  C   LIG A   1      -6.783  -3.347 129.202  0.00  0.00    +0.061 A 
ATOM     14  C   LIG A   1      -6.329  -3.833 130.414  0.00  0.00    +0.167 A 
ATOM     15  O   LIG A   1      -5.612  -4.976 130.596  0.00  0.00    -0.453 OA
ATOM     16  C   LIG A   1      -5.426  -4.956 132.028  0.00  0.00    +0.466 C 
ATOM     17  O   LIG A   1      -6.035  -3.817 132.669  0.00  0.00    -0.453 OA
ATOM     18  C   LIG A   1      -6.569  -3.177 131.596  0.00  0.00    +0.166 A 
ATOM     19  C   LIG A   1      -7.283  -2.002 131.635  0.00  0.00    +0.050 A 
ATOM     20  C   LIG A   1      -7.760  -1.490 130.423  0.00  0.00    +0.015 A 
ENDBRANCH   4  12
BRANCH   9  21
ATOM     21  O   LIG A   1      -8.661   3.862 125.369  0.00  0.00    -0.495 OA
ATOM     22  C   LIG A   1      -7.374   4.467 125.411  0.00  0.00    +0.277 C 
ENDBRANCH   9  21
BRANCH  11  23
ATOM     23  O   LIG A   1      -9.904  -0.295 123.405  0.00  0.00    -0.494 OA
ATOM     24  C   LIG A   1     -10.234   0.402 122.211  0.00  0.00    +0.277 C 
ENDBRANCH  11  23
TORSDOF 3
ENDMDL
MODEL 9
REMARK VINA RESULT:      -7.0      5.363      9.216
REMARK  Name = NuBBE_1305
REMARK  5 active torsions:
REMARK  status: ('A' for Active; 'I' for Inactive)
REMARK    1  A    between atoms: C_4  and  C_5
REMARK    2  A    between atoms: C_18  and  O_19
REMARK    3  A    between atoms: O_19  and  C_20
REMARK    4  A    between atoms: C_22  and  O_23
REMARK    5  A    between atoms: O_23  and  C_24
REMARK                            x       y       z     vdW  Elec       q    Type
REMARK                         _______ _______ _______ _____ _____    ______ ____
ROOT
ATOM      1  O   LIG A   1      -8.344   3.151 127.579  0.00  0.00    -0.287 OA
ATOM      2  C   LIG A   1      -7.312   3.596 127.091  0.00  0.00    +0.197 A 
ATOM      3  C   LIG A   1      -6.282   4.134 127.997  0.00  0.00    +0.098 A 
ATOM      4  C   LIG A   1      -5.121   4.586 127.507  0.00  0.00    +0.139 A 
ATOM      5  O   LIG A   1      -4.823   4.606 126.156  0.00  0.00    -0.454 OA
ATOM      6  C   LIG A   1      -7.008   3.631 125.642  0.00  0.00    +0.106 A 
ATOM      7  C   LIG A   1      -5.762   4.145 125.264  0.00  0.00    +0.146 A 
ATOM      8  C   LIG A   1      -5.395   4.217 123.918  0.00  0.00    +0.092 A 
ATOM      9  C   LIG A   1      -6.274   3.775 122.936  0.00  0.00    +0.127 A 
ATOM     10  C   LIG A   1      -7.521   3.263 123.309  0.00  0.00    +0.092 A 
ATOM     11  C   LIG A   1      -7.904   3.181 124.655  0.00  0.00    +0.138 A 
ENDROOT
BRANCH   4  12
ATOM     12  C   LIG A   1      -4.050   5.123 128.382  0.00  0.00    +0.021 A 
ATOM     13  C   LIG A   1      -3.874   4.616 129.684  0.00  0.00    +0.061 A 
ATOM     14  C   LIG A   1      -2.866   5.143 130.469  0.00  0.00    +0.167 A 
ATOM     15  O   LIG A   1      -2.562   4.761 131.740  0.00  0.00    -0.453 OA
ATOM     16  C   LIG A   1      -1.449   5.634 132.029  0.00  0.00    +0.466 C 
ATOM     17  O   LIG A   1      -1.116   6.517 130.939  0.00  0.00    -0.453 OA
ATOM     18  C   LIG A   1      -2.041   6.144 130.017  0.00  0.00    +0.166 A 
ATOM     19  C   LIG A   1      -2.181   6.679 128.758  0.00  0.00    +0.050 A 
ATOM     20  C   LIG A   1      -3.197   6.168 127.943  0.00  0.00    +0.015 A 
ENDBRANCH   4  12
BRANCH   9  21
ATOM     21  O   LIG A   1      -6.047   3.786 121.587  0.00  0.00    -0.495 OA
ATOM     22  C   LIG A   1      -7.192   3.812 120.744  0.00  0.00    +0.277 C 
ENDBRANCH   9  21
BRANCH  11  23
ATOM     23  O   LIG A   1      -9.112   2.685 125.063  0.00  0.00    -0.494 OA
ATOM     24  C   LIG A   1      -9.486   1.384 124.628  0.00  0.00    +0.277 C 
ENDBRANCH  11  23
TORSDOF 3
ENDMDL
