MODEL 1
REMARK VINA RESULT:      -6.0      0.000      0.000
REMARK  Name = NuBBE_196
REMARK  5 active torsions:
REMARK  status: ('A' for Active; 'I' for Inactive)
REMARK    1  A    between atoms: O_1  and  C_2
REMARK    2  A    between atoms: C_2  and  C_3
REMARK    3  A    between atoms: C_5  and  O_6
REMARK    4  A    between atoms: O_6  and  C_7
REMARK    5  A    between atoms: C_8  and  O_9
REMARK                            x       y       z     vdW  Elec       q    Type
REMARK                         _______ _______ _______ _____ _____    ______ ____
ROOT
ATOM      1  C   LIG A   1     -13.092   9.434 129.709  0.00  0.00    +0.062 A 
ATOM      2  C   LIG A   1     -12.757   8.905 128.449  0.00  0.00    +0.064 A 
ATOM      3  C   LIG A   1     -12.394   7.565 128.330  0.00  0.00    +0.162 A 
ATOM      4  C   LIG A   1     -12.371   6.766 129.480  0.00  0.00    +0.159 A 
ATOM      5  C   LIG A   1     -12.699   7.276 130.731  0.00  0.00    +0.050 A 
ATOM      6  C   LIG A   1     -13.062   8.617 130.847  0.00  0.00    +0.019 A 
ENDROOT
BRANCH   1   7
ATOM      7  C   LIG A   1     -13.471  10.866 129.781  0.00  0.00    +0.337 C 
ATOM      8  O   LIG A   1     -13.427  11.563 130.778  0.00  0.00    -0.245 OA
BRANCH   7   9
ATOM      9  O   LIG A   1     -13.887  11.359 128.601  0.00  0.00    -0.477 OA
ATOM     10  H   LIG A   1     -13.315  10.913 127.942  0.00  0.00    +0.295 HD
ENDBRANCH   7   9
ENDBRANCH   1   7
BRANCH   3  11
ATOM     11  O   LIG A   1     -12.045   6.921 127.171  0.00  0.00    -0.491 OA
ATOM     12  C   LIG A   1     -10.949   7.467 126.444  0.00  0.00    +0.277 C 
ENDBRANCH   3  11
BRANCH   4  13
ATOM     13  O   LIG A   1     -12.018   5.448 129.395  0.00  0.00    -0.503 OA
ATOM     14  H   LIG A   1     -11.042   5.450 129.328  0.00  0.00    +0.292 HD
ENDBRANCH   4  13
TORSDOF 4
ENDMDL
MODEL 2
REMARK VINA RESULT:      -5.9      1.040      2.556
REMARK  Name = NuBBE_196
REMARK  5 active torsions:
REMARK  status: ('A' for Active; 'I' for Inactive)
REMARK    1  A    between atoms: O_1  and  C_2
REMARK    2  A    between atoms: C_2  and  C_3
REMARK    3  A    between atoms: C_5  and  O_6
REMARK    4  A    between atoms: O_6  and  C_7
REMARK    5  A    between atoms: C_8  and  O_9
REMARK                            x       y       z     vdW  Elec       q    Type
REMARK                         _______ _______ _______ _____ _____    ______ ____
ROOT
ATOM      1  C   LIG A   1     -13.099   9.466 129.630  0.00  0.00    +0.062 A 
ATOM      2  C   LIG A   1     -12.889   8.687 130.782  0.00  0.00    +0.064 A 
ATOM      3  C   LIG A   1     -12.576   7.335 130.661  0.00  0.00    +0.162 A 
ATOM      4  C   LIG A   1     -12.476   6.776 129.381  0.00  0.00    +0.159 A 
ATOM      5  C   LIG A   1     -12.681   7.535 128.234  0.00  0.00    +0.050 A 
ATOM      6  C   LIG A   1     -12.995   8.887 128.358  0.00  0.00    +0.019 A 
ENDROOT
BRANCH   1   7
ATOM      7  C   LIG A   1     -13.430  10.901 129.814  0.00  0.00    +0.337 C 
ATOM      8  O   LIG A   1     -13.380  11.512 130.866  0.00  0.00    -0.245 OA
BRANCH   7   9
ATOM      9  O   LIG A   1     -13.808  11.502 128.673  0.00  0.00    -0.477 OA
ATOM     10  H   LIG A   1     -14.623  11.026 128.411  0.00  0.00    +0.295 HD
ENDBRANCH   7   9
ENDBRANCH   1   7
BRANCH   3  11
ATOM     11  O   LIG A   1     -12.346   6.461 131.693  0.00  0.00    -0.491 OA
ATOM     12  C   LIG A   1     -11.005   6.368 132.161  0.00  0.00    +0.277 C 
ENDBRANCH   3  11
BRANCH   4  13
ATOM     13  O   LIG A   1     -12.171   5.452 129.229  0.00  0.00    -0.503 OA
ATOM     14  H   LIG A   1     -11.925   5.354 128.288  0.00  0.00    +0.292 HD
ENDBRANCH   4  13
TORSDOF 4
ENDMDL
MODEL 3
REMARK VINA RESULT:      -5.7      2.689      4.304
REMARK  Name = NuBBE_196
REMARK  5 active torsions:
REMARK  status: ('A' for Active; 'I' for Inactive)
REMARK    1  A    between atoms: O_1  and  C_2
REMARK    2  A    between atoms: C_2  and  C_3
REMARK    3  A    between atoms: C_5  and  O_6
REMARK    4  A    between atoms: O_6  and  C_7
REMARK    5  A    between atoms: C_8  and  O_9
REMARK                            x       y       z     vdW  Elec       q    Type
REMARK                         _______ _______ _______ _____ _____    ______ ____
ROOT
ATOM      1  C   LIG A   1     -11.320   7.225 127.841  0.00  0.00    +0.062 A 
ATOM      2  C   LIG A   1     -10.516   7.068 128.984  0.00  0.00    +0.064 A 
ATOM      3  C   LIG A   1     -11.102   7.027 130.247  0.00  0.00    +0.162 A 
ATOM      4  C   LIG A   1     -12.493   7.142 130.351  0.00  0.00    +0.159 A 
ATOM      5  C   LIG A   1     -13.300   7.298 129.230  0.00  0.00    +0.050 A 
ATOM      6  C   LIG A   1     -12.711   7.340 127.967  0.00  0.00    +0.019 A 
ENDROOT
BRANCH   1   7
ATOM      7  C   LIG A   1     -10.647   7.265 126.519  0.00  0.00    +0.337 C 
ATOM      8  O   LIG A   1     -10.879   8.059 125.627  0.00  0.00    -0.245 OA
BRANCH   7   9
ATOM      9  O   LIG A   1      -9.713   6.307 126.378  0.00  0.00    -0.477 OA
ATOM     10  H   LIG A   1      -9.541   6.005 127.294  0.00  0.00    +0.295 HD
ENDBRANCH   7   9
ENDBRANCH   1   7
BRANCH   3  11
ATOM     11  O   LIG A   1     -10.443   6.879 131.441  0.00  0.00    -0.491 OA
ATOM     12  C   LIG A   1      -9.062   6.542 131.369  0.00  0.00    +0.277 C 
ENDBRANCH   3  11
BRANCH   4  13
ATOM     13  O   LIG A   1     -13.098   7.105 131.578  0.00  0.00    -0.503 OA
ATOM     14  H   LIG A   1     -12.430   6.719 132.178  0.00  0.00    +0.292 HD
ENDBRANCH   4  13
TORSDOF 4
ENDMDL
MODEL 4
REMARK VINA RESULT:      -5.5      2.875      3.803
REMARK  Name = NuBBE_196
REMARK  5 active torsions:
REMARK  status: ('A' for Active; 'I' for Inactive)
REMARK    1  A    between atoms: O_1  and  C_2
REMARK    2  A    between atoms: C_2  and  C_3
REMARK    3  A    between atoms: C_5  and  O_6
REMARK    4  A    between atoms: O_6  and  C_7
REMARK    5  A    between atoms: C_8  and  O_9
REMARK                            x       y       z     vdW  Elec       q    Type
REMARK                         _______ _______ _______ _____ _____    ______ ____
ROOT
ATOM      1  C   LIG A   1     -11.217   7.787 129.583  0.00  0.00    +0.062 A 
ATOM      2  C   LIG A   1      -9.914   7.323 129.834  0.00  0.00    +0.064 A 
ATOM      3  C   LIG A   1      -9.652   6.567 130.975  0.00  0.00    +0.162 A 
ATOM      4  C   LIG A   1     -10.704   6.282 131.854  0.00  0.00    +0.159 A 
ATOM      5  C   LIG A   1     -11.996   6.734 131.618  0.00  0.00    +0.050 A 
ATOM      6  C   LIG A   1     -12.256   7.491 130.476  0.00  0.00    +0.019 A 
ENDROOT
BRANCH   1   7
ATOM      7  C   LIG A   1     -11.443   8.589 128.356  0.00  0.00    +0.337 C 
ATOM      8  O   LIG A   1     -10.771   8.542 127.342  0.00  0.00    -0.245 OA
BRANCH   7   9
ATOM      9  O   LIG A   1     -12.501   9.413 128.454  0.00  0.00    -0.477 OA
ATOM     10  H   LIG A   1     -13.211   8.845 128.821  0.00  0.00    +0.295 HD
ENDBRANCH   7   9
ENDBRANCH   1   7
BRANCH   3  11
ATOM     11  O   LIG A   1      -8.435   6.052 131.343  0.00  0.00    -0.491 OA
ATOM     12  C   LIG A   1      -7.300   6.883 131.126  0.00  0.00    +0.277 C 
ENDBRANCH   3  11
BRANCH   4  13
ATOM     13  O   LIG A   1     -10.477   5.542 132.982  0.00  0.00    -0.503 OA
ATOM     14  H   LIG A   1      -9.548   5.725 133.224  0.00  0.00    +0.292 HD
ENDBRANCH   4  13
TORSDOF 4
ENDMDL
MODEL 5
REMARK VINA RESULT:      -5.5      2.142      4.208
REMARK  Name = NuBBE_196
REMARK  5 active torsions:
REMARK  status: ('A' for Active; 'I' for Inactive)
REMARK    1  A    between atoms: O_1  and  C_2
REMARK    2  A    between atoms: C_2  and  C_3
REMARK    3  A    between atoms: C_5  and  O_6
REMARK    4  A    between atoms: O_6  and  C_7
REMARK    5  A    between atoms: C_8  and  O_9
REMARK                            x       y       z     vdW  Elec       q    Type
REMARK                         _______ _______ _______ _____ _____    ______ ____
ROOT
ATOM      1  C   LIG A   1     -11.114   6.829 131.005  0.00  0.00    +0.062 A 
ATOM      2  C   LIG A   1     -10.503   7.198 129.793  0.00  0.00    +0.064 A 
ATOM      3  C   LIG A   1     -11.123   8.120 128.952  0.00  0.00    +0.162 A 
ATOM      4  C   LIG A   1     -12.354   8.665 129.337  0.00  0.00    +0.159 A 
ATOM      5  C   LIG A   1     -12.969   8.309 130.531  0.00  0.00    +0.050 A 
ATOM      6  C   LIG A   1     -12.347   7.387 131.370  0.00  0.00    +0.019 A 
ENDROOT
BRANCH   1   7
ATOM      7  C   LIG A   1     -10.413   5.844 131.864  0.00  0.00    +0.337 C 
ATOM      8  O   LIG A   1     -10.090   4.717 131.534  0.00  0.00    -0.245 OA
BRANCH   7   9
ATOM      9  O   LIG A   1     -10.149   6.315 133.094  0.00  0.00    -0.477 OA
ATOM     10  H   LIG A   1      -9.794   7.214 132.934  0.00  0.00    +0.295 HD
ENDBRANCH   7   9
ENDBRANCH   1   7
BRANCH   3  11
ATOM     11  O   LIG A   1     -10.643   8.568 127.748  0.00  0.00    -0.491 OA
ATOM     12  C   LIG A   1     -10.816   7.701 126.631  0.00  0.00    +0.277 C 
ENDBRANCH   3  11
BRANCH   4  13
ATOM     13  O   LIG A   1     -12.987   9.572 128.532  0.00  0.00    -0.503 OA
ATOM     14  H   LIG A   1     -12.888  10.430 128.990  0.00  0.00    +0.292 HD
ENDBRANCH   4  13
TORSDOF 4
ENDMDL
MODEL 6
REMARK VINA RESULT:      -5.0      9.806     11.341
REMARK  Name = NuBBE_196
REMARK  5 active torsions:
REMARK  status: ('A' for Active; 'I' for Inactive)
REMARK    1  A    between atoms: O_1  and  C_2
REMARK    2  A    between atoms: C_2  and  C_3
REMARK    3  A    between atoms: C_5  and  O_6
REMARK    4  A    between atoms: O_6  and  C_7
REMARK    5  A    between atoms: C_8  and  O_9
REMARK                            x       y       z     vdW  Elec       q    Type
REMARK                         _______ _______ _______ _____ _____    ______ ____
ROOT
ATOM      1  C   LIG A   1      -6.648   4.498 120.261  0.00  0.00    +0.062 A 
ATOM      2  C   LIG A   1      -6.094   3.977 121.444  0.00  0.00    +0.064 A 
ATOM      3  C   LIG A   1      -6.881   3.219 122.308  0.00  0.00    +0.162 A 
ATOM      4  C   LIG A   1      -8.222   2.990 121.975  0.00  0.00    +0.159 A 
ATOM      5  C   LIG A   1      -8.783   3.499 120.809  0.00  0.00    +0.050 A 
ATOM      6  C   LIG A   1      -7.993   4.257 119.947  0.00  0.00    +0.019 A 
ENDROOT
BRANCH   1   7
ATOM      7  C   LIG A   1      -5.767   5.298 119.376  0.00  0.00    +0.337 C 
ATOM      8  O   LIG A   1      -5.830   5.341 118.161  0.00  0.00    -0.245 OA
BRANCH   7   9
ATOM      9  O   LIG A   1      -4.849   6.009 120.054  0.00  0.00    -0.477 OA
ATOM     10  H   LIG A   1      -4.036   5.465 119.995  0.00  0.00    +0.295 HD
ENDBRANCH   7   9
ENDBRANCH   1   7
BRANCH   3  11
ATOM     11  O   LIG A   1      -6.474   2.653 123.489  0.00  0.00    -0.491 OA
ATOM     12  C   LIG A   1      -6.098   3.549 124.528  0.00  0.00    +0.277 C 
ENDBRANCH   3  11
BRANCH   4  13
ATOM     13  O   LIG A   1      -9.021   2.250 122.803  0.00  0.00    -0.503 OA
ATOM     14  H   LIG A   1      -8.485   1.467 123.039  0.00  0.00    +0.292 HD
ENDBRANCH   4  13
TORSDOF 4
ENDMDL
MODEL 7
REMARK VINA RESULT:      -4.9      3.039      4.391
REMARK  Name = NuBBE_196
REMARK  5 active torsions:
REMARK  status: ('A' for Active; 'I' for Inactive)
REMARK    1  A    between atoms: O_1  and  C_2
REMARK    2  A    between atoms: C_2  and  C_3
REMARK    3  A    between atoms: C_5  and  O_6
REMARK    4  A    between atoms: O_6  and  C_7
REMARK    5  A    between atoms: C_8  and  O_9
REMARK                            x       y       z     vdW  Elec       q    Type
REMARK                         _______ _______ _______ _____ _____    ______ ____
ROOT
ATOM      1  C   LIG A   1      -9.556   6.870 130.818  0.00  0.00    +0.062 A 
ATOM      2  C   LIG A   1      -9.764   7.566 129.613  0.00  0.00    +0.064 A 
ATOM      3  C   LIG A   1     -11.055   7.725 129.114  0.00  0.00    +0.162 A 
ATOM      4  C   LIG A   1     -12.128   7.182 129.831  0.00  0.00    +0.159 A 
ATOM      5  C   LIG A   1     -11.937   6.492 131.022  0.00  0.00    +0.050 A 
ATOM      6  C   LIG A   1     -10.644   6.335 131.519  0.00  0.00    +0.019 A 
ENDROOT
BRANCH   1   7
ATOM      7  C   LIG A   1      -8.162   6.729 131.305  0.00  0.00    +0.337 C 
ATOM      8  O   LIG A   1      -7.813   6.096 132.285  0.00  0.00    -0.245 OA
BRANCH   7   9
ATOM      9  O   LIG A   1      -7.271   7.385 130.542  0.00  0.00    -0.477 OA
ATOM     10  H   LIG A   1      -6.516   7.549 131.146  0.00  0.00    +0.295 HD
ENDBRANCH   7   9
ENDBRANCH   1   7
BRANCH   3  11
ATOM     11  O   LIG A   1     -11.402   8.377 127.958  0.00  0.00    -0.491 OA
ATOM     12  C   LIG A   1     -11.019   7.754 126.737  0.00  0.00    +0.277 C 
ENDBRANCH   3  11
BRANCH   4  13
ATOM     13  O   LIG A   1     -13.407   7.321 129.367  0.00  0.00    -0.503 OA
ATOM     14  H   LIG A   1     -13.426   6.827 128.523  0.00  0.00    +0.292 HD
ENDBRANCH   4  13
TORSDOF 4
ENDMDL
MODEL 8
REMARK VINA RESULT:      -4.8      9.044     10.954
REMARK  Name = NuBBE_196
REMARK  5 active torsions:
REMARK  status: ('A' for Active; 'I' for Inactive)
REMARK    1  A    between atoms: O_1  and  C_2
REMARK    2  A    between atoms: C_2  and  C_3
REMARK    3  A    between atoms: C_5  and  O_6
REMARK    4  A    between atoms: O_6  and  C_7
REMARK    5  A    between atoms: C_8  and  O_9
REMARK                            x       y       z     vdW  Elec       q    Type
REMARK                         _______ _______ _______ _____ _____    ______ ____
ROOT
ATOM      1  C   LIG A   1      -8.028   2.998 122.542  0.00  0.00    +0.062 A 
ATOM      2  C   LIG A   1      -6.667   3.286 122.332  0.00  0.00    +0.064 A 
ATOM      3  C   LIG A   1      -6.251   3.844 121.125  0.00  0.00    +0.162 A 
ATOM      4  C   LIG A   1      -7.207   4.109 120.137  0.00  0.00    +0.159 A 
ATOM      5  C   LIG A   1      -8.555   3.829 120.331  0.00  0.00    +0.050 A 
ATOM      6  C   LIG A   1      -8.969   3.270 121.539  0.00  0.00    +0.019 A 
ENDROOT
BRANCH   1   7
ATOM      7  C   LIG A   1      -8.419   2.404 123.843  0.00  0.00    +0.337 C 
ATOM      8  O   LIG A   1      -8.127   1.287 124.231  0.00  0.00    -0.245 OA
BRANCH   7   9
ATOM      9  O   LIG A   1      -9.155   3.236 124.600  0.00  0.00    -0.477 OA
ATOM     10  H   LIG A   1      -9.268   4.031 124.038  0.00  0.00    +0.295 HD
ENDBRANCH   7   9
ENDBRANCH   1   7
BRANCH   3  11
ATOM     11  O   LIG A   1      -4.963   4.174 120.787  0.00  0.00    -0.491 OA
ATOM     12  C   LIG A   1      -4.266   5.026 121.691  0.00  0.00    +0.277 C 
ENDBRANCH   3  11
BRANCH   4  13
ATOM     13  O   LIG A   1      -6.830   4.656 118.942  0.00  0.00    -0.503 OA
ATOM     14  H   LIG A   1      -6.170   5.340 119.173  0.00  0.00    +0.292 HD
ENDBRANCH   4  13
TORSDOF 4
ENDMDL
MODEL 9
REMARK VINA RESULT:      -4.7      2.969      3.841
REMARK  Name = NuBBE_196
REMARK  5 active torsions:
REMARK  status: ('A' for Active; 'I' for Inactive)
REMARK    1  A    between atoms: O_1  and  C_2
REMARK    2  A    between atoms: C_2  and  C_3
REMARK    3  A    between atoms: C_5  and  O_6
REMARK    4  A    between atoms: O_6  and  C_7
REMARK    5  A    between atoms: C_8  and  O_9
REMARK                            x       y       z     vdW  Elec       q    Type
REMARK                         _______ _______ _______ _____ _____    ______ ____
ROOT
ATOM      1  C   LIG A   1     -11.442   6.724 129.713  0.00  0.00    +0.062 A 
ATOM      2  C   LIG A   1     -10.414   6.598 128.761  0.00  0.00    +0.064 A 
ATOM      3  C   LIG A   1     -10.704   6.719 127.403  0.00  0.00    +0.162 A 
ATOM      4  C   LIG A   1     -12.026   6.966 127.013  0.00  0.00    +0.159 A 
ATOM      5  C   LIG A   1     -13.051   7.093 127.943  0.00  0.00    +0.050 A 
ATOM      6  C   LIG A   1     -12.758   6.971 129.301  0.00  0.00    +0.019 A 
ENDROOT
BRANCH   1   7
ATOM      7  C   LIG A   1     -11.081   6.586 131.145  0.00  0.00    +0.337 C 
ATOM      8  O   LIG A   1      -9.977   6.779 131.621  0.00  0.00    -0.245 OA
BRANCH   7   9
ATOM      9  O   LIG A   1     -12.118   6.213 131.914  0.00  0.00    -0.477 OA
ATOM     10  H   LIG A   1     -12.847   6.065 131.275  0.00  0.00    +0.295 HD
ENDBRANCH   7   9
ENDBRANCH   1   7
BRANCH   3  11
ATOM     11  O   LIG A   1      -9.805   6.619 126.371  0.00  0.00    -0.491 OA
ATOM     12  C   LIG A   1      -8.900   5.522 126.419  0.00  0.00    +0.277 C 
ENDBRANCH   3  11
BRANCH   4  13
ATOM     13  O   LIG A   1     -12.341   7.089 125.688  0.00  0.00    -0.503 OA
ATOM     14  H   LIG A   1     -13.316   7.026 125.652  0.00  0.00    +0.292 HD
ENDBRANCH   4  13
TORSDOF 4
ENDMDL
