MODEL 1
REMARK VINA RESULT:      -7.1      0.000      0.000
REMARK  Name = NuBBE_1580
REMARK  11 active torsions:
REMARK  status: ('A' for Active; 'I' for Inactive)
REMARK    1  A    between atoms: C_1  and  O_2
REMARK    2  A    between atoms: O_2  and  C_3
REMARK    3  A    between atoms: C_5  and  O_6
REMARK    4  A    between atoms: O_6  and  C_7
REMARK    5  A    between atoms: C_8  and  O_9
REMARK    6  A    between atoms: O_9  and  C_10
REMARK    7  A    between atoms: C_13  and  C_14
REMARK    8  A    between atoms: C_16  and  O_17
REMARK    9  A    between atoms: O_17  and  C_18
REMARK   10  A    between atoms: C_19  and  O_20
REMARK   11  A    between atoms: O_20  and  C_21
REMARK                            x       y       z     vdW  Elec       q    Type
REMARK                         _______ _______ _______ _____ _____    ______ ____
ROOT
ATOM      1  C   LIG A   1      -5.480   5.896 134.221  0.00  0.00    +0.138 A 
ATOM      2  C   LIG A   1      -4.301   6.349 133.626  0.00  0.00    +0.096 A 
ATOM      3  C   LIG A   1      -4.237   6.666 132.258  0.00  0.00    +0.169 A 
ATOM      4  C   LIG A   1      -5.396   6.592 131.464  0.00  0.00    +0.205 A 
ATOM      5  C   LIG A   1      -6.597   6.207 132.080  0.00  0.00    +0.188 A 
ATOM      6  O   LIG A   1      -7.749   6.247 131.337  0.00  0.00    -0.451 OA
ATOM      7  C   LIG A   1      -8.970   6.233 131.976  0.00  0.00    +0.140 A 
ATOM      8  C   LIG A   1      -9.126   5.749 133.215  0.00  0.00    +0.098 A 
ATOM      9  C   LIG A   1      -6.630   5.809 133.426  0.00  0.00    +0.109 A 
ATOM     10  C   LIG A   1      -7.918   5.278 133.917  0.00  0.00    +0.197 A 
ATOM     11  O   LIG A   1      -8.018   4.453 134.825  0.00  0.00    -0.287 OA
ENDROOT
BRANCH   7  12
ATOM     12  C   LIG A   1     -10.082   6.731 131.141  0.00  0.00    +0.021 A 
ATOM     13  C   LIG A   1      -9.878   7.255 129.858  0.00  0.00    +0.061 A 
ATOM     14  C   LIG A   1     -10.951   7.682 129.057  0.00  0.00    +0.162 A 
ATOM     15  C   LIG A   1     -12.263   7.607 129.550  0.00  0.00    +0.162 A 
ATOM     16  C   LIG A   1     -12.477   7.049 130.812  0.00  0.00    +0.050 A 
ATOM     17  C   LIG A   1     -11.403   6.624 131.596  0.00  0.00    +0.015 A 
BRANCH  14  18
ATOM     18  O   LIG A   1     -10.548   8.205 127.853  0.00  0.00    -0.491 OA
ATOM     19  C   LIG A   1     -10.528   7.315 126.745  0.00  0.00    +0.277 C 
ENDBRANCH  14  18
BRANCH  15  20
ATOM     20  O   LIG A   1     -13.297   8.060 128.777  0.00  0.00    -0.491 OA
ATOM     21  C   LIG A   1     -13.887   7.102 127.903  0.00  0.00    +0.277 C 
ENDBRANCH  15  20
ENDBRANCH   7  12
BRANCH   1  23
ATOM     22  C   LIG A   1      -5.190   6.693 136.439  0.00  0.00    +0.277 C 
ATOM     23  O   LIG A   1      -5.584   5.639 135.562  0.00  0.00    -0.494 OA
ENDBRANCH   1  23
BRANCH   3  24
ATOM     24  O   LIG A   1      -2.972   7.047 131.878  0.00  0.00    -0.491 OA
ATOM     25  C   LIG A   1      -2.379   8.158 132.535  0.00  0.00    +0.277 C 
ENDBRANCH   3  24
BRANCH   4  26
ATOM     26  O   LIG A   1      -5.250   6.921 130.146  0.00  0.00    -0.488 OA
ATOM     27  C   LIG A   1      -4.697   6.022 129.204  0.00  0.00    +0.277 C 
ENDBRANCH   4  26
TORSDOF 6
ENDMDL
MODEL 2
REMARK VINA RESULT:      -7.0      2.922      3.600
REMARK  Name = NuBBE_1580
REMARK  11 active torsions:
REMARK  status: ('A' for Active; 'I' for Inactive)
REMARK    1  A    between atoms: C_1  and  O_2
REMARK    2  A    between atoms: O_2  and  C_3
REMARK    3  A    between atoms: C_5  and  O_6
REMARK    4  A    between atoms: O_6  and  C_7
REMARK    5  A    between atoms: C_8  and  O_9
REMARK    6  A    between atoms: O_9  and  C_10
REMARK    7  A    between atoms: C_13  and  C_14
REMARK    8  A    between atoms: C_16  and  O_17
REMARK    9  A    between atoms: O_17  and  C_18
REMARK   10  A    between atoms: C_19  and  O_20
REMARK   11  A    between atoms: O_20  and  C_21
REMARK                            x       y       z     vdW  Elec       q    Type
REMARK                         _______ _______ _______ _____ _____    ______ ____
ROOT
ATOM      1  C   LIG A   1      -7.089   2.811 132.113  0.00  0.00    +0.138 A 
ATOM      2  C   LIG A   1      -6.397   2.225 131.051  0.00  0.00    +0.096 A 
ATOM      3  C   LIG A   1      -6.848   2.334 129.725  0.00  0.00    +0.169 A 
ATOM      4  C   LIG A   1      -7.991   3.101 129.431  0.00  0.00    +0.205 A 
ATOM      5  C   LIG A   1      -8.644   3.749 130.491  0.00  0.00    +0.188 A 
ATOM      6  O   LIG A   1      -9.685   4.590 130.195  0.00  0.00    -0.451 OA
ATOM      7  C   LIG A   1     -10.108   5.505 131.135  0.00  0.00    +0.140 A 
ATOM      8  C   LIG A   1      -9.881   5.345 132.445  0.00  0.00    +0.098 A 
ATOM      9  C   LIG A   1      -8.234   3.562 131.822  0.00  0.00    +0.109 A 
ATOM     10  C   LIG A   1      -9.093   4.170 132.859  0.00  0.00    +0.197 A 
ATOM     11  O   LIG A   1      -9.209   3.724 134.000  0.00  0.00    -0.287 OA
ENDROOT
BRANCH   7  12
ATOM     12  C   LIG A   1     -10.888   6.623 130.565  0.00  0.00    +0.021 A 
ATOM     13  C   LIG A   1     -10.574   7.200 129.328  0.00  0.00    +0.061 A 
ATOM     14  C   LIG A   1     -11.353   8.233 128.778  0.00  0.00    +0.162 A 
ATOM     15  C   LIG A   1     -12.464   8.721 129.484  0.00  0.00    +0.162 A 
ATOM     16  C   LIG A   1     -12.806   8.122 130.699  0.00  0.00    +0.050 A 
ATOM     17  C   LIG A   1     -12.027   7.095 131.233  0.00  0.00    +0.015 A 
BRANCH  14  18
ATOM     18  O   LIG A   1     -10.862   8.698 127.584  0.00  0.00    -0.491 OA
ATOM     19  C   LIG A   1     -10.895   7.797 126.485  0.00  0.00    +0.277 C 
ENDBRANCH  14  18
BRANCH  15  20
ATOM     20  O   LIG A   1     -13.194   9.751 128.956  0.00  0.00    -0.491 OA
ATOM     21  C   LIG A   1     -13.470  10.835 129.837  0.00  0.00    +0.277 C 
ENDBRANCH  15  20
ENDBRANCH   7  12
BRANCH   1  23
ATOM     22  C   LIG A   1      -5.453   3.516 133.684  0.00  0.00    +0.277 C 
ATOM     23  O   LIG A   1      -6.637   2.771 133.406  0.00  0.00    -0.494 OA
ENDBRANCH   1  23
BRANCH   3  24
ATOM     24  O   LIG A   1      -6.041   1.646 128.849  0.00  0.00    -0.491 OA
ATOM     25  C   LIG A   1      -4.802   2.232 128.477  0.00  0.00    +0.277 C 
ENDBRANCH   3  24
BRANCH   4  26
ATOM     26  O   LIG A   1      -8.361   3.159 128.117  0.00  0.00    -0.488 OA
ATOM     27  C   LIG A   1      -7.818   4.113 127.225  0.00  0.00    +0.277 C 
ENDBRANCH   4  26
TORSDOF 6
ENDMDL
MODEL 3
REMARK VINA RESULT:      -6.9      1.937      2.090
REMARK  Name = NuBBE_1580
REMARK  11 active torsions:
REMARK  status: ('A' for Active; 'I' for Inactive)
REMARK    1  A    between atoms: C_1  and  O_2
REMARK    2  A    between atoms: O_2  and  C_3
REMARK    3  A    between atoms: C_5  and  O_6
REMARK    4  A    between atoms: O_6  and  C_7
REMARK    5  A    between atoms: C_8  and  O_9
REMARK    6  A    between atoms: O_9  and  C_10
REMARK    7  A    between atoms: C_13  and  C_14
REMARK    8  A    between atoms: C_16  and  O_17
REMARK    9  A    between atoms: O_17  and  C_18
REMARK   10  A    between atoms: C_19  and  O_20
REMARK   11  A    between atoms: O_20  and  C_21
REMARK                            x       y       z     vdW  Elec       q    Type
REMARK                         _______ _______ _______ _____ _____    ______ ____
ROOT
ATOM      1  C   LIG A   1      -6.131   4.288 133.005  0.00  0.00    +0.138 A 
ATOM      2  C   LIG A   1      -5.019   4.178 132.168  0.00  0.00    +0.096 A 
ATOM      3  C   LIG A   1      -5.115   4.380 130.780  0.00  0.00    +0.169 A 
ATOM      4  C   LIG A   1      -6.342   4.763 130.208  0.00  0.00    +0.205 A 
ATOM      5  C   LIG A   1      -7.443   4.943 131.061  0.00  0.00    +0.188 A 
ATOM      6  O   LIG A   1      -8.607   5.429 130.524  0.00  0.00    -0.451 OA
ATOM      7  C   LIG A   1      -9.572   5.955 131.356  0.00  0.00    +0.140 A 
ATOM      8  C   LIG A   1      -9.651   5.635 132.654  0.00  0.00    +0.098 A 
ATOM      9  C   LIG A   1      -7.356   4.655 132.432  0.00  0.00    +0.109 A 
ATOM     10  C   LIG A   1      -8.618   4.733 133.195  0.00  0.00    +0.197 A 
ATOM     11  O   LIG A   1      -8.852   4.066 134.203  0.00  0.00    -0.287 OA
ENDROOT
BRANCH   7  12
ATOM     12  C   LIG A   1     -10.536   6.835 130.665  0.00  0.00    +0.021 A 
ATOM     13  C   LIG A   1     -10.281   7.375 129.398  0.00  0.00    +0.061 A 
ATOM     14  C   LIG A   1     -11.227   8.174 128.733  0.00  0.00    +0.162 A 
ATOM     15  C   LIG A   1     -12.453   8.463 129.351  0.00  0.00    +0.162 A 
ATOM     16  C   LIG A   1     -12.730   7.895 130.597  0.00  0.00    +0.050 A 
ATOM     17  C   LIG A   1     -11.783   7.101 131.245  0.00  0.00    +0.015 A 
BRANCH  14  18
ATOM     18  O   LIG A   1     -10.778   8.645 127.524  0.00  0.00    -0.491 OA
ATOM     19  C   LIG A   1     -10.810   7.735 126.433  0.00  0.00    +0.277 C 
ENDBRANCH  14  18
BRANCH  15  20
ATOM     20  O   LIG A   1     -13.353   9.272 128.711  0.00  0.00    -0.491 OA
ATOM     21  C   LIG A   1     -13.491  10.588 129.236  0.00  0.00    +0.277 C 
ENDBRANCH  15  20
ENDBRANCH   7  12
BRANCH   1  23
ATOM     22  C   LIG A   1      -4.840   3.605 134.877  0.00  0.00    +0.277 C 
ATOM     23  O   LIG A   1      -6.052   4.156 134.366  0.00  0.00    -0.494 OA
ENDBRANCH   1  23
BRANCH   3  24
ATOM     24  O   LIG A   1      -3.911   4.180 130.147  0.00  0.00    -0.491 OA
ATOM     25  C   LIG A   1      -3.070   5.305 129.932  0.00  0.00    +0.277 C 
ENDBRANCH   3  24
BRANCH   4  26
ATOM     26  O   LIG A   1      -6.351   4.943 128.854  0.00  0.00    -0.488 OA
ATOM     27  C   LIG A   1      -6.678   3.897 127.958  0.00  0.00    +0.277 C 
ENDBRANCH   4  26
TORSDOF 6
ENDMDL
MODEL 4
REMARK VINA RESULT:      -6.8      2.009      2.943
REMARK  Name = NuBBE_1580
REMARK  11 active torsions:
REMARK  status: ('A' for Active; 'I' for Inactive)
REMARK    1  A    between atoms: C_1  and  O_2
REMARK    2  A    between atoms: O_2  and  C_3
REMARK    3  A    between atoms: C_5  and  O_6
REMARK    4  A    between atoms: O_6  and  C_7
REMARK    5  A    between atoms: C_8  and  O_9
REMARK    6  A    between atoms: O_9  and  C_10
REMARK    7  A    between atoms: C_13  and  C_14
REMARK    8  A    between atoms: C_16  and  O_17
REMARK    9  A    between atoms: O_17  and  C_18
REMARK   10  A    between atoms: C_19  and  O_20
REMARK   11  A    between atoms: O_20  and  C_21
REMARK                            x       y       z     vdW  Elec       q    Type
REMARK                         _______ _______ _______ _____ _____    ______ ____
ROOT
ATOM      1  C   LIG A   1      -3.941   4.862 131.427  0.00  0.00    +0.138 A 
ATOM      2  C   LIG A   1      -3.204   4.767 130.245  0.00  0.00    +0.096 A 
ATOM      3  C   LIG A   1      -3.826   4.758 128.985  0.00  0.00    +0.169 A 
ATOM      4  C   LIG A   1      -5.221   4.912 128.887  0.00  0.00    +0.205 A 
ATOM      5  C   LIG A   1      -5.953   5.080 130.073  0.00  0.00    +0.188 A 
ATOM      6  O   LIG A   1      -7.294   5.347 129.976  0.00  0.00    -0.451 OA
ATOM      7  C   LIG A   1      -7.964   5.868 131.062  0.00  0.00    +0.140 A 
ATOM      8  C   LIG A   1      -7.517   5.727 132.316  0.00  0.00    +0.098 A 
ATOM      9  C   LIG A   1      -5.331   5.000 131.330  0.00  0.00    +0.109 A 
ATOM     10  C   LIG A   1      -6.228   5.037 132.504  0.00  0.00    +0.197 A 
ATOM     11  O   LIG A   1      -5.972   4.496 133.579  0.00  0.00    -0.287 OA
ENDROOT
BRANCH   7  12
ATOM     12  C   LIG A   1      -9.241   6.524 130.712  0.00  0.00    +0.021 A 
ATOM     13  C   LIG A   1      -9.398   7.280 129.542  0.00  0.00    +0.061 A 
ATOM     14  C   LIG A   1     -10.631   7.860 129.200  0.00  0.00    +0.162 A 
ATOM     15  C   LIG A   1     -11.736   7.704 130.052  0.00  0.00    +0.162 A 
ATOM     16  C   LIG A   1     -11.597   6.919 131.199  0.00  0.00    +0.050 A 
ATOM     17  C   LIG A   1     -10.367   6.345 131.526  0.00  0.00    +0.015 A 
BRANCH  14  18
ATOM     18  O   LIG A   1     -10.576   8.597 128.044  0.00  0.00    -0.491 OA
ATOM     19  C   LIG A   1     -10.880   7.913 126.835  0.00  0.00    +0.277 C 
ENDBRANCH  14  18
BRANCH  15  20
ATOM     20  O   LIG A   1     -12.923   8.303 129.728  0.00  0.00    -0.491 OA
ATOM     21  C   LIG A   1     -13.044   9.678 130.081  0.00  0.00    +0.277 C 
ENDBRANCH  15  20
ENDBRANCH   7  12
BRANCH   1  23
ATOM     22  C   LIG A   1      -1.946   4.722 132.707  0.00  0.00    +0.277 C 
ATOM     23  O   LIG A   1      -3.355   4.933 132.664  0.00  0.00    -0.494 OA
ENDBRANCH   1  23
BRANCH   3  24
ATOM     24  O   LIG A   1      -2.916   4.613 127.964  0.00  0.00    -0.491 OA
ATOM     25  C   LIG A   1      -2.486   3.301 127.629  0.00  0.00    +0.277 C 
ENDBRANCH   3  24
BRANCH   4  26
ATOM     26  O   LIG A   1      -5.747   4.897 127.627  0.00  0.00    -0.488 OA
ATOM     27  C   LIG A   1      -6.221   3.708 127.024  0.00  0.00    +0.277 C 
ENDBRANCH   4  26
TORSDOF 6
ENDMDL
MODEL 5
REMARK VINA RESULT:      -6.8      6.003     10.682
REMARK  Name = NuBBE_1580
REMARK  11 active torsions:
REMARK  status: ('A' for Active; 'I' for Inactive)
REMARK    1  A    between atoms: C_1  and  O_2
REMARK    2  A    between atoms: O_2  and  C_3
REMARK    3  A    between atoms: C_5  and  O_6
REMARK    4  A    between atoms: O_6  and  C_7
REMARK    5  A    between atoms: C_8  and  O_9
REMARK    6  A    between atoms: O_9  and  C_10
REMARK    7  A    between atoms: C_13  and  C_14
REMARK    8  A    between atoms: C_16  and  O_17
REMARK    9  A    between atoms: O_17  and  C_18
REMARK   10  A    between atoms: C_19  and  O_20
REMARK   11  A    between atoms: O_20  and  C_21
REMARK                            x       y       z     vdW  Elec       q    Type
REMARK                         _______ _______ _______ _____ _____    ______ ____
ROOT
ATOM      1  C   LIG A   1      -8.001   3.123 122.097  0.00  0.00    +0.138 A 
ATOM      2  C   LIG A   1      -9.008   2.183 122.327  0.00  0.00    +0.096 A 
ATOM      3  C   LIG A   1      -8.957   1.297 123.417  0.00  0.00    +0.169 A 
ATOM      4  C   LIG A   1      -7.905   1.385 124.347  0.00  0.00    +0.205 A 
ATOM      5  C   LIG A   1      -6.932   2.379 124.154  0.00  0.00    +0.188 A 
ATOM      6  O   LIG A   1      -5.973   2.543 125.119  0.00  0.00    -0.451 OA
ATOM      7  C   LIG A   1      -5.237   3.709 125.154  0.00  0.00    +0.140 A 
ATOM      8  C   LIG A   1      -5.082   4.492 124.080  0.00  0.00    +0.098 A 
ATOM      9  C   LIG A   1      -6.946   3.200 123.015  0.00  0.00    +0.109 A 
ATOM     10  C   LIG A   1      -5.786   4.099 122.845  0.00  0.00    +0.197 A 
ATOM     11  O   LIG A   1      -5.370   4.482 121.752  0.00  0.00    -0.287 OA
ENDROOT
BRANCH   7  12
ATOM     12  C   LIG A   1      -4.590   3.962 126.458  0.00  0.00    +0.021 A 
ATOM     13  C   LIG A   1      -4.798   5.144 127.180  0.00  0.00    +0.061 A 
ATOM     14  C   LIG A   1      -4.211   5.351 128.440  0.00  0.00    +0.162 A 
ATOM     15  C   LIG A   1      -3.377   4.366 128.991  0.00  0.00    +0.162 A 
ATOM     16  C   LIG A   1      -3.198   3.168 128.295  0.00  0.00    +0.050 A 
ATOM     17  C   LIG A   1      -3.789   2.973 127.046  0.00  0.00    +0.015 A 
BRANCH  14  18
ATOM     18  O   LIG A   1      -4.496   6.585 128.969  0.00  0.00    -0.491 OA
ATOM     19  C   LIG A   1      -3.528   7.606 128.764  0.00  0.00    +0.277 C 
ENDBRANCH  14  18
BRANCH  15  20
ATOM     20  O   LIG A   1      -2.782   4.592 130.202  0.00  0.00    -0.491 OA
ATOM     21  C   LIG A   1      -3.426   4.011 131.332  0.00  0.00    +0.277 C 
ENDBRANCH  15  20
ENDBRANCH   7  12
BRANCH   1  23
ATOM     22  C   LIG A   1      -9.111   3.863 120.132  0.00  0.00    +0.277 C 
ATOM     23  O   LIG A   1      -8.058   4.037 121.078  0.00  0.00    -0.494 OA
ENDBRANCH   1  23
BRANCH   3  24
ATOM     24  O   LIG A   1     -10.026   0.432 123.425  0.00  0.00    -0.491 OA
ATOM     25  C   LIG A   1      -9.973  -0.710 122.581  0.00  0.00    +0.277 C 
ENDBRANCH   3  24
BRANCH   4  26
ATOM     26  O   LIG A   1      -7.931   0.491 125.379  0.00  0.00    -0.488 OA
ATOM     27  C   LIG A   1      -8.611   0.761 126.591  0.00  0.00    +0.277 C 
ENDBRANCH   4  26
TORSDOF 6
ENDMDL
MODEL 6
REMARK VINA RESULT:      -6.7      4.587      7.123
REMARK  Name = NuBBE_1580
REMARK  11 active torsions:
REMARK  status: ('A' for Active; 'I' for Inactive)
REMARK    1  A    between atoms: C_1  and  O_2
REMARK    2  A    between atoms: O_2  and  C_3
REMARK    3  A    between atoms: C_5  and  O_6
REMARK    4  A    between atoms: O_6  and  C_7
REMARK    5  A    between atoms: C_8  and  O_9
REMARK    6  A    between atoms: O_9  and  C_10
REMARK    7  A    between atoms: C_13  and  C_14
REMARK    8  A    between atoms: C_16  and  O_17
REMARK    9  A    between atoms: O_17  and  C_18
REMARK   10  A    between atoms: C_19  and  O_20
REMARK   11  A    between atoms: O_20  and  C_21
REMARK                            x       y       z     vdW  Elec       q    Type
REMARK                         _______ _______ _______ _____ _____    ______ ____
ROOT
ATOM      1  C   LIG A   1      -9.513   4.131 131.059  0.00  0.00    +0.138 A 
ATOM      2  C   LIG A   1     -10.376   5.220 131.201  0.00  0.00    +0.096 A 
ATOM      3  C   LIG A   1     -10.438   6.244 130.241  0.00  0.00    +0.169 A 
ATOM      4  C   LIG A   1      -9.664   6.158 129.069  0.00  0.00    +0.205 A 
ATOM      5  C   LIG A   1      -8.852   5.026 128.894  0.00  0.00    +0.188 A 
ATOM      6  O   LIG A   1      -8.188   4.882 127.703  0.00  0.00    -0.451 OA
ATOM      7  C   LIG A   1      -7.685   3.648 127.350  0.00  0.00    +0.140 A 
ATOM      8  C   LIG A   1      -7.413   2.699 128.255  0.00  0.00    +0.098 A 
ATOM      9  C   LIG A   1      -8.732   4.053 129.899  0.00  0.00    +0.109 A 
ATOM     10  C   LIG A   1      -7.730   2.993 129.664  0.00  0.00    +0.197 A 
ATOM     11  O   LIG A   1      -7.138   2.399 130.564  0.00  0.00    -0.287 OA
ENDROOT
BRANCH   7  12
ATOM     12  C   LIG A   1      -7.415   3.509 125.904  0.00  0.00    +0.021 A 
ATOM     13  C   LIG A   1      -8.396   3.091 124.996  0.00  0.00    +0.061 A 
ATOM     14  C   LIG A   1      -8.137   3.008 123.617  0.00  0.00    +0.162 A 
ATOM     15  C   LIG A   1      -6.861   3.329 123.127  0.00  0.00    +0.162 A 
ATOM     16  C   LIG A   1      -5.890   3.785 124.022  0.00  0.00    +0.050 A 
ATOM     17  C   LIG A   1      -6.162   3.866 125.389  0.00  0.00    +0.015 A 
BRANCH  14  18
ATOM     18  O   LIG A   1      -9.206   2.537 122.897  0.00  0.00    -0.491 OA
ATOM     19  C   LIG A   1      -9.915   1.438 123.452  0.00  0.00    +0.277 C 
ENDBRANCH  14  18
BRANCH  15  20
ATOM     20  O   LIG A   1      -6.608   3.210 121.788  0.00  0.00    -0.491 OA
ATOM     21  C   LIG A   1      -5.621   4.090 121.259  0.00  0.00    +0.277 C 
ENDBRANCH  15  20
ENDBRANCH   7  12
BRANCH   1  23
ATOM     22  C   LIG A   1      -9.203   3.431 133.307  0.00  0.00    +0.277 C 
ATOM     23  O   LIG A   1      -9.478   3.091 131.950  0.00  0.00    -0.494 OA
ENDBRANCH   1  23
BRANCH   3  24
ATOM     24  O   LIG A   1     -11.320   7.235 130.603  0.00  0.00    -0.491 OA
ATOM     25  C   LIG A   1     -12.352   6.911 131.524  0.00  0.00    +0.277 C 
ENDBRANCH   3  24
BRANCH   4  26
ATOM     26  O   LIG A   1      -9.785   7.191 128.184  0.00  0.00    -0.488 OA
ATOM     27  C   LIG A   1     -10.808   7.229 127.207  0.00  0.00    +0.277 C 
ENDBRANCH   4  26
TORSDOF 6
ENDMDL
MODEL 7
REMARK VINA RESULT:      -6.6      8.498     11.397
REMARK  Name = NuBBE_1580
REMARK  11 active torsions:
REMARK  status: ('A' for Active; 'I' for Inactive)
REMARK    1  A    between atoms: C_1  and  O_2
REMARK    2  A    between atoms: O_2  and  C_3
REMARK    3  A    between atoms: C_5  and  O_6
REMARK    4  A    between atoms: O_6  and  C_7
REMARK    5  A    between atoms: C_8  and  O_9
REMARK    6  A    between atoms: O_9  and  C_10
REMARK    7  A    between atoms: C_13  and  C_14
REMARK    8  A    between atoms: C_16  and  O_17
REMARK    9  A    between atoms: O_17  and  C_18
REMARK   10  A    between atoms: C_19  and  O_20
REMARK   11  A    between atoms: O_20  and  C_21
REMARK                            x       y       z     vdW  Elec       q    Type
REMARK                         _______ _______ _______ _____ _____    ______ ____
ROOT
ATOM      1  C   LIG A   1      -9.126   0.016 124.554  0.00  0.00    +0.138 A 
ATOM      2  C   LIG A   1      -8.959   1.402 124.574  0.00  0.00    +0.096 A 
ATOM      3  C   LIG A   1      -8.565   2.083 125.739  0.00  0.00    +0.169 A 
ATOM      4  C   LIG A   1      -8.267   1.360 126.909  0.00  0.00    +0.205 A 
ATOM      5  C   LIG A   1      -8.366  -0.039 126.867  0.00  0.00    +0.188 A 
ATOM      6  O   LIG A   1      -7.964  -0.752 127.967  0.00  0.00    -0.451 OA
ATOM      7  C   LIG A   1      -7.704  -2.100 127.845  0.00  0.00    +0.140 A 
ATOM      8  C   LIG A   1      -8.224  -2.845 126.862  0.00  0.00    +0.098 A 
ATOM      9  C   LIG A   1      -8.844  -0.701 125.723  0.00  0.00    +0.109 A 
ATOM     10  C   LIG A   1      -9.051  -2.158 125.854  0.00  0.00    +0.197 A 
ATOM     11  O   LIG A   1      -9.887  -2.791 125.210  0.00  0.00    -0.287 OA
ENDROOT
BRANCH   7  12
ATOM     12  C   LIG A   1      -6.866  -2.642 128.934  0.00  0.00    +0.021 A 
ATOM     13  C   LIG A   1      -5.467  -2.573 128.907  0.00  0.00    +0.061 A 
ATOM     14  C   LIG A   1      -4.685  -3.052 129.972  0.00  0.00    +0.162 A 
ATOM     15  C   LIG A   1      -5.307  -3.636 131.087  0.00  0.00    +0.162 A 
ATOM     16  C   LIG A   1      -6.702  -3.672 131.138  0.00  0.00    +0.050 A 
ATOM     17  C   LIG A   1      -7.468  -3.189 130.076  0.00  0.00    +0.015 A 
BRANCH  14  18
ATOM     18  O   LIG A   1      -3.337  -2.938 129.743  0.00  0.00    -0.491 OA
ATOM     19  C   LIG A   1      -2.757  -3.886 128.857  0.00  0.00    +0.277 C 
ENDBRANCH  14  18
BRANCH  15  20
ATOM     20  O   LIG A   1      -4.535  -4.133 132.102  0.00  0.00    -0.491 OA
ATOM     21  C   LIG A   1      -5.134  -5.148 132.902  0.00  0.00    +0.277 C 
ENDBRANCH  15  20
ENDBRANCH   7  12
BRANCH   1  23
ATOM     22  C   LIG A   1     -10.199   0.036 122.436  0.00  0.00    +0.277 C 
ATOM     23  O   LIG A   1      -9.450  -0.677 123.417  0.00  0.00    -0.494 OA
ENDBRANCH   1  23
BRANCH   3  24
ATOM     24  O   LIG A   1      -8.505   3.442 125.543  0.00  0.00    -0.491 OA
ATOM     25  C   LIG A   1      -7.348   3.980 124.918  0.00  0.00    +0.277 C 
ENDBRANCH   3  24
BRANCH   4  26
ATOM     26  O   LIG A   1      -7.888   2.096 127.996  0.00  0.00    -0.488 OA
ATOM     27  C   LIG A   1      -8.779   2.385 129.056  0.00  0.00    +0.277 C 
ENDBRANCH   4  26
TORSDOF 6
ENDMDL
MODEL 8
REMARK VINA RESULT:      -6.5      8.259     11.391
REMARK  Name = NuBBE_1580
REMARK  11 active torsions:
REMARK  status: ('A' for Active; 'I' for Inactive)
REMARK    1  A    between atoms: C_1  and  O_2
REMARK    2  A    between atoms: O_2  and  C_3
REMARK    3  A    between atoms: C_5  and  O_6
REMARK    4  A    between atoms: O_6  and  C_7
REMARK    5  A    between atoms: C_8  and  O_9
REMARK    6  A    between atoms: O_9  and  C_10
REMARK    7  A    between atoms: C_13  and  C_14
REMARK    8  A    between atoms: C_16  and  O_17
REMARK    9  A    between atoms: O_17  and  C_18
REMARK   10  A    between atoms: C_19  and  O_20
REMARK   11  A    between atoms: O_20  and  C_21
REMARK                            x       y       z     vdW  Elec       q    Type
REMARK                         _______ _______ _______ _____ _____    ______ ____
ROOT
ATOM      1  C   LIG A   1      -9.229   0.039 124.598  0.00  0.00    +0.138 A 
ATOM      2  C   LIG A   1      -9.140   1.432 124.599  0.00  0.00    +0.096 A 
ATOM      3  C   LIG A   1      -8.670   2.142 125.718  0.00  0.00    +0.169 A 
ATOM      4  C   LIG A   1      -8.215   1.446 126.853  0.00  0.00    +0.205 A 
ATOM      5  C   LIG A   1      -8.238   0.042 126.822  0.00  0.00    +0.188 A 
ATOM      6  O   LIG A   1      -7.687  -0.639 127.877  0.00  0.00    -0.451 OA
ATOM      7  C   LIG A   1      -7.363  -1.971 127.731  0.00  0.00    +0.140 A 
ATOM      8  C   LIG A   1      -7.936  -2.751 126.806  0.00  0.00    +0.098 A 
ATOM      9  C   LIG A   1      -8.789  -0.653 125.733  0.00  0.00    +0.109 A 
ATOM     10  C   LIG A   1      -8.899  -2.119 125.885  0.00  0.00    +0.197 A 
ATOM     11  O   LIG A   1      -9.758  -2.803 125.330  0.00  0.00    -0.287 OA
ENDROOT
BRANCH   7  12
ATOM     12  C   LIG A   1      -6.390  -2.457 128.730  0.00  0.00    +0.021 A 
ATOM     13  C   LIG A   1      -6.787  -2.998 129.959  0.00  0.00    +0.061 A 
ATOM     14  C   LIG A   1      -5.852  -3.499 130.881  0.00  0.00    +0.162 A 
ATOM     15  C   LIG A   1      -4.481  -3.443 130.583  0.00  0.00    +0.162 A 
ATOM     16  C   LIG A   1      -4.081  -2.942 129.343  0.00  0.00    +0.050 A 
ATOM     17  C   LIG A   1      -5.020  -2.451 128.435  0.00  0.00    +0.015 A 
BRANCH  14  18
ATOM     18  O   LIG A   1      -6.428  -3.945 132.044  0.00  0.00    -0.491 OA
ATOM     19  C   LIG A   1      -7.316  -3.050 132.700  0.00  0.00    +0.277 C 
ENDBRANCH  14  18
BRANCH  15  20
ATOM     20  O   LIG A   1      -3.576  -3.900 131.503  0.00  0.00    -0.491 OA
ATOM     21  C   LIG A   1      -3.386  -3.080 132.652  0.00  0.00    +0.277 C 
ENDBRANCH  15  20
ENDBRANCH   7  12
BRANCH   1  23
ATOM     22  C   LIG A   1     -10.167   0.073 122.417  0.00  0.00    +0.277 C 
ATOM     23  O   LIG A   1      -9.626  -0.679 123.500  0.00  0.00    -0.494 OA
ENDBRANCH   1  23
BRANCH   3  24
ATOM     24  O   LIG A   1      -8.708   3.501 125.516  0.00  0.00    -0.491 OA
ATOM     25  C   LIG A   1      -7.548   4.136 124.996  0.00  0.00    +0.277 C 
ENDBRANCH   3  24
BRANCH   4  26
ATOM     26  O   LIG A   1      -7.771   2.209 127.895  0.00  0.00    -0.488 OA
ATOM     27  C   LIG A   1      -8.603   2.545 128.989  0.00  0.00    +0.277 C 
ENDBRANCH   4  26
TORSDOF 6
ENDMDL
MODEL 9
REMARK VINA RESULT:      -6.5      6.259      8.967
REMARK  Name = NuBBE_1580
REMARK  11 active torsions:
REMARK  status: ('A' for Active; 'I' for Inactive)
REMARK    1  A    between atoms: C_1  and  O_2
REMARK    2  A    between atoms: O_2  and  C_3
REMARK    3  A    between atoms: C_5  and  O_6
REMARK    4  A    between atoms: O_6  and  C_7
REMARK    5  A    between atoms: C_8  and  O_9
REMARK    6  A    between atoms: O_9  and  C_10
REMARK    7  A    between atoms: C_13  and  C_14
REMARK    8  A    between atoms: C_16  and  O_17
REMARK    9  A    between atoms: O_17  and  C_18
REMARK   10  A    between atoms: C_19  and  O_20
REMARK   11  A    between atoms: O_20  and  C_21
REMARK                            x       y       z     vdW  Elec       q    Type
REMARK                         _______ _______ _______ _____ _____    ______ ____
ROOT
ATOM      1  C   LIG A   1      -7.003   0.211 124.260  0.00  0.00    +0.138 A 
ATOM      2  C   LIG A   1      -7.017   1.288 123.372  0.00  0.00    +0.096 A 
ATOM      3  C   LIG A   1      -7.672   2.493 123.681  0.00  0.00    +0.169 A 
ATOM      4  C   LIG A   1      -8.282   2.660 124.938  0.00  0.00    +0.205 A 
ATOM      5  C   LIG A   1      -8.205   1.602 125.858  0.00  0.00    +0.188 A 
ATOM      6  O   LIG A   1      -8.694   1.804 127.122  0.00  0.00    -0.451 OA
ATOM      7  C   LIG A   1      -8.323   0.951 128.139  0.00  0.00    +0.140 A 
ATOM      8  C   LIG A   1      -7.882  -0.292 127.908  0.00  0.00    +0.098 A 
ATOM      9  C   LIG A   1      -7.624   0.372 125.506  0.00  0.00    +0.109 A 
ATOM     10  C   LIG A   1      -7.742  -0.712 126.502  0.00  0.00    +0.197 A 
ATOM     11  O   LIG A   1      -7.772  -1.908 126.212  0.00  0.00    -0.287 OA
ENDROOT
BRANCH   7  12
ATOM     12  C   LIG A   1      -8.527   1.514 129.490  0.00  0.00    +0.021 A 
ATOM     13  C   LIG A   1      -9.038   2.802 129.694  0.00  0.00    +0.061 A 
ATOM     14  C   LIG A   1      -9.270   3.306 130.985  0.00  0.00    +0.162 A 
ATOM     15  C   LIG A   1      -8.966   2.519 132.107  0.00  0.00    +0.162 A 
ATOM     16  C   LIG A   1      -8.493   1.220 131.909  0.00  0.00    +0.050 A 
ATOM     17  C   LIG A   1      -8.271   0.729 130.622  0.00  0.00    +0.015 A 
BRANCH  14  18
ATOM     18  O   LIG A   1      -9.730   4.600 130.982  0.00  0.00    -0.491 OA
ATOM     19  C   LIG A   1      -8.752   5.624 130.866  0.00  0.00    +0.277 C 
ENDBRANCH  14  18
BRANCH  15  20
ATOM     20  O   LIG A   1      -9.161   3.034 133.359  0.00  0.00    -0.491 OA
ATOM     21  C   LIG A   1      -8.007   3.572 133.999  0.00  0.00    +0.277 C 
ENDBRANCH  15  20
ENDBRANCH   7  12
BRANCH   1  23
ATOM     22  C   LIG A   1      -6.634  -1.612 122.784  0.00  0.00    +0.277 C 
ATOM     23  O   LIG A   1      -6.322  -0.951 124.008  0.00  0.00    -0.494 OA
ENDBRANCH   1  23
BRANCH   3  24
ATOM     24  O   LIG A   1      -7.596   3.398 122.649  0.00  0.00    -0.491 OA
ATOM     25  C   LIG A   1      -8.584   3.339 121.630  0.00  0.00    +0.277 C 
ENDBRANCH   3  24
BRANCH   4  26
ATOM     26  O   LIG A   1      -8.893   3.861 125.162  0.00  0.00    -0.488 OA
ATOM     27  C   LIG A   1      -8.217   4.948 125.766  0.00  0.00    +0.277 C 
ENDBRANCH   4  26
TORSDOF 6
ENDMDL
