MODEL 1
REMARK VINA RESULT:      -7.2      0.000      0.000
REMARK  Name = NuBBE_114
REMARK  12 active torsions:
REMARK  status: ('A' for Active; 'I' for Inactive)
REMARK    1  A    between atoms: O_1  and  C_2
REMARK    2  A    between atoms: C_6  and  O_15
REMARK    3  A    between atoms: C_10  and  C_11
REMARK    4  A    between atoms: C_11  and  O_12
REMARK    5  A    between atoms: O_12  and  C_13
REMARK    6  A    between atoms: O_15  and  C_16
REMARK    7  A    between atoms: C_19  and  C_27
REMARK    8  A    between atoms: C_21  and  O_26
REMARK    9  A    between atoms: C_23  and  O_25
REMARK   10  A    between atoms: C_27  and  O_28
REMARK   11  A    between atoms: C_29  and  O_31
REMARK   12  A    between atoms: C_34  and  O_38
REMARK                            x       y       z     vdW  Elec       q    Type
REMARK                         _______ _______ _______ _____ _____    ______ ____
ROOT
ATOM      1  C   LIG A   1      -6.023   4.291 123.564  0.00  0.00    +0.156 C 
ATOM      2  C   LIG A   1      -6.804   2.943 123.573  0.00  0.00    +0.073 C 
ATOM      3  C   LIG A   1      -7.102   2.682 125.070  0.00  0.00    +0.096 C 
ATOM      4  C   LIG A   1      -8.308   1.754 125.304  0.00  0.00    +0.317 C 
ATOM      5  O   LIG A   1      -9.466   2.128 124.555  0.00  0.00    -0.470 OA
ATOM      6  C   LIG A   1      -9.258   2.600 123.293  0.00  0.00    +0.201 C 
ATOM      7  C   LIG A   1      -8.084   2.984 122.772  0.00  0.00    +0.077 C 
ATOM      8  C   LIG A   1      -6.064   4.848 124.998  0.00  0.00    +0.170 C 
ATOM      9  C   LIG A   1      -7.201   4.097 125.625  0.00  0.00    -0.036 C 
ATOM     10  C   LIG A   1      -8.175   4.614 126.390  0.00  0.00    +0.010 C 
ENDROOT
BRANCH   1  11
ATOM     11  O   LIG A   1      -4.660   4.058 123.190  0.00  0.00    -0.388 OA
ATOM     12  H   LIG A   1      -4.116   4.370 123.938  0.00  0.00    +0.210 HD
ENDBRANCH   1  11
BRANCH   7  13
ATOM     13  C   LIG A   1      -8.040   3.494 121.373  0.00  0.00    +0.338 C 
ATOM     14  O   LIG A   1      -9.025   3.821 120.743  0.00  0.00    -0.245 OA
BRANCH  13  15
ATOM     15  O   LIG A   1      -6.769   3.432 120.894  0.00  0.00    -0.465 OA
ATOM     16  C   LIG A   1      -6.457   4.362 119.856  0.00  0.00    +0.280 C 
ENDBRANCH  13  15
ENDBRANCH   7  13
BRANCH   8  17
ATOM     17  O   LIG A   1      -6.256   6.252 124.996  0.00  0.00    -0.385 OA
ATOM     18  H   LIG A   1      -5.895   6.580 125.837  0.00  0.00    +0.210 HD
ENDBRANCH   8  17
BRANCH   4  19
ATOM     19  O   LIG A   1      -7.923   0.373 125.111  0.00  0.00    -0.309 OA
BRANCH  19  20
ATOM     20  C   LIG A   1      -9.021  -0.392 124.584  0.00  0.00    +0.286 C 
ATOM     21  O   LIG A   1      -9.465  -1.375 125.524  0.00  0.00    -0.340 OA
ATOM     22  C   LIG A   1      -8.861  -2.669 125.497  0.00  0.00    +0.178 C 
ATOM     23  C   LIG A   1      -8.807  -3.247 124.078  0.00  0.00    +0.177 C 
ATOM     24  C   LIG A   1      -8.113  -2.305 123.087  0.00  0.00    +0.179 C 
ATOM     25  C   LIG A   1      -8.749  -0.910 123.143  0.00  0.00    +0.201 C 
BRANCH  24  26
ATOM     26  O   LIG A   1      -6.698  -2.278 123.235  0.00  0.00    -0.386 OA
ATOM     27  H   LIG A   1      -6.414  -1.375 123.493  0.00  0.00    +0.210 HD
ENDBRANCH  24  26
BRANCH  23  28
ATOM     28  O   LIG A   1     -10.168  -3.429 123.617  0.00  0.00    -0.387 OA
ATOM     29  H   LIG A   1     -10.618  -2.565 123.663  0.00  0.00    +0.210 HD
ENDBRANCH  23  28
BRANCH  25  30
ATOM     30  O   LIG A   1     -10.011  -0.966 122.434  0.00  0.00    -0.384 OA
ATOM     31  H   LIG A   1     -10.690  -1.228 123.095  0.00  0.00    +0.210 HD
ENDBRANCH  25  30
BRANCH  22  32
ATOM     32  C   LIG A   1      -7.541  -2.747 126.281  0.00  0.00    +0.190 C 
BRANCH  32  33
ATOM     33  O   LIG A   1      -7.422  -1.754 127.289  0.00  0.00    -0.392 OA
ATOM     34  H   LIG A   1      -8.329  -1.523 127.570  0.00  0.00    +0.209 HD
ENDBRANCH  32  33
ENDBRANCH  22  32
ENDBRANCH  19  20
ENDBRANCH   4  19
TORSDOF 11
ENDMDL
MODEL 2
REMARK VINA RESULT:      -7.1      2.098      3.837
REMARK  Name = NuBBE_114
REMARK  12 active torsions:
REMARK  status: ('A' for Active; 'I' for Inactive)
REMARK    1  A    between atoms: O_1  and  C_2
REMARK    2  A    between atoms: C_6  and  O_15
REMARK    3  A    between atoms: C_10  and  C_11
REMARK    4  A    between atoms: C_11  and  O_12
REMARK    5  A    between atoms: O_12  and  C_13
REMARK    6  A    between atoms: O_15  and  C_16
REMARK    7  A    between atoms: C_19  and  C_27
REMARK    8  A    between atoms: C_21  and  O_26
REMARK    9  A    between atoms: C_23  and  O_25
REMARK   10  A    between atoms: C_27  and  O_28
REMARK   11  A    between atoms: C_29  and  O_31
REMARK   12  A    between atoms: C_34  and  O_38
REMARK                            x       y       z     vdW  Elec       q    Type
REMARK                         _______ _______ _______ _____ _____    ______ ____
ROOT
ATOM      1  C   LIG A   1      -6.681   4.273 126.827  0.00  0.00    +0.156 C 
ATOM      2  C   LIG A   1      -6.847   2.724 126.850  0.00  0.00    +0.073 C 
ATOM      3  C   LIG A   1      -7.654   2.405 125.567  0.00  0.00    +0.096 C 
ATOM      4  C   LIG A   1      -7.468   0.961 125.068  0.00  0.00    +0.317 C 
ATOM      5  O   LIG A   1      -6.099   0.558 124.988  0.00  0.00    -0.470 OA
ATOM      6  C   LIG A   1      -5.267   1.007 125.970  0.00  0.00    +0.201 C 
ATOM      7  C   LIG A   1      -5.534   1.978 126.856  0.00  0.00    +0.077 C 
ATOM      8  C   LIG A   1      -7.212   4.766 125.470  0.00  0.00    +0.170 C 
ATOM      9  C   LIG A   1      -7.213   3.523 124.630  0.00  0.00    -0.036 C 
ATOM     10  C   LIG A   1      -6.773   3.411 123.367  0.00  0.00    +0.010 C 
ENDROOT
BRANCH   1  11
ATOM     11  O   LIG A   1      -7.460   4.859 127.877  0.00  0.00    -0.388 OA
ATOM     12  H   LIG A   1      -6.860   5.462 128.355  0.00  0.00    +0.210 HD
ENDBRANCH   1  11
BRANCH   7  13
ATOM     13  C   LIG A   1      -4.497   2.356 127.856  0.00  0.00    +0.338 C 
ATOM     14  O   LIG A   1      -4.700   2.405 129.053  0.00  0.00    -0.245 OA
BRANCH  13  15
ATOM     15  O   LIG A   1      -3.353   2.731 127.224  0.00  0.00    -0.465 OA
ATOM     16  C   LIG A   1      -2.723   3.905 127.736  0.00  0.00    +0.280 C 
ENDBRANCH  13  15
ENDBRANCH   7  13
BRANCH   8  17
ATOM     17  O   LIG A   1      -6.394   5.795 124.942  0.00  0.00    -0.385 OA
ATOM     18  H   LIG A   1      -5.676   5.354 124.457  0.00  0.00    +0.210 HD
ENDBRANCH   8  17
BRANCH   4  19
ATOM     19  O   LIG A   1      -8.287   0.054 125.841  0.00  0.00    -0.309 OA
BRANCH  19  20
ATOM     20  C   LIG A   1      -9.269  -0.585 125.006  0.00  0.00    +0.286 C 
ATOM     21  O   LIG A   1      -9.875  -1.695 125.675  0.00  0.00    -0.340 OA
ATOM     22  C   LIG A   1      -9.272  -2.984 125.543  0.00  0.00    +0.178 C 
ATOM     23  C   LIG A   1      -8.960  -3.323 124.081  0.00  0.00    +0.177 C 
ATOM     24  C   LIG A   1      -8.099  -2.252 123.401  0.00  0.00    +0.179 C 
ATOM     25  C   LIG A   1      -8.738  -0.868 123.573  0.00  0.00    +0.201 C 
BRANCH  24  26
ATOM     26  O   LIG A   1      -6.735  -2.289 123.805  0.00  0.00    -0.386 OA
ATOM     27  H   LIG A   1      -6.298  -1.447 123.556  0.00  0.00    +0.210 HD
ENDBRANCH  24  26
BRANCH  23  28
ATOM     28  O   LIG A   1     -10.213  -3.389 123.359  0.00  0.00    -0.387 OA
ATOM     29  H   LIG A   1     -10.807  -3.990 123.845  0.00  0.00    +0.210 HD
ENDBRANCH  23  28
BRANCH  25  30
ATOM     30  O   LIG A   1      -9.849  -0.771 122.648  0.00  0.00    -0.384 OA
ATOM     31  H   LIG A   1     -10.444  -1.527 122.851  0.00  0.00    +0.210 HD
ENDBRANCH  25  30
BRANCH  22  32
ATOM     32  C   LIG A   1      -8.118  -3.225 126.528  0.00  0.00    +0.190 C 
BRANCH  32  33
ATOM     33  O   LIG A   1      -8.229  -2.471 127.727  0.00  0.00    -0.392 OA
ATOM     34  H   LIG A   1      -7.615  -2.871 128.372  0.00  0.00    +0.209 HD
ENDBRANCH  32  33
ENDBRANCH  22  32
ENDBRANCH  19  20
ENDBRANCH   4  19
TORSDOF 11
ENDMDL
MODEL 3
REMARK VINA RESULT:      -6.9      1.945      2.750
REMARK  Name = NuBBE_114
REMARK  12 active torsions:
REMARK  status: ('A' for Active; 'I' for Inactive)
REMARK    1  A    between atoms: O_1  and  C_2
REMARK    2  A    between atoms: C_6  and  O_15
REMARK    3  A    between atoms: C_10  and  C_11
REMARK    4  A    between atoms: C_11  and  O_12
REMARK    5  A    between atoms: O_12  and  C_13
REMARK    6  A    between atoms: O_15  and  C_16
REMARK    7  A    between atoms: C_19  and  C_27
REMARK    8  A    between atoms: C_21  and  O_26
REMARK    9  A    between atoms: C_23  and  O_25
REMARK   10  A    between atoms: C_27  and  O_28
REMARK   11  A    between atoms: C_29  and  O_31
REMARK   12  A    between atoms: C_34  and  O_38
REMARK                            x       y       z     vdW  Elec       q    Type
REMARK                         _______ _______ _______ _____ _____    ______ ____
ROOT
ATOM      1  C   LIG A   1      -5.532   3.347 127.662  0.00  0.00    +0.156 C 
ATOM      2  C   LIG A   1      -6.204   2.596 126.473  0.00  0.00    +0.073 C 
ATOM      3  C   LIG A   1      -7.209   1.631 127.148  0.00  0.00    +0.096 C 
ATOM      4  C   LIG A   1      -8.364   1.202 126.225  0.00  0.00    +0.317 C 
ATOM      5  O   LIG A   1      -8.995   2.298 125.558  0.00  0.00    -0.470 OA
ATOM      6  C   LIG A   1      -8.187   3.313 125.141  0.00  0.00    +0.201 C 
ATOM      7  C   LIG A   1      -6.912   3.514 125.505  0.00  0.00    +0.077 C 
ATOM      8  C   LIG A   1      -6.289   2.942 128.939  0.00  0.00    +0.170 C 
ATOM      9  C   LIG A   1      -7.582   2.394 128.413  0.00  0.00    -0.036 C 
ATOM     10  C   LIG A   1      -8.811   2.655 128.883  0.00  0.00    +0.010 C 
ENDROOT
BRANCH   1  11
ATOM     11  O   LIG A   1      -4.164   2.941 127.779  0.00  0.00    -0.388 OA
ATOM     12  H   LIG A   1      -3.929   2.528 126.926  0.00  0.00    +0.210 HD
ENDBRANCH   1  11
BRANCH   7  13
ATOM     13  C   LIG A   1      -6.178   4.692 124.964  0.00  0.00    +0.338 C 
ATOM     14  O   LIG A   1      -6.506   5.844 125.167  0.00  0.00    -0.245 OA
BRANCH  13  15
ATOM     15  O   LIG A   1      -5.175   4.280 124.143  0.00  0.00    -0.465 OA
ATOM     16  C   LIG A   1      -5.482   4.279 122.749  0.00  0.00    +0.280 C 
ENDBRANCH  13  15
ENDBRANCH   7  13
BRANCH   8  17
ATOM     17  O   LIG A   1      -6.464   4.051 129.804  0.00  0.00    -0.385 OA
ATOM     18  H   LIG A   1      -7.401   4.302 129.744  0.00  0.00    +0.210 HD
ENDBRANCH   8  17
BRANCH   4  19
ATOM     19  O   LIG A   1      -7.925   0.160 125.323  0.00  0.00    -0.309 OA
BRANCH  19  20
ATOM     20  C   LIG A   1      -9.052  -0.479 124.696  0.00  0.00    +0.286 C 
ATOM     21  O   LIG A   1      -9.601  -1.500 125.536  0.00  0.00    -0.340 OA
ATOM     22  C   LIG A   1      -9.087  -2.828 125.422  0.00  0.00    +0.178 C 
ATOM     23  C   LIG A   1      -9.016  -3.291 123.963  0.00  0.00    +0.177 C 
ATOM     24  C   LIG A   1      -8.219  -2.326 123.078  0.00  0.00    +0.179 C 
ATOM     25  C   LIG A   1      -8.758  -0.898 123.228  0.00  0.00    +0.201 C 
BRANCH  24  26
ATOM     26  O   LIG A   1      -6.812  -2.413 123.277  0.00  0.00    -0.386 OA
ATOM     27  H   LIG A   1      -6.581  -3.317 123.579  0.00  0.00    +0.210 HD
ENDBRANCH  24  26
BRANCH  23  28
ATOM     28  O   LIG A   1     -10.366  -3.337 123.442  0.00  0.00    -0.387 OA
ATOM     29  H   LIG A   1     -10.734  -4.218 123.638  0.00  0.00    +0.210 HD
ENDBRANCH  23  28
BRANCH  25  30
ATOM     30  O   LIG A   1      -9.991  -0.804 122.474  0.00  0.00    -0.384 OA
ATOM     31  H   LIG A   1     -10.433   0.024 122.766  0.00  0.00    +0.210 HD
ENDBRANCH  25  30
BRANCH  22  32
ATOM     32  C   LIG A   1      -7.808  -3.064 126.242  0.00  0.00    +0.190 C 
BRANCH  32  33
ATOM     33  O   LIG A   1      -7.656  -2.158 127.326  0.00  0.00    -0.392 OA
ATOM     34  H   LIG A   1      -8.541  -1.796 127.522  0.00  0.00    +0.209 HD
ENDBRANCH  32  33
ENDBRANCH  22  32
ENDBRANCH  19  20
ENDBRANCH   4  19
TORSDOF 11
ENDMDL
MODEL 4
REMARK VINA RESULT:      -6.7      3.538      7.065
REMARK  Name = NuBBE_114
REMARK  12 active torsions:
REMARK  status: ('A' for Active; 'I' for Inactive)
REMARK    1  A    between atoms: O_1  and  C_2
REMARK    2  A    between atoms: C_6  and  O_15
REMARK    3  A    between atoms: C_10  and  C_11
REMARK    4  A    between atoms: C_11  and  O_12
REMARK    5  A    between atoms: O_12  and  C_13
REMARK    6  A    between atoms: O_15  and  C_16
REMARK    7  A    between atoms: C_19  and  C_27
REMARK    8  A    between atoms: C_21  and  O_26
REMARK    9  A    between atoms: C_23  and  O_25
REMARK   10  A    between atoms: C_27  and  O_28
REMARK   11  A    between atoms: C_29  and  O_31
REMARK   12  A    between atoms: C_34  and  O_38
REMARK                            x       y       z     vdW  Elec       q    Type
REMARK                         _______ _______ _______ _____ _____    ______ ____
ROOT
ATOM      1  C   LIG A   1      -8.977  -2.072 125.130  0.00  0.00    +0.156 C 
ATOM      2  C   LIG A   1      -8.080  -1.498 126.267  0.00  0.00    +0.073 C 
ATOM      3  C   LIG A   1      -6.863  -2.453 126.315  0.00  0.00    +0.096 C 
ATOM      4  C   LIG A   1      -5.604  -1.815 126.930  0.00  0.00    +0.317 C 
ATOM      5  O   LIG A   1      -5.293  -0.531 126.383  0.00  0.00    -0.470 OA
ATOM      6  C   LIG A   1      -6.345   0.284 126.087  0.00  0.00    +0.201 C 
ATOM      7  C   LIG A   1      -7.635  -0.075 126.021  0.00  0.00    +0.077 C 
ATOM      8  C   LIG A   1      -8.178  -3.195 124.445  0.00  0.00    +0.170 C 
ATOM      9  C   LIG A   1      -6.766  -2.917 124.867  0.00  0.00    -0.036 C 
ATOM     10  C   LIG A   1      -5.679  -2.933 124.080  0.00  0.00    +0.010 C 
ENDROOT
BRANCH   1  11
ATOM     11  O   LIG A   1     -10.175  -2.623 125.690  0.00  0.00    -0.388 OA
ATOM     12  H   LIG A   1      -9.893  -3.176 126.442  0.00  0.00    +0.210 HD
ENDBRANCH   1  11
BRANCH   7  13
ATOM     13  C   LIG A   1      -8.658   0.947 125.666  0.00  0.00    +0.338 C 
ATOM     14  O   LIG A   1      -9.651   1.167 126.330  0.00  0.00    -0.245 OA
BRANCH  13  15
ATOM     15  O   LIG A   1      -8.366   1.500 124.458  0.00  0.00    -0.465 OA
ATOM     16  C   LIG A   1      -9.491   1.887 123.670  0.00  0.00    +0.280 C 
ENDBRANCH  13  15
ENDBRANCH   7  13
BRANCH   8  17
ATOM     17  O   LIG A   1      -8.357  -3.168 123.040  0.00  0.00    -0.385 OA
ATOM     18  H   LIG A   1      -9.309  -3.050 122.886  0.00  0.00    +0.210 HD
ENDBRANCH   8  17
BRANCH   4  19
ATOM     19  O   LIG A   1      -5.696  -1.813 128.373  0.00  0.00    -0.309 OA
BRANCH  19  20
ATOM     20  C   LIG A   1      -4.625  -2.580 128.952  0.00  0.00    +0.286 C 
ATOM     21  O   LIG A   1      -5.115  -3.784 129.550  0.00  0.00    -0.340 OA
ATOM     22  C   LIG A   1      -5.516  -3.753 130.921  0.00  0.00    +0.178 C 
ATOM     23  C   LIG A   1      -4.461  -3.083 131.811  0.00  0.00    +0.177 C 
ATOM     24  C   LIG A   1      -4.090  -1.678 131.323  0.00  0.00    +0.179 C 
ATOM     25  C   LIG A   1      -3.689  -1.716 129.843  0.00  0.00    +0.201 C 
BRANCH  24  26
ATOM     26  O   LIG A   1      -5.089  -0.704 131.605  0.00  0.00    -0.386 OA
ATOM     27  H   LIG A   1      -5.936  -1.154 131.805  0.00  0.00    +0.210 HD
ENDBRANCH  24  26
BRANCH  23  28
ATOM     28  O   LIG A   1      -3.259  -3.888 131.761  0.00  0.00    -0.387 OA
ATOM     29  H   LIG A   1      -2.510  -3.296 131.562  0.00  0.00    +0.210 HD
ENDBRANCH  23  28
BRANCH  25  30
ATOM     30  O   LIG A   1      -2.350  -2.260 129.757  0.00  0.00    -0.384 OA
ATOM     31  H   LIG A   1      -2.408  -3.192 130.067  0.00  0.00    +0.210 HD
ENDBRANCH  25  30
BRANCH  22  32
ATOM     32  C   LIG A   1      -6.954  -3.253 131.130  0.00  0.00    +0.190 C 
BRANCH  32  33
ATOM     33  O   LIG A   1      -7.772  -3.384 129.975  0.00  0.00    -0.392 OA
ATOM     34  H   LIG A   1      -8.680  -3.558 130.288  0.00  0.00    +0.209 HD
ENDBRANCH  32  33
ENDBRANCH  22  32
ENDBRANCH  19  20
ENDBRANCH   4  19
TORSDOF 11
ENDMDL
MODEL 5
REMARK VINA RESULT:      -6.7      6.003      9.214
REMARK  Name = NuBBE_114
REMARK  12 active torsions:
REMARK  status: ('A' for Active; 'I' for Inactive)
REMARK    1  A    between atoms: O_1  and  C_2
REMARK    2  A    between atoms: C_6  and  O_15
REMARK    3  A    between atoms: C_10  and  C_11
REMARK    4  A    between atoms: C_11  and  O_12
REMARK    5  A    between atoms: O_12  and  C_13
REMARK    6  A    between atoms: O_15  and  C_16
REMARK    7  A    between atoms: C_19  and  C_27
REMARK    8  A    between atoms: C_21  and  O_26
REMARK    9  A    between atoms: C_23  and  O_25
REMARK   10  A    between atoms: C_27  and  O_28
REMARK   11  A    between atoms: C_29  and  O_31
REMARK   12  A    between atoms: C_34  and  O_38
REMARK                            x       y       z     vdW  Elec       q    Type
REMARK                         _______ _______ _______ _____ _____    ______ ____
ROOT
ATOM      1  C   LIG A   1      -7.855   0.695 130.799  0.00  0.00    +0.156 C 
ATOM      2  C   LIG A   1      -8.359   1.950 130.026  0.00  0.00    +0.073 C 
ATOM      3  C   LIG A   1      -9.351   2.629 131.001  0.00  0.00    +0.096 C 
ATOM      4  C   LIG A   1      -9.548   4.132 130.730  0.00  0.00    +0.317 C 
ATOM      5  O   LIG A   1      -8.320   4.849 130.585  0.00  0.00    -0.470 OA
ATOM      6  C   LIG A   1      -7.307   4.209 129.935  0.00  0.00    +0.201 C 
ATOM      7  C   LIG A   1      -7.252   2.903 129.640  0.00  0.00    +0.077 C 
ATOM      8  C   LIG A   1      -8.409   0.793 132.232  0.00  0.00    +0.170 C 
ATOM      9  C   LIG A   1      -8.779   2.241 132.358  0.00  0.00    -0.036 C 
ATOM     10  C   LIG A   1      -8.516   3.045 133.400  0.00  0.00    +0.010 C 
ENDROOT
BRANCH   1  11
ATOM     11  O   LIG A   1      -8.364  -0.492 130.180  0.00  0.00    -0.388 OA
ATOM     12  H   LIG A   1      -8.858  -0.196 129.392  0.00  0.00    +0.210 HD
ENDBRANCH   1  11
BRANCH   7  13
ATOM     13  C   LIG A   1      -6.054   2.365 128.937  0.00  0.00    +0.338 C 
ATOM     14  O   LIG A   1      -6.109   1.681 127.935  0.00  0.00    -0.245 OA
BRANCH  13  15
ATOM     15  O   LIG A   1      -4.928   2.663 129.640  0.00  0.00    -0.465 OA
ATOM     16  C   LIG A   1      -3.783   2.997 128.855  0.00  0.00    +0.280 C 
ENDBRANCH  13  15
ENDBRANCH   7  13
BRANCH   8  17
ATOM     17  O   LIG A   1      -7.445   0.378 133.184  0.00  0.00    -0.385 OA
ATOM     18  H   LIG A   1      -7.770   0.673 134.051  0.00  0.00    +0.210 HD
ENDBRANCH   8  17
BRANCH   4  19
ATOM     19  O   LIG A   1     -10.458   4.327 129.623  0.00  0.00    -0.309 OA
BRANCH  19  20
ATOM     20  C   LIG A   1     -11.539   5.199 129.999  0.00  0.00    +0.286 C 
ATOM     21  O   LIG A   1     -12.195   5.737 128.847  0.00  0.00    -0.340 OA
ATOM     22  C   LIG A   1     -11.713   6.964 128.297  0.00  0.00    +0.178 C 
ATOM     23  C   LIG A   1     -11.518   8.037 129.375  0.00  0.00    +0.177 C 
ATOM     24  C   LIG A   1     -10.612   7.564 130.517  0.00  0.00    +0.179 C 
ATOM     25  C   LIG A   1     -11.121   6.232 131.083  0.00  0.00    +0.201 C 
BRANCH  24  26
ATOM     26  O   LIG A   1      -9.234   7.529 130.163  0.00  0.00    -0.386 OA
ATOM     27  H   LIG A   1      -8.740   7.000 130.825  0.00  0.00    +0.210 HD
ENDBRANCH  24  26
BRANCH  23  28
ATOM     28  O   LIG A   1     -12.814   8.336 129.948  0.00  0.00    -0.387 OA
ATOM     29  H   LIG A   1     -12.670   8.687 130.846  0.00  0.00    +0.210 HD
ENDBRANCH  23  28
BRANCH  25  30
ATOM     30  O   LIG A   1     -12.273   6.511 131.915  0.00  0.00    -0.384 OA
ATOM     31  H   LIG A   1     -12.872   7.077 131.379  0.00  0.00    +0.210 HD
ENDBRANCH  25  30
BRANCH  22  32
ATOM     32  C   LIG A   1     -10.526   6.782 127.338  0.00  0.00    +0.190 C 
BRANCH  32  33
ATOM     33  O   LIG A   1      -9.441   6.066 127.910  0.00  0.00    -0.392 OA
ATOM     34  H   LIG A   1      -9.687   5.865 128.834  0.00  0.00    +0.209 HD
ENDBRANCH  32  33
ENDBRANCH  22  32
ENDBRANCH  19  20
ENDBRANCH   4  19
TORSDOF 11
ENDMDL
MODEL 6
REMARK VINA RESULT:      -6.6      2.192      6.935
REMARK  Name = NuBBE_114
REMARK  12 active torsions:
REMARK  status: ('A' for Active; 'I' for Inactive)
REMARK    1  A    between atoms: O_1  and  C_2
REMARK    2  A    between atoms: C_6  and  O_15
REMARK    3  A    between atoms: C_10  and  C_11
REMARK    4  A    between atoms: C_11  and  O_12
REMARK    5  A    between atoms: O_12  and  C_13
REMARK    6  A    between atoms: O_15  and  C_16
REMARK    7  A    between atoms: C_19  and  C_27
REMARK    8  A    between atoms: C_21  and  O_26
REMARK    9  A    between atoms: C_23  and  O_25
REMARK   10  A    between atoms: C_27  and  O_28
REMARK   11  A    between atoms: C_29  and  O_31
REMARK   12  A    between atoms: C_34  and  O_38
REMARK                            x       y       z     vdW  Elec       q    Type
REMARK                         _______ _______ _______ _____ _____    ______ ____
ROOT
ATOM      1  C   LIG A   1      -8.525  -2.470 124.776  0.00  0.00    +0.156 C 
ATOM      2  C   LIG A   1      -7.459  -1.334 124.807  0.00  0.00    +0.073 C 
ATOM      3  C   LIG A   1      -7.661  -0.656 126.184  0.00  0.00    +0.096 C 
ATOM      4  C   LIG A   1      -6.414   0.092 126.689  0.00  0.00    +0.317 C 
ATOM      5  O   LIG A   1      -5.215  -0.683 126.611  0.00  0.00    -0.470 OA
ATOM      6  C   LIG A   1      -5.077  -1.497 125.526  0.00  0.00    +0.201 C 
ATOM      7  C   LIG A   1      -6.042  -1.835 124.659  0.00  0.00    +0.077 C 
ATOM      8  C   LIG A   1      -9.159  -2.535 126.177  0.00  0.00    +0.170 C 
ATOM      9  C   LIG A   1      -8.164  -1.814 127.037  0.00  0.00    -0.036 C 
ATOM     10  C   LIG A   1      -7.715  -2.205 128.240  0.00  0.00    +0.010 C 
ENDROOT
BRANCH   1  11
ATOM     11  O   LIG A   1      -9.541  -2.155 123.816  0.00  0.00    -0.388 OA
ATOM     12  H   LIG A   1     -10.372  -2.524 124.170  0.00  0.00    +0.210 HD
ENDBRANCH   1  11
BRANCH   7  13
ATOM     13  C   LIG A   1      -5.719  -2.754 123.533  0.00  0.00    +0.338 C 
ATOM     14  O   LIG A   1      -5.768  -2.432 122.362  0.00  0.00    -0.245 OA
BRANCH  13  15
ATOM     15  O   LIG A   1      -5.474  -4.005 124.007  0.00  0.00    -0.465 OA
ATOM     16  C   LIG A   1      -4.289  -4.629 123.513  0.00  0.00    +0.280 C 
ENDBRANCH  13  15
ENDBRANCH   7  13
BRANCH   8  17
ATOM     17  O   LIG A   1      -9.376  -3.876 126.579  0.00  0.00    -0.385 OA
ATOM     18  H   LIG A   1     -10.324  -3.953 126.783  0.00  0.00    +0.210 HD
ENDBRANCH   8  17
BRANCH   4  19
ATOM     19  O   LIG A   1      -6.304   1.380 126.040  0.00  0.00    -0.309 OA
BRANCH  19  20
ATOM     20  C   LIG A   1      -7.481   2.173 126.280  0.00  0.00    +0.286 C 
ATOM     21  O   LIG A   1      -8.113   2.546 125.051  0.00  0.00    -0.340 OA
ATOM     22  C   LIG A   1      -7.712   3.763 124.419  0.00  0.00    +0.178 C 
ATOM     23  C   LIG A   1      -7.681   4.938 125.404  0.00  0.00    +0.177 C 
ATOM     24  C   LIG A   1      -6.806   4.651 126.630  0.00  0.00    +0.179 C 
ATOM     25  C   LIG A   1      -7.224   3.329 127.286  0.00  0.00    +0.201 C 
BRANCH  24  26
ATOM     26  O   LIG A   1      -5.411   4.719 126.353  0.00  0.00    -0.386 OA
ATOM     27  H   LIG A   1      -5.129   3.899 125.897  0.00  0.00    +0.210 HD
ENDBRANCH  24  26
BRANCH  23  28
ATOM     28  O   LIG A   1      -9.030   5.158 125.880  0.00  0.00    -0.387 OA
ATOM     29  H   LIG A   1      -9.619   5.195 125.104  0.00  0.00    +0.210 HD
ENDBRANCH  23  28
BRANCH  25  30
ATOM     30  O   LIG A   1      -8.445   3.566 128.029  0.00  0.00    -0.384 OA
ATOM     31  H   LIG A   1      -8.648   4.523 127.932  0.00  0.00    +0.210 HD
ENDBRANCH  25  30
BRANCH  22  32
ATOM     32  C   LIG A   1      -6.457   3.616 123.543  0.00  0.00    +0.190 C 
BRANCH  32  33
ATOM     33  O   LIG A   1      -5.763   4.838 123.338  0.00  0.00    -0.392 OA
ATOM     34  H   LIG A   1      -6.349   5.554 123.652  0.00  0.00    +0.209 HD
ENDBRANCH  32  33
ENDBRANCH  22  32
ENDBRANCH  19  20
ENDBRANCH   4  19
TORSDOF 11
ENDMDL
MODEL 7
REMARK VINA RESULT:      -6.6      4.588      7.147
REMARK  Name = NuBBE_114
REMARK  12 active torsions:
REMARK  status: ('A' for Active; 'I' for Inactive)
REMARK    1  A    between atoms: O_1  and  C_2
REMARK    2  A    between atoms: C_6  and  O_15
REMARK    3  A    between atoms: C_10  and  C_11
REMARK    4  A    between atoms: C_11  and  O_12
REMARK    5  A    between atoms: O_12  and  C_13
REMARK    6  A    between atoms: O_15  and  C_16
REMARK    7  A    between atoms: C_19  and  C_27
REMARK    8  A    between atoms: C_21  and  O_26
REMARK    9  A    between atoms: C_23  and  O_25
REMARK   10  A    between atoms: C_27  and  O_28
REMARK   11  A    between atoms: C_29  and  O_31
REMARK   12  A    between atoms: C_34  and  O_38
REMARK                            x       y       z     vdW  Elec       q    Type
REMARK                         _______ _______ _______ _____ _____    ______ ____
ROOT
ATOM      1  C   LIG A   1      -8.553   6.472 131.075  0.00  0.00    +0.156 C 
ATOM      2  C   LIG A   1      -9.172   5.467 130.057  0.00  0.00    +0.073 C 
ATOM      3  C   LIG A   1      -8.199   4.264 130.065  0.00  0.00    +0.096 C 
ATOM      4  C   LIG A   1      -8.847   2.946 129.603  0.00  0.00    +0.317 C 
ATOM      5  O   LIG A   1     -10.093   2.669 130.247  0.00  0.00    -0.470 OA
ATOM      6  C   LIG A   1     -10.910   3.732 130.491  0.00  0.00    +0.201 C 
ATOM      7  C   LIG A   1     -10.571   5.028 130.421  0.00  0.00    +0.077 C 
ATOM      8  C   LIG A   1      -7.380   5.753 131.764  0.00  0.00    +0.170 C 
ATOM      9  C   LIG A   1      -7.655   4.305 131.488  0.00  0.00    -0.036 C 
ATOM     10  C   LIG A   1      -7.576   3.294 132.367  0.00  0.00    +0.010 C 
ENDROOT
BRANCH   1  11
ATOM     11  O   LIG A   1      -8.056   7.621 130.379  0.00  0.00    -0.388 OA
ATOM     12  H   LIG A   1      -8.470   7.604 129.496  0.00  0.00    +0.210 HD
ENDBRANCH   1  11
BRANCH   7  13
ATOM     13  C   LIG A   1     -11.590   6.065 130.740  0.00  0.00    +0.338 C 
ATOM     14  O   LIG A   1     -12.053   6.239 131.849  0.00  0.00    -0.245 OA
BRANCH  13  15
ATOM     15  O   LIG A   1     -11.988   6.694 129.601  0.00  0.00    -0.465 OA
ATOM     16  C   LIG A   1     -11.990   8.121 129.655  0.00  0.00    +0.280 C 
ENDBRANCH  13  15
ENDBRANCH   7  13
BRANCH   8  17
ATOM     17  O   LIG A   1      -7.334   6.058 133.147  0.00  0.00    -0.385 OA
ATOM     18  H   LIG A   1      -7.183   7.016 133.213  0.00  0.00    +0.210 HD
ENDBRANCH   8  17
BRANCH   4  19
ATOM     19  O   LIG A   1      -8.929   2.907 128.159  0.00  0.00    -0.309 OA
BRANCH  19  20
ATOM     20  C   LIG A   1      -8.088   1.866 127.630  0.00  0.00    +0.286 C 
ATOM     21  O   LIG A   1      -6.834   2.391 127.183  0.00  0.00    -0.340 OA
ATOM     22  C   LIG A   1      -6.723   2.840 125.832  0.00  0.00    +0.178 C 
ATOM     23  C   LIG A   1      -7.277   1.811 124.839  0.00  0.00    +0.177 C 
ATOM     24  C   LIG A   1      -8.721   1.406 125.158  0.00  0.00    +0.179 C 
ATOM     25  C   LIG A   1      -8.836   0.953 126.619  0.00  0.00    +0.201 C 
BRANCH  24  26
ATOM     26  O   LIG A   1      -9.674   2.403 124.807  0.00  0.00    -0.386 OA
ATOM     27  H   LIG A   1      -9.945   2.893 125.612  0.00  0.00    +0.210 HD
ENDBRANCH  24  26
BRANCH  23  28
ATOM     28  O   LIG A   1      -6.464   0.616 124.933  0.00  0.00    -0.387 OA
ATOM     29  H   LIG A   1      -5.585   0.878 125.263  0.00  0.00    +0.210 HD
ENDBRANCH  23  28
BRANCH  25  30
ATOM     30  O   LIG A   1      -8.285  -0.383 126.717  0.00  0.00    -0.384 OA
ATOM     31  H   LIG A   1      -7.469  -0.387 126.168  0.00  0.00    +0.210 HD
ENDBRANCH  25  30
BRANCH  22  32
ATOM     32  C   LIG A   1      -7.219   4.279 125.620  0.00  0.00    +0.190 C 
BRANCH  32  33
ATOM     33  O   LIG A   1      -7.822   4.490 124.352  0.00  0.00    -0.392 OA
ATOM     34  H   LIG A   1      -8.786   4.540 124.500  0.00  0.00    +0.209 HD
ENDBRANCH  32  33
ENDBRANCH  22  32
ENDBRANCH  19  20
ENDBRANCH   4  19
TORSDOF 11
ENDMDL
MODEL 8
REMARK VINA RESULT:      -6.6      7.571     10.323
REMARK  Name = NuBBE_114
REMARK  12 active torsions:
REMARK  status: ('A' for Active; 'I' for Inactive)
REMARK    1  A    between atoms: O_1  and  C_2
REMARK    2  A    between atoms: C_6  and  O_15
REMARK    3  A    between atoms: C_10  and  C_11
REMARK    4  A    between atoms: C_11  and  O_12
REMARK    5  A    between atoms: O_12  and  C_13
REMARK    6  A    between atoms: O_15  and  C_16
REMARK    7  A    between atoms: C_19  and  C_27
REMARK    8  A    between atoms: C_21  and  O_26
REMARK    9  A    between atoms: C_23  and  O_25
REMARK   10  A    between atoms: C_27  and  O_28
REMARK   11  A    between atoms: C_29  and  O_31
REMARK   12  A    between atoms: C_34  and  O_38
REMARK                            x       y       z     vdW  Elec       q    Type
REMARK                         _______ _______ _______ _____ _____    ______ ____
ROOT
ATOM      1  C   LIG A   1      -3.268   7.969 129.652  0.00  0.00    +0.156 C 
ATOM      2  C   LIG A   1      -4.078   7.593 130.929  0.00  0.00    +0.073 C 
ATOM      3  C   LIG A   1      -4.775   6.260 130.562  0.00  0.00    +0.096 C 
ATOM      4  C   LIG A   1      -5.160   5.411 131.787  0.00  0.00    +0.317 C 
ATOM      5  O   LIG A   1      -4.094   5.251 132.725  0.00  0.00    -0.470 OA
ATOM      6  C   LIG A   1      -3.280   6.326 132.923  0.00  0.00    +0.201 C 
ATOM      7  C   LIG A   1      -3.218   7.426 132.159  0.00  0.00    +0.077 C 
ATOM      8  C   LIG A   1      -3.365   6.775 128.686  0.00  0.00    +0.170 C 
ATOM      9  C   LIG A   1      -3.788   5.646 129.578  0.00  0.00    -0.036 C 
ATOM     10  C   LIG A   1      -3.283   4.402 129.588  0.00  0.00    +0.010 C 
ENDROOT
BRANCH   1  11
ATOM     11  O   LIG A   1      -3.848   9.122 129.032  0.00  0.00    -0.388 OA
ATOM     12  H   LIG A   1      -4.558   9.424 129.631  0.00  0.00    +0.210 HD
ENDBRANCH   1  11
BRANCH   7  13
ATOM     13  C   LIG A   1      -2.253   8.504 132.513  0.00  0.00    +0.338 C 
ATOM     14  O   LIG A   1      -2.535   9.686 132.524  0.00  0.00    -0.245 OA
BRANCH  13  15
ATOM     15  O   LIG A   1      -1.015   7.977 132.709  0.00  0.00    -0.465 OA
ATOM     16  C   LIG A   1      -0.085   8.823 133.384  0.00  0.00    +0.280 C 
ENDBRANCH  13  15
ENDBRANCH   7  13
BRANCH   8  17
ATOM     17  O   LIG A   1      -2.128   6.539 128.037  0.00  0.00    -0.385 OA
ATOM     18  H   LIG A   1      -1.437   6.653 128.711  0.00  0.00    +0.210 HD
ENDBRANCH   8  17
BRANCH   4  19
ATOM     19  O   LIG A   1      -6.377   5.916 132.385  0.00  0.00    -0.309 OA
BRANCH  19  20
ATOM     20  C   LIG A   1      -7.174   4.837 132.906  0.00  0.00    +0.286 C 
ATOM     21  O   LIG A   1      -7.336   3.799 131.935  0.00  0.00    -0.340 OA
ATOM     22  C   LIG A   1      -8.445   3.869 131.037  0.00  0.00    +0.178 C 
ATOM     23  C   LIG A   1      -9.761   4.148 131.773  0.00  0.00    +0.177 C 
ATOM     24  C   LIG A   1      -9.690   5.408 132.645  0.00  0.00    +0.179 C 
ATOM     25  C   LIG A   1      -8.480   5.337 133.585  0.00  0.00    +0.201 C 
BRANCH  24  26
ATOM     26  O   LIG A   1      -9.740   6.615 131.892  0.00  0.00    -0.386 OA
ATOM     27  H   LIG A   1      -9.752   7.381 132.504  0.00  0.00    +0.210 HD
ENDBRANCH  24  26
BRANCH  23  28
ATOM     28  O   LIG A   1     -10.027   3.030 132.654  0.00  0.00    -0.387 OA
ATOM     29  H   LIG A   1      -9.974   3.353 133.572  0.00  0.00    +0.210 HD
ENDBRANCH  23  28
BRANCH  25  30
ATOM     30  O   LIG A   1      -8.807   4.429 134.665  0.00  0.00    -0.384 OA
ATOM     31  H   LIG A   1      -7.976   4.291 135.173  0.00  0.00    +0.210 HD
ENDBRANCH  25  30
BRANCH  22  32
ATOM     32  C   LIG A   1      -8.186   4.756 129.810  0.00  0.00    +0.190 C 
BRANCH  32  33
ATOM     33  O   LIG A   1      -9.373   5.158 129.141  0.00  0.00    -0.392 OA
ATOM     34  H   LIG A   1      -9.891   5.690 129.775  0.00  0.00    +0.209 HD
ENDBRANCH  32  33
ENDBRANCH  22  32
ENDBRANCH  19  20
ENDBRANCH   4  19
TORSDOF 11
ENDMDL
MODEL 9
REMARK VINA RESULT:      -6.5      4.484      7.596
REMARK  Name = NuBBE_114
REMARK  12 active torsions:
REMARK  status: ('A' for Active; 'I' for Inactive)
REMARK    1  A    between atoms: O_1  and  C_2
REMARK    2  A    between atoms: C_6  and  O_15
REMARK    3  A    between atoms: C_10  and  C_11
REMARK    4  A    between atoms: C_11  and  O_12
REMARK    5  A    between atoms: O_12  and  C_13
REMARK    6  A    between atoms: O_15  and  C_16
REMARK    7  A    between atoms: C_19  and  C_27
REMARK    8  A    between atoms: C_21  and  O_26
REMARK    9  A    between atoms: C_23  and  O_25
REMARK   10  A    between atoms: C_27  and  O_28
REMARK   11  A    between atoms: C_29  and  O_31
REMARK   12  A    between atoms: C_34  and  O_38
REMARK                            x       y       z     vdW  Elec       q    Type
REMARK                         _______ _______ _______ _____ _____    ______ ____
ROOT
ATOM      1  C   LIG A   1      -9.967   4.302 131.323  0.00  0.00    +0.156 C 
ATOM      2  C   LIG A   1      -8.818   3.616 130.525  0.00  0.00    +0.073 C 
ATOM      3  C   LIG A   1      -8.145   4.774 129.748  0.00  0.00    +0.096 C 
ATOM      4  C   LIG A   1      -6.688   4.481 129.348  0.00  0.00    +0.317 C 
ATOM      5  O   LIG A   1      -5.891   3.987 130.426  0.00  0.00    -0.470 OA
ATOM      6  C   LIG A   1      -6.497   3.135 131.301  0.00  0.00    +0.201 C 
ATOM      7  C   LIG A   1      -7.815   2.907 131.404  0.00  0.00    +0.077 C 
ATOM      8  C   LIG A   1      -9.802   5.821 131.139  0.00  0.00    +0.170 C 
ATOM      9  C   LIG A   1      -8.382   5.958 130.677  0.00  0.00    -0.036 C 
ATOM     10  C   LIG A   1      -7.481   6.852 131.115  0.00  0.00    +0.010 C 
ENDROOT
BRANCH   1  11
ATOM     11  O   LIG A   1     -11.234   3.900 130.790  0.00  0.00    -0.388 OA
ATOM     12  H   LIG A   1     -11.184   4.051 129.828  0.00  0.00    +0.210 HD
ENDBRANCH   1  11
BRANCH   7  13
ATOM     13  C   LIG A   1      -8.310   1.952 132.433  0.00  0.00    +0.338 C 
ATOM     14  O   LIG A   1      -7.941   1.955 133.591  0.00  0.00    -0.245 OA
BRANCH  13  15
ATOM     15  O   LIG A   1      -9.134   1.034 131.860  0.00  0.00    -0.465 OA
ATOM     16  C   LIG A   1      -8.602  -0.286 131.748  0.00  0.00    +0.280 C 
ENDBRANCH  13  15
ENDBRANCH   7  13
BRANCH   8  17
ATOM     17  O   LIG A   1     -10.066   6.515 132.346  0.00  0.00    -0.385 OA
ATOM     18  H   LIG A   1      -9.217   6.883 132.643  0.00  0.00    +0.210 HD
ENDBRANCH   8  17
BRANCH   4  19
ATOM     19  O   LIG A   1      -6.651   3.635 128.175  0.00  0.00    -0.309 OA
BRANCH  19  20
ATOM     20  C   LIG A   1      -7.819   3.842 127.361  0.00  0.00    +0.286 C 
ATOM     21  O   LIG A   1      -8.546   2.622 127.180  0.00  0.00    -0.340 OA
ATOM     22  C   LIG A   1      -8.213   1.786 126.072  0.00  0.00    +0.178 C 
ATOM     23  C   LIG A   1      -8.129   2.578 124.761  0.00  0.00    +0.177 C 
ATOM     24  C   LIG A   1      -7.161   3.763 124.854  0.00  0.00    +0.179 C 
ATOM     25  C   LIG A   1      -7.508   4.640 126.064  0.00  0.00    +0.201 C 
BRANCH  24  26
ATOM     26  O   LIG A   1      -5.792   3.374 124.822  0.00  0.00    -0.386 OA
ATOM     27  H   LIG A   1      -5.729   2.421 124.602  0.00  0.00    +0.210 HD
ENDBRANCH  24  26
BRANCH  23  28
ATOM     28  O   LIG A   1      -9.443   3.116 124.479  0.00  0.00    -0.387 OA
ATOM     29  H   LIG A   1      -9.675   3.732 125.197  0.00  0.00    +0.210 HD
ENDBRANCH  23  28
BRANCH  25  30
ATOM     30  O   LIG A   1      -8.673   5.429 125.724  0.00  0.00    -0.384 OA
ATOM     31  H   LIG A   1      -8.543   5.732 124.798  0.00  0.00    +0.210 HD
ENDBRANCH  25  30
BRANCH  22  32
ATOM     32  C   LIG A   1      -7.025   0.850 126.343  0.00  0.00    +0.190 C 
BRANCH  32  33
ATOM     33  O   LIG A   1      -6.369   0.409 125.163  0.00  0.00    -0.392 OA
ATOM     34  H   LIG A   1      -5.718   1.097 124.925  0.00  0.00    +0.209 HD
ENDBRANCH  32  33
ENDBRANCH  22  32
ENDBRANCH  19  20
ENDBRANCH   4  19
TORSDOF 11
ENDMDL
