MODEL 1
REMARK VINA RESULT:      -6.1      0.000      0.000
REMARK  Name = NuBBE_1953
REMARK  11 active torsions:
REMARK  status: ('A' for Active; 'I' for Inactive)
REMARK    1  A    between atoms: O_1  and  C_2
REMARK    2  A    between atoms: O_1  and  C_3
REMARK    3  A    between atoms: C_6  and  O_7
REMARK    4  A    between atoms: O_7  and  C_8
REMARK    5  A    between atoms: N_12  and  C_23
REMARK    6  A    between atoms: C_15  and  C_16
REMARK    7  A    between atoms: C_16  and  C_17
REMARK    8  A    between atoms: C_17  and  C_18
REMARK    9  A    between atoms: C_17  and  O_21
REMARK   10  A    between atoms: C_18  and  C_20
REMARK   11  A    between atoms: O_21  and  C_22
REMARK                            x       y       z     vdW  Elec       q    Type
REMARK                         _______ _______ _______ _____ _____    ______ ____
ROOT
ATOM      1  C   LIG A   1      -7.293   1.115 125.561  0.00  0.00    +0.138 A 
ATOM      2  C   LIG A   1      -6.880   2.336 124.824  0.00  0.00    +0.044 A 
ATOM      3  C   LIG A   1      -7.366   2.547 123.518  0.00  0.00    +0.097 A 
ATOM      4  C   LIG A   1      -6.673   3.469 122.686  0.00  0.00    +0.144 A 
ATOM      5  C   LIG A   1      -5.577   4.184 123.197  0.00  0.00    +0.048 A 
ATOM      6  C   LIG A   1      -5.284   4.147 124.542  0.00  0.00    +0.004 A 
ATOM      7  C   LIG A   1      -5.995   3.282 125.349  0.00  0.00    +0.014 A 
ATOM      8  N   LIG A   1      -8.613   1.912 123.198  0.00  0.00    -0.308 N 
ATOM      9  C   LIG A   1      -9.271   1.074 124.114  0.00  0.00    +0.258 A 
ATOM     10  O   LIG A   1     -10.441   0.778 124.023  0.00  0.00    -0.267 OA
ATOM     11  C   LIG A   1      -8.417   0.468 125.204  0.00  0.00    +0.062 A 
ATOM     12  C   LIG A   1      -9.388   2.337 122.040  0.00  0.00    +0.152 C 
ENDROOT
BRANCH   1  13
ATOM     13  O   LIG A   1      -6.461   0.525 126.496  0.00  0.00    -0.494 OA
ATOM     14  C   LIG A   1      -5.263  -0.171 126.195  0.00  0.00    +0.277 C 
ENDBRANCH   1  13
BRANCH   4  15
ATOM     15  O   LIG A   1      -7.035   3.610 121.368  0.00  0.00    -0.493 OA
ATOM     16  C   LIG A   1      -5.997   4.076 120.503  0.00  0.00    +0.277 C 
ENDBRANCH   4  15
BRANCH  11  17
ATOM     17  C   LIG A   1      -9.003  -0.794 125.852  0.00  0.00    +0.080 C 
BRANCH  17  18
ATOM     18  C   LIG A   1      -8.654  -2.244 125.362  0.00  0.00    +0.148 C 
BRANCH  18  19
ATOM     19  C   LIG A   1      -8.184  -2.410 123.915  0.00  0.00    -0.051 C 
ATOM     20  C   LIG A   1      -9.006  -2.399 122.848  0.00  0.00    +0.010 C 
ATOM     21  C   LIG A   1      -6.696  -2.471 123.668  0.00  0.00    +0.041 C 
ENDBRANCH  18  19
BRANCH  18  22
ATOM     22  O   LIG A   1      -7.626  -2.700 126.291  0.00  0.00    -0.375 OA
ATOM     23  C   LIG A   1      -7.888  -2.498 127.675  0.00  0.00    +0.194 C 
ENDBRANCH  18  22
ENDBRANCH  17  18
ENDBRANCH  11  17
TORSDOF 6
ENDMDL
MODEL 2
REMARK VINA RESULT:      -5.9      2.069      6.425
REMARK  Name = NuBBE_1953
REMARK  11 active torsions:
REMARK  status: ('A' for Active; 'I' for Inactive)
REMARK    1  A    between atoms: O_1  and  C_2
REMARK    2  A    between atoms: O_1  and  C_3
REMARK    3  A    between atoms: C_6  and  O_7
REMARK    4  A    between atoms: O_7  and  C_8
REMARK    5  A    between atoms: N_12  and  C_23
REMARK    6  A    between atoms: C_15  and  C_16
REMARK    7  A    between atoms: C_16  and  C_17
REMARK    8  A    between atoms: C_17  and  C_18
REMARK    9  A    between atoms: C_17  and  O_21
REMARK   10  A    between atoms: C_18  and  C_20
REMARK   11  A    between atoms: O_21  and  C_22
REMARK                            x       y       z     vdW  Elec       q    Type
REMARK                         _______ _______ _______ _____ _____    ______ ____
ROOT
ATOM      1  C   LIG A   1      -8.508  -0.375 124.874  0.00  0.00    +0.138 A 
ATOM      2  C   LIG A   1      -8.653  -1.337 125.997  0.00  0.00    +0.044 A 
ATOM      3  C   LIG A   1      -8.146  -0.993 127.265  0.00  0.00    +0.097 A 
ATOM      4  C   LIG A   1      -7.922  -2.037 128.203  0.00  0.00    +0.144 A 
ATOM      5  C   LIG A   1      -8.266  -3.359 127.873  0.00  0.00    +0.048 A 
ATOM      6  C   LIG A   1      -8.989  -3.628 126.732  0.00  0.00    +0.004 A 
ATOM      7  C   LIG A   1      -9.240  -2.596 125.851  0.00  0.00    +0.014 A 
ATOM      8  N   LIG A   1      -8.040   0.412 127.543  0.00  0.00    -0.308 N 
ATOM      9  C   LIG A   1      -8.357   1.381 126.577  0.00  0.00    +0.258 A 
ATOM     10  O   LIG A   1      -8.586   2.539 126.847  0.00  0.00    -0.267 OA
ATOM     11  C   LIG A   1      -8.320   0.931 125.135  0.00  0.00    +0.062 A 
ATOM     12  C   LIG A   1      -7.885   0.890 128.910  0.00  0.00    +0.152 C 
ENDROOT
BRANCH   1  13
ATOM     13  O   LIG A   1      -8.389  -0.811 123.566  0.00  0.00    -0.494 OA
ATOM     14  C   LIG A   1      -7.229  -1.405 123.009  0.00  0.00    +0.277 C 
ENDBRANCH   1  13
BRANCH   4  15
ATOM     15  O   LIG A   1      -7.311  -1.762 129.404  0.00  0.00    -0.493 OA
ATOM     16  C   LIG A   1      -7.515  -2.743 130.424  0.00  0.00    +0.277 C 
ENDBRANCH   4  15
BRANCH  11  17
ATOM     17  C   LIG A   1      -8.161   2.064 124.112  0.00  0.00    +0.080 C 
BRANCH  17  18
ATOM     18  C   LIG A   1      -6.814   2.353 123.361  0.00  0.00    +0.148 C 
BRANCH  18  19
ATOM     19  C   LIG A   1      -6.889   3.115 122.036  0.00  0.00    -0.051 C 
ATOM     20  C   LIG A   1      -5.821   3.402 121.267  0.00  0.00    +0.010 C 
ATOM     21  C   LIG A   1      -8.261   3.460 121.507  0.00  0.00    +0.041 C 
ENDBRANCH  18  19
BRANCH  18  22
ATOM     22  O   LIG A   1      -6.012   3.090 124.331  0.00  0.00    -0.375 OA
ATOM     23  C   LIG A   1      -6.513   4.359 124.735  0.00  0.00    +0.194 C 
ENDBRANCH  18  22
ENDBRANCH  17  18
ENDBRANCH  11  17
TORSDOF 6
ENDMDL
MODEL 3
REMARK VINA RESULT:      -5.9      2.216      6.454
REMARK  Name = NuBBE_1953
REMARK  11 active torsions:
REMARK  status: ('A' for Active; 'I' for Inactive)
REMARK    1  A    between atoms: O_1  and  C_2
REMARK    2  A    between atoms: O_1  and  C_3
REMARK    3  A    between atoms: C_6  and  O_7
REMARK    4  A    between atoms: O_7  and  C_8
REMARK    5  A    between atoms: N_12  and  C_23
REMARK    6  A    between atoms: C_15  and  C_16
REMARK    7  A    between atoms: C_16  and  C_17
REMARK    8  A    between atoms: C_17  and  C_18
REMARK    9  A    between atoms: C_17  and  O_21
REMARK   10  A    between atoms: C_18  and  C_20
REMARK   11  A    between atoms: O_21  and  C_22
REMARK                            x       y       z     vdW  Elec       q    Type
REMARK                         _______ _______ _______ _____ _____    ______ ____
ROOT
ATOM      1  C   LIG A   1      -7.771  -1.358 125.385  0.00  0.00    +0.138 A 
ATOM      2  C   LIG A   1      -8.191  -2.004 126.655  0.00  0.00    +0.044 A 
ATOM      3  C   LIG A   1      -7.825  -1.412 127.880  0.00  0.00    +0.097 A 
ATOM      4  C   LIG A   1      -7.867  -2.217 129.052  0.00  0.00    +0.144 A 
ATOM      5  C   LIG A   1      -8.327  -3.542 128.973  0.00  0.00    +0.048 A 
ATOM      6  C   LIG A   1      -8.914  -4.010 127.819  0.00  0.00    +0.004 A 
ATOM      7  C   LIG A   1      -8.908  -3.202 126.700  0.00  0.00    +0.014 A 
ATOM      8  N   LIG A   1      -7.579   0.002 127.850  0.00  0.00    -0.308 N 
ATOM      9  C   LIG A   1      -7.635   0.735 126.652  0.00  0.00    +0.258 A 
ATOM     10  O   LIG A   1      -7.750   1.939 126.615  0.00  0.00    -0.267 OA
ATOM     11  C   LIG A   1      -7.456  -0.050 125.374  0.00  0.00    +0.062 A 
ATOM     12  C   LIG A   1      -7.555   0.778 129.082  0.00  0.00    +0.152 C 
ENDROOT
BRANCH   1  13
ATOM     13  O   LIG A   1      -7.529  -2.105 124.245  0.00  0.00    -0.494 OA
ATOM     14  C   LIG A   1      -6.386  -2.914 124.030  0.00  0.00    +0.277 C 
ENDBRANCH   1  13
BRANCH   4  15
ATOM     15  O   LIG A   1      -7.398  -1.718 130.244  0.00  0.00    -0.493 OA
ATOM     16  C   LIG A   1      -7.306  -2.673 131.303  0.00  0.00    +0.277 C 
ENDBRANCH   4  15
BRANCH  11  17
ATOM     17  C   LIG A   1      -7.015   0.784 124.164  0.00  0.00    +0.080 C 
BRANCH  17  18
ATOM     18  C   LIG A   1      -8.031   1.405 123.140  0.00  0.00    +0.148 C 
BRANCH  18  19
ATOM     19  C   LIG A   1      -9.474   0.896 123.176  0.00  0.00    -0.051 C 
ATOM     20  C   LIG A   1      -9.928  -0.140 122.445  0.00  0.00    +0.010 C 
ATOM     21  C   LIG A   1     -10.409   1.524 124.182  0.00  0.00    +0.041 C 
ENDBRANCH  18  19
BRANCH  18  22
ATOM     22  O   LIG A   1      -7.985   2.837 123.412  0.00  0.00    -0.375 OA
ATOM     23  C   LIG A   1      -6.691   3.417 123.543  0.00  0.00    +0.194 C 
ENDBRANCH  18  22
ENDBRANCH  17  18
ENDBRANCH  11  17
TORSDOF 6
ENDMDL
MODEL 4
REMARK VINA RESULT:      -5.7      1.791      3.630
REMARK  Name = NuBBE_1953
REMARK  11 active torsions:
REMARK  status: ('A' for Active; 'I' for Inactive)
REMARK    1  A    between atoms: O_1  and  C_2
REMARK    2  A    between atoms: O_1  and  C_3
REMARK    3  A    between atoms: C_6  and  O_7
REMARK    4  A    between atoms: O_7  and  C_8
REMARK    5  A    between atoms: N_12  and  C_23
REMARK    6  A    between atoms: C_15  and  C_16
REMARK    7  A    between atoms: C_16  and  C_17
REMARK    8  A    between atoms: C_17  and  C_18
REMARK    9  A    between atoms: C_17  and  O_21
REMARK   10  A    between atoms: C_18  and  C_20
REMARK   11  A    between atoms: O_21  and  C_22
REMARK                            x       y       z     vdW  Elec       q    Type
REMARK                         _______ _______ _______ _____ _____    ______ ____
ROOT
ATOM      1  C   LIG A   1      -7.597   0.904 124.261  0.00  0.00    +0.138 A 
ATOM      2  C   LIG A   1      -6.725   2.094 124.427  0.00  0.00    +0.044 A 
ATOM      3  C   LIG A   1      -6.224   2.405 125.706  0.00  0.00    +0.097 A 
ATOM      4  C   LIG A   1      -5.747   3.725 125.937  0.00  0.00    +0.144 A 
ATOM      5  C   LIG A   1      -5.726   4.654 124.883  0.00  0.00    +0.048 A 
ATOM      6  C   LIG A   1      -5.980   4.251 123.591  0.00  0.00    +0.004 A 
ATOM      7  C   LIG A   1      -6.399   2.954 123.374  0.00  0.00    +0.014 A 
ATOM      8  N   LIG A   1      -6.109   1.306 126.624  0.00  0.00    -0.308 N 
ATOM      9  C   LIG A   1      -6.537   0.013 126.283  0.00  0.00    +0.258 A 
ATOM     10  O   LIG A   1      -6.183  -0.982 126.875  0.00  0.00    -0.267 OA
ATOM     11  C   LIG A   1      -7.553  -0.088 125.169  0.00  0.00    +0.062 A 
ATOM     12  C   LIG A   1      -5.284   1.420 127.819  0.00  0.00    +0.152 C 
ENDROOT
BRANCH   1  13
ATOM     13  O   LIG A   1      -8.581   0.864 123.289  0.00  0.00    -0.494 OA
ATOM     14  C   LIG A   1      -9.834   1.522 123.371  0.00  0.00    +0.277 C 
ENDBRANCH   1  13
BRANCH   4  15
ATOM     15  O   LIG A   1      -5.369   4.107 127.202  0.00  0.00    -0.493 OA
ATOM     16  C   LIG A   1      -4.269   5.019 127.253  0.00  0.00    +0.277 C 
ENDBRANCH   4  15
BRANCH  11  17
ATOM     17  C   LIG A   1      -8.367  -1.389 125.158  0.00  0.00    +0.080 C 
BRANCH  17  18
ATOM     18  C   LIG A   1      -7.949  -2.649 124.320  0.00  0.00    +0.148 C 
BRANCH  18  19
ATOM     19  C   LIG A   1      -6.538  -2.670 123.727  0.00  0.00    -0.051 C 
ATOM     20  C   LIG A   1      -5.505  -3.353 124.258  0.00  0.00    +0.010 C 
ATOM     21  C   LIG A   1      -6.328  -1.976 122.403  0.00  0.00    +0.041 C 
ENDBRANCH  18  19
BRANCH  18  22
ATOM     22  O   LIG A   1      -8.136  -3.768 125.236  0.00  0.00    -0.375 OA
ATOM     23  C   LIG A   1      -8.742  -3.468 126.489  0.00  0.00    +0.194 C 
ENDBRANCH  18  22
ENDBRANCH  17  18
ENDBRANCH  11  17
TORSDOF 6
ENDMDL
MODEL 5
REMARK VINA RESULT:      -5.6      2.687      5.728
REMARK  Name = NuBBE_1953
REMARK  11 active torsions:
REMARK  status: ('A' for Active; 'I' for Inactive)
REMARK    1  A    between atoms: O_1  and  C_2
REMARK    2  A    between atoms: O_1  and  C_3
REMARK    3  A    between atoms: C_6  and  O_7
REMARK    4  A    between atoms: O_7  and  C_8
REMARK    5  A    between atoms: N_12  and  C_23
REMARK    6  A    between atoms: C_15  and  C_16
REMARK    7  A    between atoms: C_16  and  C_17
REMARK    8  A    between atoms: C_17  and  C_18
REMARK    9  A    between atoms: C_17  and  O_21
REMARK   10  A    between atoms: C_18  and  C_20
REMARK   11  A    between atoms: O_21  and  C_22
REMARK                            x       y       z     vdW  Elec       q    Type
REMARK                         _______ _______ _______ _____ _____    ______ ____
ROOT
ATOM      1  C   LIG A   1      -7.715  -2.978 126.942  0.00  0.00    +0.138 A 
ATOM      2  C   LIG A   1      -8.041  -2.656 125.530  0.00  0.00    +0.044 A 
ATOM      3  C   LIG A   1      -7.965  -1.318 125.096  0.00  0.00    +0.097 A 
ATOM      4  C   LIG A   1      -8.649  -0.961 123.902  0.00  0.00    +0.144 A 
ATOM      5  C   LIG A   1      -9.318  -1.948 123.158  0.00  0.00    +0.048 A 
ATOM      6  C   LIG A   1      -9.162  -3.280 123.466  0.00  0.00    +0.004 A 
ATOM      7  C   LIG A   1      -8.457  -3.617 124.604  0.00  0.00    +0.014 A 
ATOM      8  N   LIG A   1      -7.076  -0.464 125.833  0.00  0.00    -0.308 N 
ATOM      9  C   LIG A   1      -6.379  -0.924 126.962  0.00  0.00    +0.258 A 
ATOM     10  O   LIG A   1      -5.406  -0.365 127.416  0.00  0.00    -0.267 OA
ATOM     11  C   LIG A   1      -6.954  -2.134 127.662  0.00  0.00    +0.062 A 
ATOM     12  C   LIG A   1      -6.639   0.809 125.277  0.00  0.00    +0.152 C 
ENDROOT
BRANCH   1  13
ATOM     13  O   LIG A   1      -8.317  -4.041 127.593  0.00  0.00    -0.494 OA
ATOM     14  C   LIG A   1      -9.628  -4.027 128.133  0.00  0.00    +0.277 C 
ENDBRANCH   1  13
BRANCH   4  15
ATOM     15  O   LIG A   1      -8.708   0.356 123.512  0.00  0.00    -0.493 OA
ATOM     16  C   LIG A   1      -9.920   0.738 122.857  0.00  0.00    +0.277 C 
ENDBRANCH   4  15
BRANCH  11  17
ATOM     17  C   LIG A   1      -6.509  -2.305 129.120  0.00  0.00    +0.080 C 
BRANCH  17  18
ATOM     18  C   LIG A   1      -5.495  -3.412 129.579  0.00  0.00    +0.148 C 
BRANCH  18  19
ATOM     19  C   LIG A   1      -4.009  -3.049 129.598  0.00  0.00    -0.051 C 
ATOM     20  C   LIG A   1      -3.042  -3.791 129.025  0.00  0.00    +0.010 C 
ATOM     21  C   LIG A   1      -3.625  -1.716 130.194  0.00  0.00    +0.041 C 
ENDBRANCH  18  19
BRANCH  18  22
ATOM     22  O   LIG A   1      -5.949  -3.785 130.913  0.00  0.00    -0.375 OA
ATOM     23  C   LIG A   1      -7.120  -3.131 131.391  0.00  0.00    +0.194 C 
ENDBRANCH  18  22
ENDBRANCH  17  18
ENDBRANCH  11  17
TORSDOF 6
ENDMDL
MODEL 6
REMARK VINA RESULT:      -5.6      2.158      3.687
REMARK  Name = NuBBE_1953
REMARK  11 active torsions:
REMARK  status: ('A' for Active; 'I' for Inactive)
REMARK    1  A    between atoms: O_1  and  C_2
REMARK    2  A    between atoms: O_1  and  C_3
REMARK    3  A    between atoms: C_6  and  O_7
REMARK    4  A    between atoms: O_7  and  C_8
REMARK    5  A    between atoms: N_12  and  C_23
REMARK    6  A    between atoms: C_15  and  C_16
REMARK    7  A    between atoms: C_16  and  C_17
REMARK    8  A    between atoms: C_17  and  C_18
REMARK    9  A    between atoms: C_17  and  O_21
REMARK   10  A    between atoms: C_18  and  C_20
REMARK   11  A    between atoms: O_21  and  C_22
REMARK                            x       y       z     vdW  Elec       q    Type
REMARK                         _______ _______ _______ _____ _____    ______ ____
ROOT
ATOM      1  C   LIG A   1      -7.231   0.639 125.899  0.00  0.00    +0.138 A 
ATOM      2  C   LIG A   1      -7.199   1.900 126.682  0.00  0.00    +0.044 A 
ATOM      3  C   LIG A   1      -6.508   3.013 126.163  0.00  0.00    +0.097 A 
ATOM      4  C   LIG A   1      -6.139   4.051 127.062  0.00  0.00    +0.144 A 
ATOM      5  C   LIG A   1      -6.523   3.976 128.412  0.00  0.00    +0.048 A 
ATOM      6  C   LIG A   1      -7.410   3.011 128.833  0.00  0.00    +0.004 A 
ATOM      7  C   LIG A   1      -7.797   2.034 127.938  0.00  0.00    +0.014 A 
ATOM      8  N   LIG A   1      -6.367   3.059 124.735  0.00  0.00    -0.308 N 
ATOM      9  C   LIG A   1      -6.832   2.019 123.914  0.00  0.00    +0.258 A 
ATOM     10  O   LIG A   1      -7.022   2.145 122.725  0.00  0.00    -0.267 OA
ATOM     11  C   LIG A   1      -7.011   0.671 124.572  0.00  0.00    +0.062 A 
ATOM     12  C   LIG A   1      -6.008   4.301 124.064  0.00  0.00    +0.152 C 
ENDROOT
BRANCH   1  13
ATOM     13  O   LIG A   1      -7.310  -0.593 126.525  0.00  0.00    -0.494 OA
ATOM     14  C   LIG A   1      -6.237  -1.239 127.189  0.00  0.00    +0.277 C 
ENDBRANCH   1  13
BRANCH   4  15
ATOM     15  O   LIG A   1      -5.355   5.091 126.624  0.00  0.00    -0.493 OA
ATOM     16  C   LIG A   1      -4.122   5.257 127.330  0.00  0.00    +0.277 C 
ENDBRANCH   4  15
BRANCH  11  17
ATOM     17  C   LIG A   1      -7.015  -0.521 123.606  0.00  0.00    +0.080 C 
BRANCH  17  18
ATOM     18  C   LIG A   1      -8.331  -1.249 123.155  0.00  0.00    +0.148 C 
BRANCH  18  19
ATOM     19  C   LIG A   1      -8.595  -2.648 123.717  0.00  0.00    -0.051 C 
ATOM     20  C   LIG A   1      -9.762  -3.308 123.584  0.00  0.00    +0.010 C 
ATOM     21  C   LIG A   1      -7.436  -3.373 124.356  0.00  0.00    +0.041 C 
ENDBRANCH  18  19
BRANCH  18  22
ATOM     22  O   LIG A   1      -9.398  -0.333 123.538  0.00  0.00    -0.375 OA
ATOM     23  C   LIG A   1     -10.133   0.265 122.475  0.00  0.00    +0.194 C 
ENDBRANCH  18  22
ENDBRANCH  17  18
ENDBRANCH  11  17
TORSDOF 6
ENDMDL
MODEL 7
REMARK VINA RESULT:      -5.6      2.220      6.712
REMARK  Name = NuBBE_1953
REMARK  11 active torsions:
REMARK  status: ('A' for Active; 'I' for Inactive)
REMARK    1  A    between atoms: O_1  and  C_2
REMARK    2  A    between atoms: O_1  and  C_3
REMARK    3  A    between atoms: C_6  and  O_7
REMARK    4  A    between atoms: O_7  and  C_8
REMARK    5  A    between atoms: N_12  and  C_23
REMARK    6  A    between atoms: C_15  and  C_16
REMARK    7  A    between atoms: C_16  and  C_17
REMARK    8  A    between atoms: C_17  and  C_18
REMARK    9  A    between atoms: C_17  and  O_21
REMARK   10  A    between atoms: C_18  and  C_20
REMARK   11  A    between atoms: O_21  and  C_22
REMARK                            x       y       z     vdW  Elec       q    Type
REMARK                         _______ _______ _______ _____ _____    ______ ____
ROOT
ATOM      1  C   LIG A   1      -7.407  -0.912 125.601  0.00  0.00    +0.138 A 
ATOM      2  C   LIG A   1      -8.019  -1.723 126.684  0.00  0.00    +0.044 A 
ATOM      3  C   LIG A   1      -7.750  -1.391 128.026  0.00  0.00    +0.097 A 
ATOM      4  C   LIG A   1      -7.990  -2.378 129.021  0.00  0.00    +0.144 A 
ATOM      5  C   LIG A   1      -8.541  -3.618 128.657  0.00  0.00    +0.048 A 
ATOM      6  C   LIG A   1      -9.027  -3.820 127.385  0.00  0.00    +0.004 A 
ATOM      7  C   LIG A   1      -8.829  -2.835 126.438  0.00  0.00    +0.014 A 
ATOM      8  N   LIG A   1      -7.392  -0.024 128.279  0.00  0.00    -0.308 N 
ATOM      9  C   LIG A   1      -7.251   0.907 127.236  0.00  0.00    +0.258 A 
ATOM     10  O   LIG A   1      -7.266   2.105 127.408  0.00  0.00    -0.267 OA
ATOM     11  C   LIG A   1      -6.990   0.341 125.860  0.00  0.00    +0.062 A 
ATOM     12  C   LIG A   1      -7.448   0.521 129.628  0.00  0.00    +0.152 C 
ENDROOT
BRANCH   1  13
ATOM     13  O   LIG A   1      -7.095  -1.470 124.374  0.00  0.00    -0.494 OA
ATOM     14  C   LIG A   1      -5.955  -2.269 124.109  0.00  0.00    +0.277 C 
ENDBRANCH   1  13
BRANCH   4  15
ATOM     15  O   LIG A   1      -7.623  -2.142 130.325  0.00  0.00    -0.493 OA
ATOM     16  C   LIG A   1      -6.933  -3.219 130.963  0.00  0.00    +0.277 C 
ENDBRANCH   4  15
BRANCH  11  17
ATOM     17  C   LIG A   1      -6.349   1.325 124.872  0.00  0.00    +0.080 C 
BRANCH  17  18
ATOM     18  C   LIG A   1      -7.181   2.366 124.044  0.00  0.00    +0.148 C 
BRANCH  18  19
ATOM     19  C   LIG A   1      -6.408   3.403 123.226  0.00  0.00    -0.051 C 
ATOM     20  C   LIG A   1      -5.675   4.396 123.765  0.00  0.00    +0.010 C 
ATOM     21  C   LIG A   1      -6.373   3.224 121.727  0.00  0.00    +0.041 C 
ENDBRANCH  18  19
BRANCH  18  22
ATOM     22  O   LIG A   1      -8.018   1.547 123.174  0.00  0.00    -0.375 OA
ATOM     23  C   LIG A   1      -9.425   1.705 123.316  0.00  0.00    +0.194 C 
ENDBRANCH  18  22
ENDBRANCH  17  18
ENDBRANCH  11  17
TORSDOF 6
ENDMDL
MODEL 8
REMARK VINA RESULT:      -5.6      2.978      6.127
REMARK  Name = NuBBE_1953
REMARK  11 active torsions:
REMARK  status: ('A' for Active; 'I' for Inactive)
REMARK    1  A    between atoms: O_1  and  C_2
REMARK    2  A    between atoms: O_1  and  C_3
REMARK    3  A    between atoms: C_6  and  O_7
REMARK    4  A    between atoms: O_7  and  C_8
REMARK    5  A    between atoms: N_12  and  C_23
REMARK    6  A    between atoms: C_15  and  C_16
REMARK    7  A    between atoms: C_16  and  C_17
REMARK    8  A    between atoms: C_17  and  C_18
REMARK    9  A    between atoms: C_17  and  O_21
REMARK   10  A    between atoms: C_18  and  C_20
REMARK   11  A    between atoms: O_21  and  C_22
REMARK                            x       y       z     vdW  Elec       q    Type
REMARK                         _______ _______ _______ _____ _____    ______ ____
ROOT
ATOM      1  C   LIG A   1      -7.486  -1.323 126.818  0.00  0.00    +0.138 A 
ATOM      2  C   LIG A   1      -7.745  -1.599 128.254  0.00  0.00    +0.044 A 
ATOM      3  C   LIG A   1      -7.747  -0.528 129.169  0.00  0.00    +0.097 A 
ATOM      4  C   LIG A   1      -7.589  -0.827 130.550  0.00  0.00    +0.144 A 
ATOM      5  C   LIG A   1      -7.501  -2.165 130.970  0.00  0.00    +0.048 A 
ATOM      6  C   LIG A   1      -7.756  -3.192 130.089  0.00  0.00    +0.004 A 
ATOM      7  C   LIG A   1      -7.954  -2.886 128.758  0.00  0.00    +0.014 A 
ATOM      8  N   LIG A   1      -8.057   0.765 128.627  0.00  0.00    -0.308 N 
ATOM      9  C   LIG A   1      -8.275   0.956 127.252  0.00  0.00    +0.258 A 
ATOM     10  O   LIG A   1      -8.836   1.927 126.797  0.00  0.00    -0.267 OA
ATOM     11  C   LIG A   1      -7.693  -0.088 126.327  0.00  0.00    +0.062 A 
ATOM     12  C   LIG A   1      -8.445   1.863 129.501  0.00  0.00    +0.152 C 
ENDROOT
BRANCH   1  13
ATOM     13  O   LIG A   1      -6.873  -2.261 126.006  0.00  0.00    -0.494 OA
ATOM     14  C   LIG A   1      -5.473  -2.458 125.902  0.00  0.00    +0.277 C 
ENDBRANCH   1  13
BRANCH   4  15
ATOM     15  O   LIG A   1      -7.459   0.193 131.462  0.00  0.00    -0.493 OA
ATOM     16  C   LIG A   1      -6.186   0.265 132.110  0.00  0.00    +0.277 C 
ENDBRANCH   4  15
BRANCH  11  17
ATOM     17  C   LIG A   1      -7.492   0.378 124.879  0.00  0.00    +0.080 C 
BRANCH  17  18
ATOM     18  C   LIG A   1      -8.397  -0.110 123.693  0.00  0.00    +0.148 C 
BRANCH  18  19
ATOM     19  C   LIG A   1      -8.195  -1.541 123.189  0.00  0.00    -0.051 C 
ATOM     20  C   LIG A   1      -9.147  -2.493 123.217  0.00  0.00    +0.010 C 
ATOM     21  C   LIG A   1      -6.884  -1.864 122.514  0.00  0.00    +0.041 C 
ENDBRANCH  18  19
BRANCH  18  22
ATOM     22  O   LIG A   1      -9.759   0.074 124.181  0.00  0.00    -0.375 OA
ATOM     23  C   LIG A   1     -10.403   1.292 123.820  0.00  0.00    +0.194 C 
ENDBRANCH  18  22
ENDBRANCH  17  18
ENDBRANCH  11  17
TORSDOF 6
ENDMDL
MODEL 9
REMARK VINA RESULT:      -5.5      3.080      5.455
REMARK  Name = NuBBE_1953
REMARK  11 active torsions:
REMARK  status: ('A' for Active; 'I' for Inactive)
REMARK    1  A    between atoms: O_1  and  C_2
REMARK    2  A    between atoms: O_1  and  C_3
REMARK    3  A    between atoms: C_6  and  O_7
REMARK    4  A    between atoms: O_7  and  C_8
REMARK    5  A    between atoms: N_12  and  C_23
REMARK    6  A    between atoms: C_15  and  C_16
REMARK    7  A    between atoms: C_16  and  C_17
REMARK    8  A    between atoms: C_17  and  C_18
REMARK    9  A    between atoms: C_17  and  O_21
REMARK   10  A    between atoms: C_18  and  C_20
REMARK   11  A    between atoms: O_21  and  C_22
REMARK                            x       y       z     vdW  Elec       q    Type
REMARK                         _______ _______ _______ _____ _____    ______ ____
ROOT
ATOM      1  C   LIG A   1      -7.785  -0.846 128.017  0.00  0.00    +0.138 A 
ATOM      2  C   LIG A   1      -8.083  -0.439 126.620  0.00  0.00    +0.044 A 
ATOM      3  C   LIG A   1      -7.996  -1.397 125.592  0.00  0.00    +0.097 A 
ATOM      4  C   LIG A   1      -7.880  -0.935 124.252  0.00  0.00    +0.144 A 
ATOM      5  C   LIG A   1      -7.921   0.443 123.983  0.00  0.00    +0.048 A 
ATOM      6  C   LIG A   1      -8.260   1.339 124.973  0.00  0.00    +0.004 A 
ATOM      7  C   LIG A   1      -8.415   0.871 126.262  0.00  0.00    +0.014 A 
ATOM      8  N   LIG A   1      -8.179  -2.766 125.987  0.00  0.00    -0.308 N 
ATOM      9  C   LIG A   1      -8.364  -3.127 127.332  0.00  0.00    +0.258 A 
ATOM     10  O   LIG A   1      -8.828  -4.190 127.677  0.00  0.00    -0.267 OA
ATOM     11  C   LIG A   1      -7.871  -2.142 128.367  0.00  0.00    +0.062 A 
ATOM     12  C   LIG A   1      -8.472  -3.792 124.997  0.00  0.00    +0.152 C 
ENDROOT
BRANCH   1  13
ATOM     13  O   LIG A   1      -7.253   0.050 128.928  0.00  0.00    -0.494 OA
ATOM     14  C   LIG A   1      -5.914   0.516 128.924  0.00  0.00    +0.277 C 
ENDBRANCH   1  13
BRANCH   4  15
ATOM     15  O   LIG A   1      -7.665  -1.832 123.233  0.00  0.00    -0.493 OA
ATOM     16  C   LIG A   1      -6.351  -1.803 122.671  0.00  0.00    +0.277 C 
ENDBRANCH   4  15
BRANCH  11  17
ATOM     17  C   LIG A   1      -7.613  -2.744 129.755  0.00  0.00    +0.080 C 
BRANCH  17  18
ATOM     18  C   LIG A   1      -6.170  -2.981 130.327  0.00  0.00    +0.148 C 
BRANCH  18  19
ATOM     19  C   LIG A   1      -5.978  -4.139 131.308  0.00  0.00    -0.051 C 
ATOM     20  C   LIG A   1      -5.565  -5.371 130.952  0.00  0.00    +0.010 C 
ATOM     21  C   LIG A   1      -6.149  -3.843 132.779  0.00  0.00    +0.041 C 
ENDBRANCH  18  19
BRANCH  18  22
ATOM     22  O   LIG A   1      -5.341  -3.169 129.142  0.00  0.00    -0.375 OA
ATOM     23  C   LIG A   1      -4.019  -2.643 129.202  0.00  0.00    +0.194 C 
ENDBRANCH  18  22
ENDBRANCH  17  18
ENDBRANCH  11  17
TORSDOF 6
ENDMDL
