MODEL 1
REMARK VINA RESULT:      -8.3      0.000      0.000
REMARK  Name = NuBBE_430
REMARK  13 active torsions:
REMARK  status: ('A' for Active; 'I' for Inactive)
REMARK    1  A    between atoms: C_1  and  C_2
REMARK    2  A    between atoms: C_6  and  C_41
REMARK    3  A    between atoms: C_9  and  C_40
REMARK    4  A    between atoms: C_10  and  C_39
REMARK    5  A    between atoms: C_15  and  C_16
REMARK    6  A    between atoms: C_15  and  C_37
REMARK    7  A    between atoms: C_16  and  O_17
REMARK    8  A    between atoms: C_18  and  O_36
REMARK    9  A    between atoms: C_20  and  O_35
REMARK   10  A    between atoms: C_23  and  C_34
REMARK   11  A    between atoms: C_31  and  C_32
REMARK   12  A    between atoms: C_31  and  O_33
REMARK   13  A    between atoms: C_37  and  O_38
REMARK                            x       y       z     vdW  Elec       q    Type
REMARK                         _______ _______ _______ _____ _____    ______ ____
ROOT
ATOM      1  C   LIG A   1      -4.601  -5.573 134.370  0.00  0.00    +0.010 C 
ATOM      2  C   LIG A   1      -5.497  -4.992 133.260  0.00  0.00    +0.018 C 
ATOM      3  C   LIG A   1      -4.909  -5.432 131.918  0.00  0.00    +0.006 C 
ATOM      4  C   LIG A   1      -5.718  -4.884 130.757  0.00  0.00    +0.007 C 
ATOM      5  C   LIG A   1      -5.811  -3.341 130.754  0.00  0.00    -0.023 C 
ATOM      6  C   LIG A   1      -6.788  -2.973 129.617  0.00  0.00    +0.008 C 
ATOM      7  C   LIG A   1      -6.968  -1.472 129.459  0.00  0.00    +0.012 C 
ATOM      8  C   LIG A   1      -7.345  -0.689 130.762  0.00  0.00    -0.005 C 
ATOM      9  C   LIG A   1      -6.960   0.885 130.584  0.00  0.00    -0.019 C 
ATOM     10  C   LIG A   1      -7.573   1.526 129.297  0.00  0.00    +0.008 C 
ATOM     11  C   LIG A   1      -8.779   2.442 129.451  0.00  0.00    +0.005 C 
ATOM     12  C   LIG A   1      -8.558   3.462 130.576  0.00  0.00    +0.008 C 
ATOM     13  C   LIG A   1      -9.470   4.745 130.484  0.00  0.00    +0.049 C 
ATOM     14  C   LIG A   1      -9.161   5.656 131.708  0.00  0.00    +0.154 C 
ATOM     15  C   LIG A   1      -9.242   4.932 133.054  0.00  0.00    +0.144 C 
ATOM     16  C   LIG A   1      -8.271   3.752 133.093  0.00  0.00    +0.041 C 
ATOM     17  C   LIG A   1      -8.491   2.707 131.955  0.00  0.00    -0.022 C 
ATOM     18  C   LIG A   1      -7.216   1.751 131.885  0.00  0.00    +0.006 C 
ATOM     19  C   LIG A   1      -6.873   0.998 133.189  0.00  0.00    +0.031 C 
ATOM     20  C   LIG A   1      -6.476  -0.444 133.085  0.00  0.00    -0.026 C 
ATOM     21  C   LIG A   1      -6.681  -1.274 132.038  0.00  0.00    -0.061 C 
ATOM     22  C   LIG A   1      -6.423  -2.822 132.098  0.00  0.00    +0.053 C 
ATOM     23  C   LIG A   1      -5.694  -3.441 133.374  0.00  0.00    +0.073 C 
ATOM     24  C   LIG A   1      -6.490  -3.166 134.677  0.00  0.00    +0.042 C 
ATOM     25  C   LIG A   1      -9.780   1.936 132.317  0.00  0.00    +0.012 C 
ATOM     26  C   LIG A   1      -5.394   0.992 130.355  0.00  0.00    +0.012 C 
ATOM     27  C   LIG A   1      -8.864  -0.909 130.953  0.00  0.00    +0.016 C 
ATOM     28  C   LIG A   1      -4.413  -2.756 130.448  0.00  0.00    +0.012 C 
ENDROOT
BRANCH  23  29
ATOM     29  O   LIG A   1      -4.385  -2.872 133.522  0.00  0.00    -0.388 OA
ATOM     30  H   LIG A   1      -3.737  -3.595 133.555  0.00  0.00    +0.210 HD
ENDBRANCH  23  29
BRANCH  15  31
ATOM     31  O   LIG A   1      -8.873   5.847 134.092  0.00  0.00    -0.389 OA
ATOM     32  H   LIG A   1      -9.417   6.646 133.944  0.00  0.00    +0.210 HD
ENDBRANCH  15  31
BRANCH  14  33
ATOM     33  O   LIG A   1      -9.994   6.825 131.761  0.00  0.00    -0.389 OA
ATOM     34  H   LIG A   1     -10.681   6.719 131.064  0.00  0.00    +0.210 HD
ENDBRANCH  14  33
BRANCH  13  35
ATOM     35  C   LIG A   1      -9.071   5.567 129.210  0.00  0.00    +0.167 C 
BRANCH  35  36
ATOM     36  O   LIG A   1      -9.432   6.943 129.315  0.00  0.00    -0.394 OA
ATOM     37  H   LIG A   1      -9.129   7.378 128.488  0.00  0.00    +0.209 HD
ENDBRANCH  35  36
ENDBRANCH  13  35
BRANCH  13  38
ATOM     38  C   LIG A   1     -10.975   4.396 130.366  0.00  0.00    +0.167 C 
BRANCH  38  39
ATOM     39  O   LIG A   1     -11.695   5.375 129.618  0.00  0.00    -0.394 OA
ATOM     40  H   LIG A   1     -12.422   5.686 130.206  0.00  0.00    +0.209 HD
ENDBRANCH  38  39
ENDBRANCH  13  38
TORSDOF 7
ENDMDL
MODEL 2
REMARK VINA RESULT:      -8.3      4.271      7.560
REMARK  Name = NuBBE_430
REMARK  13 active torsions:
REMARK  status: ('A' for Active; 'I' for Inactive)
REMARK    1  A    between atoms: C_1  and  C_2
REMARK    2  A    between atoms: C_6  and  C_41
REMARK    3  A    between atoms: C_9  and  C_40
REMARK    4  A    between atoms: C_10  and  C_39
REMARK    5  A    between atoms: C_15  and  C_16
REMARK    6  A    between atoms: C_15  and  C_37
REMARK    7  A    between atoms: C_16  and  O_17
REMARK    8  A    between atoms: C_18  and  O_36
REMARK    9  A    between atoms: C_20  and  O_35
REMARK   10  A    between atoms: C_23  and  C_34
REMARK   11  A    between atoms: C_31  and  C_32
REMARK   12  A    between atoms: C_31  and  O_33
REMARK   13  A    between atoms: C_37  and  O_38
REMARK                            x       y       z     vdW  Elec       q    Type
REMARK                         _______ _______ _______ _____ _____    ______ ____
ROOT
ATOM      1  C   LIG A   1      -9.620  -3.272 122.898  0.00  0.00    +0.010 C 
ATOM      2  C   LIG A   1      -8.880  -2.215 123.740  0.00  0.00    +0.018 C 
ATOM      3  C   LIG A   1      -7.618  -1.817 122.971  0.00  0.00    +0.006 C 
ATOM      4  C   LIG A   1      -6.808  -0.789 123.738  0.00  0.00    +0.007 C 
ATOM      5  C   LIG A   1      -6.379  -1.276 125.141  0.00  0.00    -0.023 C 
ATOM      6  C   LIG A   1      -5.714  -0.065 125.829  0.00  0.00    +0.008 C 
ATOM      7  C   LIG A   1      -5.202  -0.389 127.223  0.00  0.00    +0.012 C 
ATOM      8  C   LIG A   1      -6.236  -1.054 128.193  0.00  0.00    -0.005 C 
ATOM      9  C   LIG A   1      -5.445  -1.832 129.387  0.00  0.00    -0.019 C 
ATOM     10  C   LIG A   1      -4.414  -0.925 130.135  0.00  0.00    +0.008 C 
ATOM     11  C   LIG A   1      -4.783  -0.401 131.516  0.00  0.00    +0.005 C 
ATOM     12  C   LIG A   1      -5.339  -1.525 132.401  0.00  0.00    +0.008 C 
ATOM     13  C   LIG A   1      -5.261  -1.236 133.950  0.00  0.00    +0.049 C 
ATOM     14  C   LIG A   1      -5.897  -2.439 134.706  0.00  0.00    +0.154 C 
ATOM     15  C   LIG A   1      -7.298  -2.809 134.213  0.00  0.00    +0.144 C 
ATOM     16  C   LIG A   1      -7.275  -3.154 132.724  0.00  0.00    +0.041 C 
ATOM     17  C   LIG A   1      -6.715  -2.015 131.815  0.00  0.00    -0.022 C 
ATOM     18  C   LIG A   1      -6.400  -2.620 130.373  0.00  0.00    +0.006 C 
ATOM     19  C   LIG A   1      -7.593  -3.287 129.653  0.00  0.00    +0.031 C 
ATOM     20  C   LIG A   1      -7.772  -3.017 128.189  0.00  0.00    -0.026 C 
ATOM     21  C   LIG A   1      -7.218  -2.016 127.470  0.00  0.00    -0.061 C 
ATOM     22  C   LIG A   1      -7.627  -1.684 125.991  0.00  0.00    +0.053 C 
ATOM     23  C   LIG A   1      -8.592  -2.685 125.207  0.00  0.00    +0.073 C 
ATOM     24  C   LIG A   1      -9.959  -2.841 125.924  0.00  0.00    +0.042 C 
ATOM     25  C   LIG A   1      -7.806  -0.923 131.765  0.00  0.00    +0.012 C 
ATOM     26  C   LIG A   1      -4.549  -2.966 128.733  0.00  0.00    +0.012 C 
ATOM     27  C   LIG A   1      -7.113   0.105 128.722  0.00  0.00    +0.016 C 
ATOM     28  C   LIG A   1      -5.344  -2.414 124.980  0.00  0.00    +0.012 C 
ENDROOT
BRANCH  23  29
ATOM     29  O   LIG A   1      -7.987  -3.982 125.111  0.00  0.00    -0.388 OA
ATOM     30  H   LIG A   1      -7.953  -4.372 126.000  0.00  0.00    +0.210 HD
ENDBRANCH  23  29
BRANCH  15  31
ATOM     31  O   LIG A   1      -7.748  -3.963 134.930  0.00  0.00    -0.389 OA
ATOM     32  H   LIG A   1      -8.367  -4.422 134.327  0.00  0.00    +0.210 HD
ENDBRANCH  15  31
BRANCH  14  33
ATOM     33  O   LIG A   1      -5.944  -2.245 136.128  0.00  0.00    -0.389 OA
ATOM     34  H   LIG A   1      -6.470  -2.989 136.502  0.00  0.00    +0.210 HD
ENDBRANCH  14  33
BRANCH  13  35
ATOM     35  C   LIG A   1      -3.757  -1.185 134.386  0.00  0.00    +0.167 C 
BRANCH  35  36
ATOM     36  O   LIG A   1      -3.290  -2.440 134.881  0.00  0.00    -0.394 OA
ATOM     37  H   LIG A   1      -2.408  -2.275 135.279  0.00  0.00    +0.209 HD
ENDBRANCH  35  36
ENDBRANCH  13  35
BRANCH  13  38
ATOM     38  C   LIG A   1      -5.908   0.118 134.334  0.00  0.00    +0.167 C 
BRANCH  38  39
ATOM     39  O   LIG A   1      -5.454   0.589 135.603  0.00  0.00    -0.394 OA
ATOM     40  H   LIG A   1      -6.262   0.708 136.153  0.00  0.00    +0.209 HD
ENDBRANCH  38  39
ENDBRANCH  13  38
TORSDOF 7
ENDMDL
MODEL 3
REMARK VINA RESULT:      -8.3      3.927      6.038
REMARK  Name = NuBBE_430
REMARK  13 active torsions:
REMARK  status: ('A' for Active; 'I' for Inactive)
REMARK    1  A    between atoms: C_1  and  C_2
REMARK    2  A    between atoms: C_6  and  C_41
REMARK    3  A    between atoms: C_9  and  C_40
REMARK    4  A    between atoms: C_10  and  C_39
REMARK    5  A    between atoms: C_15  and  C_16
REMARK    6  A    between atoms: C_15  and  C_37
REMARK    7  A    between atoms: C_16  and  O_17
REMARK    8  A    between atoms: C_18  and  O_36
REMARK    9  A    between atoms: C_20  and  O_35
REMARK   10  A    between atoms: C_23  and  C_34
REMARK   11  A    between atoms: C_31  and  C_32
REMARK   12  A    between atoms: C_31  and  O_33
REMARK   13  A    between atoms: C_37  and  O_38
REMARK                            x       y       z     vdW  Elec       q    Type
REMARK                         _______ _______ _______ _____ _____    ______ ____
ROOT
ATOM      1  C   LIG A   1      -4.732  -5.650 134.776  0.00  0.00    +0.010 C 
ATOM      2  C   LIG A   1      -4.364  -4.442 133.893  0.00  0.00    +0.018 C 
ATOM      3  C   LIG A   1      -4.226  -3.226 134.813  0.00  0.00    +0.006 C 
ATOM      4  C   LIG A   1      -3.885  -1.977 134.024  0.00  0.00    +0.007 C 
ATOM      5  C   LIG A   1      -4.931  -1.638 132.937  0.00  0.00    -0.023 C 
ATOM      6  C   LIG A   1      -4.350  -0.451 132.139  0.00  0.00    +0.008 C 
ATOM      7  C   LIG A   1      -5.282   0.030 131.039  0.00  0.00    +0.012 C 
ATOM      8  C   LIG A   1      -5.801  -1.071 130.055  0.00  0.00    -0.005 C 
ATOM      9  C   LIG A   1      -7.164  -0.554 129.325  0.00  0.00    -0.019 C 
ATOM     10  C   LIG A   1      -7.002   0.841 128.637  0.00  0.00    +0.008 C 
ATOM     11  C   LIG A   1      -6.870   0.887 127.121  0.00  0.00    +0.005 C 
ATOM     12  C   LIG A   1      -7.935   0.011 126.447  0.00  0.00    +0.008 C 
ATOM     13  C   LIG A   1      -8.226   0.379 124.942  0.00  0.00    +0.049 C 
ATOM     14  C   LIG A   1      -9.288  -0.616 124.390  0.00  0.00    +0.154 C 
ATOM     15  C   LIG A   1      -8.932  -2.088 124.613  0.00  0.00    +0.144 C 
ATOM     16  C   LIG A   1      -8.747  -2.381 126.101  0.00  0.00    +0.041 C 
ATOM     17  C   LIG A   1      -7.662  -1.499 126.795  0.00  0.00    -0.022 C 
ATOM     18  C   LIG A   1      -7.825  -1.635 128.375  0.00  0.00    +0.006 C 
ATOM     19  C   LIG A   1      -7.728  -3.070 128.936  0.00  0.00    +0.031 C 
ATOM     20  C   LIG A   1      -6.942  -3.282 130.196  0.00  0.00    -0.026 C 
ATOM     21  C   LIG A   1      -6.037  -2.442 130.745  0.00  0.00    -0.061 C 
ATOM     22  C   LIG A   1      -5.109  -2.837 131.948  0.00  0.00    +0.053 C 
ATOM     23  C   LIG A   1      -5.364  -4.216 132.709  0.00  0.00    +0.073 C 
ATOM     24  C   LIG A   1      -5.235  -5.430 131.751  0.00  0.00    +0.042 C 
ATOM     25  C   LIG A   1      -6.295  -2.023 126.301  0.00  0.00    +0.012 C 
ATOM     26  C   LIG A   1      -8.262  -0.302 130.442  0.00  0.00    +0.012 C 
ATOM     27  C   LIG A   1      -4.648  -1.310 129.053  0.00  0.00    +0.016 C 
ATOM     28  C   LIG A   1      -6.246  -1.207 133.625  0.00  0.00    +0.012 C 
ENDROOT
BRANCH  23  29
ATOM     29  O   LIG A   1      -6.682  -4.232 133.275  0.00  0.00    -0.388 OA
ATOM     30  H   LIG A   1      -7.021  -3.321 133.292  0.00  0.00    +0.210 HD
ENDBRANCH  23  29
BRANCH  15  31
ATOM     31  O   LIG A   1     -10.007  -2.900 124.130  0.00  0.00    -0.389 OA
ATOM     32  H   LIG A   1     -10.329  -3.400 124.907  0.00  0.00    +0.210 HD
ENDBRANCH  15  31
BRANCH  14  33
ATOM     33  O   LIG A   1      -9.574  -0.416 122.997  0.00  0.00    -0.389 OA
ATOM     34  H   LIG A   1      -9.546  -1.302 122.568  0.00  0.00    +0.210 HD
ENDBRANCH  14  33
BRANCH  13  35
ATOM     35  C   LIG A   1      -8.879   1.802 124.878  0.00  0.00    +0.167 C 
BRANCH  35  36
ATOM     36  O   LIG A   1     -10.280   1.747 124.616  0.00  0.00    -0.394 OA
ATOM     37  H   LIG A   1     -10.557   2.657 124.368  0.00  0.00    +0.209 HD
ENDBRANCH  35  36
ENDBRANCH  13  35
BRANCH  13  38
ATOM     38  C   LIG A   1      -6.939   0.414 124.080  0.00  0.00    +0.167 C 
BRANCH  38  39
ATOM     39  O   LIG A   1      -6.990   1.432 123.081  0.00  0.00    -0.394 OA
ATOM     40  H   LIG A   1      -7.629   1.114 122.402  0.00  0.00    +0.209 HD
ENDBRANCH  38  39
ENDBRANCH  13  38
TORSDOF 7
ENDMDL
MODEL 4
REMARK VINA RESULT:      -8.2      4.192      5.721
REMARK  Name = NuBBE_430
REMARK  13 active torsions:
REMARK  status: ('A' for Active; 'I' for Inactive)
REMARK    1  A    between atoms: C_1  and  C_2
REMARK    2  A    between atoms: C_6  and  C_41
REMARK    3  A    between atoms: C_9  and  C_40
REMARK    4  A    between atoms: C_10  and  C_39
REMARK    5  A    between atoms: C_15  and  C_16
REMARK    6  A    between atoms: C_15  and  C_37
REMARK    7  A    between atoms: C_16  and  O_17
REMARK    8  A    between atoms: C_18  and  O_36
REMARK    9  A    between atoms: C_20  and  O_35
REMARK   10  A    between atoms: C_23  and  C_34
REMARK   11  A    between atoms: C_31  and  C_32
REMARK   12  A    between atoms: C_31  and  O_33
REMARK   13  A    between atoms: C_37  and  O_38
REMARK                            x       y       z     vdW  Elec       q    Type
REMARK                         _______ _______ _______ _____ _____    ______ ____
ROOT
ATOM      1  C   LIG A   1      -2.290  -1.689 133.640  0.00  0.00    +0.010 C 
ATOM      2  C   LIG A   1      -3.668  -1.993 133.021  0.00  0.00    +0.018 C 
ATOM      3  C   LIG A   1      -3.813  -3.515 132.949  0.00  0.00    +0.006 C 
ATOM      4  C   LIG A   1      -5.138  -3.912 132.328  0.00  0.00    +0.007 C 
ATOM      5  C   LIG A   1      -5.337  -3.346 130.903  0.00  0.00    -0.023 C 
ATOM      6  C   LIG A   1      -6.781  -3.709 130.496  0.00  0.00    +0.008 C 
ATOM      7  C   LIG A   1      -7.130  -3.245 129.091  0.00  0.00    +0.012 C 
ATOM      8  C   LIG A   1      -6.850  -1.736 128.782  0.00  0.00    -0.005 C 
ATOM      9  C   LIG A   1      -6.730  -1.520 127.170  0.00  0.00    -0.019 C 
ATOM     10  C   LIG A   1      -7.959  -2.080 126.382  0.00  0.00    +0.008 C 
ATOM     11  C   LIG A   1      -8.986  -1.090 125.848  0.00  0.00    +0.005 C 
ATOM     12  C   LIG A   1      -8.301   0.081 125.130  0.00  0.00    +0.008 C 
ATOM     13  C   LIG A   1      -9.228   0.859 124.119  0.00  0.00    +0.049 C 
ATOM     14  C   LIG A   1      -8.410   2.034 123.508  0.00  0.00    +0.154 C 
ATOM     15  C   LIG A   1      -7.740   2.930 124.552  0.00  0.00    +0.144 C 
ATOM     16  C   LIG A   1      -6.797   2.117 125.439  0.00  0.00    +0.041 C 
ATOM     17  C   LIG A   1      -7.485   0.926 126.177  0.00  0.00    -0.022 C 
ATOM     18  C   LIG A   1      -6.355  -0.040 126.754  0.00  0.00    +0.006 C 
ATOM     19  C   LIG A   1      -5.340   0.618 127.714  0.00  0.00    +0.031 C 
ATOM     20  C   LIG A   1      -4.943  -0.140 128.946  0.00  0.00    -0.026 C 
ATOM     21  C   LIG A   1      -5.587  -1.190 129.502  0.00  0.00    -0.061 C 
ATOM     22  C   LIG A   1      -5.218  -1.786 130.907  0.00  0.00    +0.053 C 
ATOM     23  C   LIG A   1      -3.896  -1.282 131.644  0.00  0.00    +0.073 C 
ATOM     24  C   LIG A   1      -3.937   0.246 131.910  0.00  0.00    +0.042 C 
ATOM     25  C   LIG A   1      -8.348   1.550 127.297  0.00  0.00    +0.012 C 
ATOM     26  C   LIG A   1      -5.512  -2.388 126.642  0.00  0.00    +0.012 C 
ATOM     27  C   LIG A   1      -8.039  -0.959 129.395  0.00  0.00    +0.016 C 
ATOM     28  C   LIG A   1      -4.338  -4.038 129.946  0.00  0.00    +0.012 C 
ENDROOT
BRANCH  23  29
ATOM     29  O   LIG A   1      -2.742  -1.564 130.840  0.00  0.00    -0.388 OA
ATOM     30  H   LIG A   1      -2.803  -2.483 130.527  0.00  0.00    +0.210 HD
ENDBRANCH  23  29
BRANCH  15  31
ATOM     31  O   LIG A   1      -6.965   3.926 123.876  0.00  0.00    -0.389 OA
ATOM     32  H   LIG A   1      -7.480   4.755 123.949  0.00  0.00    +0.210 HD
ENDBRANCH  15  31
BRANCH  14  33
ATOM     33  O   LIG A   1      -9.186   2.857 122.623  0.00  0.00    -0.389 OA
ATOM     34  H   LIG A   1      -9.433   3.666 123.127  0.00  0.00    +0.210 HD
ENDBRANCH  14  33
BRANCH  13  35
ATOM     35  C   LIG A   1      -9.596  -0.089 122.928  0.00  0.00    +0.167 C 
BRANCH  35  36
ATOM     36  O   LIG A   1     -10.177   0.615 121.830  0.00  0.00    -0.394 OA
ATOM     37  H   LIG A   1     -10.967   0.101 121.552  0.00  0.00    +0.209 HD
ENDBRANCH  35  36
ENDBRANCH  13  35
BRANCH  13  38
ATOM     38  C   LIG A   1     -10.552   1.331 124.771  0.00  0.00    +0.167 C 
BRANCH  38  39
ATOM     39  O   LIG A   1     -11.645   1.294 123.853  0.00  0.00    -0.394 OA
ATOM     40  H   LIG A   1     -11.526   2.070 123.258  0.00  0.00    +0.209 HD
ENDBRANCH  38  39
ENDBRANCH  13  38
TORSDOF 7
ENDMDL
MODEL 5
REMARK VINA RESULT:      -8.0      3.692      8.073
REMARK  Name = NuBBE_430
REMARK  13 active torsions:
REMARK  status: ('A' for Active; 'I' for Inactive)
REMARK    1  A    between atoms: C_1  and  C_2
REMARK    2  A    between atoms: C_6  and  C_41
REMARK    3  A    between atoms: C_9  and  C_40
REMARK    4  A    between atoms: C_10  and  C_39
REMARK    5  A    between atoms: C_15  and  C_16
REMARK    6  A    between atoms: C_15  and  C_37
REMARK    7  A    between atoms: C_16  and  O_17
REMARK    8  A    between atoms: C_18  and  O_36
REMARK    9  A    between atoms: C_20  and  O_35
REMARK   10  A    between atoms: C_23  and  C_34
REMARK   11  A    between atoms: C_31  and  C_32
REMARK   12  A    between atoms: C_31  and  O_33
REMARK   13  A    between atoms: C_37  and  O_38
REMARK                            x       y       z     vdW  Elec       q    Type
REMARK                         _______ _______ _______ _____ _____    ______ ____
ROOT
ATOM      1  C   LIG A   1     -10.185   1.237 122.909  0.00  0.00    +0.010 C 
ATOM      2  C   LIG A   1      -9.023   0.363 123.418  0.00  0.00    +0.018 C 
ATOM      3  C   LIG A   1      -9.179  -1.022 122.785  0.00  0.00    +0.006 C 
ATOM      4  C   LIG A   1      -8.084  -1.964 123.248  0.00  0.00    +0.007 C 
ATOM      5  C   LIG A   1      -8.044  -2.143 124.783  0.00  0.00    -0.023 C 
ATOM      6  C   LIG A   1      -6.790  -2.992 125.083  0.00  0.00    +0.008 C 
ATOM      7  C   LIG A   1      -6.620  -3.287 126.564  0.00  0.00    +0.012 C 
ATOM      8  C   LIG A   1      -6.665  -2.046 127.517  0.00  0.00    -0.005 C 
ATOM      9  C   LIG A   1      -7.032  -2.531 129.030  0.00  0.00    -0.019 C 
ATOM     10  C   LIG A   1      -6.091  -3.662 129.558  0.00  0.00    +0.008 C 
ATOM     11  C   LIG A   1      -5.012  -3.292 130.566  0.00  0.00    +0.005 C 
ATOM     12  C   LIG A   1      -5.585  -2.421 131.692  0.00  0.00    +0.008 C 
ATOM     13  C   LIG A   1      -4.728  -2.417 133.016  0.00  0.00    +0.049 C 
ATOM     14  C   LIG A   1      -5.410  -1.463 134.039  0.00  0.00    +0.154 C 
ATOM     15  C   LIG A   1      -5.702  -0.067 133.484  0.00  0.00    +0.144 C 
ATOM     16  C   LIG A   1      -6.604  -0.151 132.253  0.00  0.00    +0.041 C 
ATOM     17  C   LIG A   1      -6.028  -1.032 131.100  0.00  0.00    -0.022 C 
ATOM     18  C   LIG A   1      -7.195  -1.337 130.057  0.00  0.00    +0.006 C 
ATOM     19  C   LIG A   1      -7.880  -0.099 129.439  0.00  0.00    +0.031 C 
ATOM     20  C   LIG A   1      -8.182  -0.121 127.970  0.00  0.00    -0.026 C 
ATOM     21  C   LIG A   1      -7.654  -0.947 127.040  0.00  0.00    -0.061 C 
ATOM     22  C   LIG A   1      -7.868  -0.761 125.496  0.00  0.00    +0.053 C 
ATOM     23  C   LIG A   1      -8.918   0.324 124.981  0.00  0.00    +0.073 C 
ATOM     24  C   LIG A   1      -8.547   1.752 125.459  0.00  0.00    +0.042 C 
ATOM     25  C   LIG A   1      -4.876  -0.219 130.467  0.00  0.00    +0.012 C 
ATOM     26  C   LIG A   1      -8.465  -3.210 129.001  0.00  0.00    +0.012 C 
ATOM     27  C   LIG A   1      -5.263  -1.402 127.427  0.00  0.00    +0.016 C 
ATOM     28  C   LIG A   1      -9.310  -2.911 125.231  0.00  0.00    +0.012 C 
ENDROOT
BRANCH  23  29
ATOM     29  O   LIG A   1     -10.230   0.015 125.472  0.00  0.00    -0.388 OA
ATOM     30  H   LIG A   1     -10.560  -0.767 124.998  0.00  0.00    +0.210 HD
ENDBRANCH  23  29
BRANCH  15  31
ATOM     31  O   LIG A   1      -6.387   0.693 134.486  0.00  0.00    -0.389 OA
ATOM     32  H   LIG A   1      -5.774   0.740 135.246  0.00  0.00    +0.210 HD
ENDBRANCH  15  31
BRANCH  14  33
ATOM     33  O   LIG A   1      -4.667  -1.327 135.261  0.00  0.00    -0.389 OA
ATOM     34  H   LIG A   1      -4.588  -2.229 135.649  0.00  0.00    +0.210 HD
ENDBRANCH  14  33
BRANCH  13  35
ATOM     35  C   LIG A   1      -4.763  -3.847 133.654  0.00  0.00    +0.167 C 
BRANCH  35  36
ATOM     36  O   LIG A   1      -5.786  -3.979 134.640  0.00  0.00    -0.394 OA
ATOM     37  H   LIG A   1      -5.803  -3.135 135.144  0.00  0.00    +0.209 HD
ENDBRANCH  35  36
ENDBRANCH  13  35
BRANCH  13  38
ATOM     38  C   LIG A   1      -3.244  -2.053 132.760  0.00  0.00    +0.167 C 
BRANCH  38  39
ATOM     39  O   LIG A   1      -2.368  -2.684 133.693  0.00  0.00    -0.394 OA
ATOM     40  H   LIG A   1      -2.684  -3.614 133.777  0.00  0.00    +0.209 HD
ENDBRANCH  38  39
ENDBRANCH  13  38
TORSDOF 7
ENDMDL
MODEL 6
REMARK VINA RESULT:      -8.0      4.283      7.691
REMARK  Name = NuBBE_430
REMARK  13 active torsions:
REMARK  status: ('A' for Active; 'I' for Inactive)
REMARK    1  A    between atoms: C_1  and  C_2
REMARK    2  A    between atoms: C_6  and  C_41
REMARK    3  A    between atoms: C_9  and  C_40
REMARK    4  A    between atoms: C_10  and  C_39
REMARK    5  A    between atoms: C_15  and  C_16
REMARK    6  A    between atoms: C_15  and  C_37
REMARK    7  A    between atoms: C_16  and  O_17
REMARK    8  A    between atoms: C_18  and  O_36
REMARK    9  A    between atoms: C_20  and  O_35
REMARK   10  A    between atoms: C_23  and  C_34
REMARK   11  A    between atoms: C_31  and  C_32
REMARK   12  A    between atoms: C_31  and  O_33
REMARK   13  A    between atoms: C_37  and  O_38
REMARK                            x       y       z     vdW  Elec       q    Type
REMARK                         _______ _______ _______ _____ _____    ______ ____
ROOT
ATOM      1  C   LIG A   1      -6.440  -1.798 122.484  0.00  0.00    +0.010 C 
ATOM      2  C   LIG A   1      -6.844  -2.587 123.744  0.00  0.00    +0.018 C 
ATOM      3  C   LIG A   1      -8.369  -2.716 123.737  0.00  0.00    +0.006 C 
ATOM      4  C   LIG A   1      -8.863  -3.464 124.960  0.00  0.00    +0.007 C 
ATOM      5  C   LIG A   1      -8.447  -2.797 126.291  0.00  0.00    -0.023 C 
ATOM      6  C   LIG A   1      -8.889  -3.763 127.410  0.00  0.00    +0.008 C 
ATOM      7  C   LIG A   1      -8.577  -3.235 128.801  0.00  0.00    +0.012 C 
ATOM      8  C   LIG A   1      -7.099  -2.779 129.042  0.00  0.00    -0.005 C 
ATOM      9  C   LIG A   1      -7.042  -1.755 130.310  0.00  0.00    -0.019 C 
ATOM     10  C   LIG A   1      -7.711  -2.335 131.598  0.00  0.00    +0.008 C 
ATOM     11  C   LIG A   1      -6.809  -2.841 132.715  0.00  0.00    +0.005 C 
ATOM     12  C   LIG A   1      -5.696  -1.830 133.026  0.00  0.00    +0.008 C 
ATOM     13  C   LIG A   1      -5.049  -1.990 134.455  0.00  0.00    +0.049 C 
ATOM     14  C   LIG A   1      -3.918  -0.931 134.602  0.00  0.00    +0.154 C 
ATOM     15  C   LIG A   1      -2.903  -0.945 133.456  0.00  0.00    +0.144 C 
ATOM     16  C   LIG A   1      -3.597  -0.703 132.116  0.00  0.00    +0.041 C 
ATOM     17  C   LIG A   1      -4.728  -1.728 131.789  0.00  0.00    -0.022 C 
ATOM     18  C   LIG A   1      -5.600  -1.160 130.580  0.00  0.00    +0.006 C 
ATOM     19  C   LIG A   1      -4.821  -0.851 129.282  0.00  0.00    +0.031 C 
ATOM     20  C   LIG A   1      -5.442  -1.252 127.977  0.00  0.00    -0.026 C 
ATOM     21  C   LIG A   1      -6.449  -2.133 127.788  0.00  0.00    -0.061 C 
ATOM     22  C   LIG A   1      -6.892  -2.649 126.373  0.00  0.00    +0.053 C 
ATOM     23  C   LIG A   1      -6.279  -1.966 125.068  0.00  0.00    +0.073 C 
ATOM     24  C   LIG A   1      -4.734  -2.101 125.024  0.00  0.00    +0.042 C 
ATOM     25  C   LIG A   1      -4.021  -3.053 131.428  0.00  0.00    +0.012 C 
ATOM     26  C   LIG A   1      -7.922  -0.483 129.962  0.00  0.00    +0.012 C 
ATOM     27  C   LIG A   1      -6.300  -4.078 129.294  0.00  0.00    +0.016 C 
ATOM     28  C   LIG A   1      -9.202  -1.455 126.436  0.00  0.00    +0.012 C 
ENDROOT
BRANCH  23  29
ATOM     29  O   LIG A   1      -6.607  -0.570 125.039  0.00  0.00    -0.388 OA
ATOM     30  H   LIG A   1      -7.569  -0.482 124.927  0.00  0.00    +0.210 HD
ENDBRANCH  23  29
BRANCH  15  31
ATOM     31  O   LIG A   1      -1.958   0.110 133.664  0.00  0.00    -0.389 OA
ATOM     32  H   LIG A   1      -2.222   0.825 133.052  0.00  0.00    +0.210 HD
ENDBRANCH  15  31
BRANCH  14  33
ATOM     33  O   LIG A   1      -3.209  -1.037 135.847  0.00  0.00    -0.389 OA
ATOM     34  H   LIG A   1      -3.757  -1.599 136.442  0.00  0.00    +0.210 HD
ENDBRANCH  14  33
BRANCH  13  35
ATOM     35  C   LIG A   1      -6.121  -1.646 135.544  0.00  0.00    +0.167 C 
BRANCH  35  36
ATOM     36  O   LIG A   1      -6.075  -0.276 135.940  0.00  0.00    -0.394 OA
ATOM     37  H   LIG A   1      -5.383  -0.206 136.635  0.00  0.00    +0.209 HD
ENDBRANCH  35  36
ENDBRANCH  13  35
BRANCH  13  38
ATOM     38  C   LIG A   1      -4.552  -3.433 134.724  0.00  0.00    +0.167 C 
BRANCH  38  39
ATOM     39  O   LIG A   1      -4.302  -3.665 136.109  0.00  0.00    -0.394 OA
ATOM     40  H   LIG A   1      -5.187  -3.727 136.538  0.00  0.00    +0.209 HD
ENDBRANCH  38  39
ENDBRANCH  13  38
TORSDOF 7
ENDMDL
MODEL 7
REMARK VINA RESULT:      -8.0      2.925      4.019
REMARK  Name = NuBBE_430
REMARK  13 active torsions:
REMARK  status: ('A' for Active; 'I' for Inactive)
REMARK    1  A    between atoms: C_1  and  C_2
REMARK    2  A    between atoms: C_6  and  C_41
REMARK    3  A    between atoms: C_9  and  C_40
REMARK    4  A    between atoms: C_10  and  C_39
REMARK    5  A    between atoms: C_15  and  C_16
REMARK    6  A    between atoms: C_15  and  C_37
REMARK    7  A    between atoms: C_16  and  O_17
REMARK    8  A    between atoms: C_18  and  O_36
REMARK    9  A    between atoms: C_20  and  O_35
REMARK   10  A    between atoms: C_23  and  C_34
REMARK   11  A    between atoms: C_31  and  C_32
REMARK   12  A    between atoms: C_31  and  O_33
REMARK   13  A    between atoms: C_37  and  O_38
REMARK                            x       y       z     vdW  Elec       q    Type
REMARK                         _______ _______ _______ _____ _____    ______ ____
ROOT
ATOM      1  C   LIG A   1      -2.920  -4.253 134.496  0.00  0.00    +0.010 C 
ATOM      2  C   LIG A   1      -4.229  -3.752 133.855  0.00  0.00    +0.018 C 
ATOM      3  C   LIG A   1      -4.980  -4.977 133.327  0.00  0.00    +0.006 C 
ATOM      4  C   LIG A   1      -6.279  -4.577 132.654  0.00  0.00    +0.007 C 
ATOM      5  C   LIG A   1      -6.079  -3.595 131.477  0.00  0.00    -0.023 C 
ATOM      6  C   LIG A   1      -7.493  -3.178 131.022  0.00  0.00    +0.008 C 
ATOM      7  C   LIG A   1      -7.473  -2.226 129.837  0.00  0.00    +0.012 C 
ATOM      8  C   LIG A   1      -6.566  -0.960 129.994  0.00  0.00    -0.005 C 
ATOM      9  C   LIG A   1      -6.202  -0.360 128.522  0.00  0.00    -0.019 C 
ATOM     10  C   LIG A   1      -7.464  -0.093 127.638  0.00  0.00    +0.008 C 
ATOM     11  C   LIG A   1      -7.930   1.346 127.463  0.00  0.00    +0.005 C 
ATOM     12  C   LIG A   1      -6.753   2.269 127.116  0.00  0.00    +0.008 C 
ATOM     13  C   LIG A   1      -7.167   3.621 126.418  0.00  0.00    +0.049 C 
ATOM     14  C   LIG A   1      -5.879   4.459 126.170  0.00  0.00    +0.154 C 
ATOM     15  C   LIG A   1      -5.011   4.644 127.417  0.00  0.00    +0.144 C 
ATOM     16  C   LIG A   1      -4.585   3.290 127.985  0.00  0.00    +0.041 C 
ATOM     17  C   LIG A   1      -5.774   2.346 128.345  0.00  0.00    -0.022 C 
ATOM     18  C   LIG A   1      -5.209   0.871 128.566  0.00  0.00    +0.006 C 
ATOM     19  C   LIG A   1      -4.118   0.729 129.650  0.00  0.00    +0.031 C 
ATOM     20  C   LIG A   1      -4.198  -0.445 130.579  0.00  0.00    -0.026 C 
ATOM     21  C   LIG A   1      -5.272  -1.234 130.808  0.00  0.00    -0.061 C 
ATOM     22  C   LIG A   1      -5.329  -2.307 131.952  0.00  0.00    +0.053 C 
ATOM     23  C   LIG A   1      -4.000  -2.647 132.768  0.00  0.00    +0.073 C 
ATOM     24  C   LIG A   1      -3.435  -1.394 133.488  0.00  0.00    +0.042 C 
ATOM     25  C   LIG A   1      -6.414   2.925 129.627  0.00  0.00    +0.012 C 
ATOM     26  C   LIG A   1      -5.402  -1.469 127.718  0.00  0.00    +0.012 C 
ATOM     27  C   LIG A   1      -7.386   0.034 130.850  0.00  0.00    +0.016 C 
ATOM     28  C   LIG A   1      -5.361  -4.336 130.325  0.00  0.00    +0.012 C 
ENDROOT
BRANCH  23  29
ATOM     29  O   LIG A   1      -2.989  -3.146 131.881  0.00  0.00    -0.388 OA
ATOM     30  H   LIG A   1      -3.096  -4.110 131.804  0.00  0.00    +0.210 HD
ENDBRANCH  23  29
BRANCH  15  31
ATOM     31  O   LIG A   1      -3.830   5.366 127.053  0.00  0.00    -0.389 OA
ATOM     32  H   LIG A   1      -3.844   6.182 127.592  0.00  0.00    +0.210 HD
ENDBRANCH  15  31
BRANCH  14  33
ATOM     33  O   LIG A   1      -6.152   5.750 125.602  0.00  0.00    -0.389 OA
ATOM     34  H   LIG A   1      -5.347   6.018 125.102  0.00  0.00    +0.210 HD
ENDBRANCH  14  33
BRANCH  13  35
ATOM     35  C   LIG A   1      -7.768   3.306 125.006  0.00  0.00    +0.167 C 
BRANCH  35  36
ATOM     36  O   LIG A   1      -9.195   3.310 125.008  0.00  0.00    -0.394 OA
ATOM     37  H   LIG A   1      -9.477   3.803 124.206  0.00  0.00    +0.209 HD
ENDBRANCH  35  36
ENDBRANCH  13  35
BRANCH  13  38
ATOM     38  C   LIG A   1      -8.239   4.399 127.222  0.00  0.00    +0.167 C 
BRANCH  38  39
ATOM     39  O   LIG A   1      -8.744   5.520 126.498  0.00  0.00    -0.394 OA
ATOM     40  H   LIG A   1      -9.535   5.831 126.996  0.00  0.00    +0.209 HD
ENDBRANCH  38  39
ENDBRANCH  13  38
TORSDOF 7
ENDMDL
MODEL 8
REMARK VINA RESULT:      -7.9      4.608      6.653
REMARK  Name = NuBBE_430
REMARK  13 active torsions:
REMARK  status: ('A' for Active; 'I' for Inactive)
REMARK    1  A    between atoms: C_1  and  C_2
REMARK    2  A    between atoms: C_6  and  C_41
REMARK    3  A    between atoms: C_9  and  C_40
REMARK    4  A    between atoms: C_10  and  C_39
REMARK    5  A    between atoms: C_15  and  C_16
REMARK    6  A    between atoms: C_15  and  C_37
REMARK    7  A    between atoms: C_16  and  O_17
REMARK    8  A    between atoms: C_18  and  O_36
REMARK    9  A    between atoms: C_20  and  O_35
REMARK   10  A    between atoms: C_23  and  C_34
REMARK   11  A    between atoms: C_31  and  C_32
REMARK   12  A    between atoms: C_31  and  O_33
REMARK   13  A    between atoms: C_37  and  O_38
REMARK                            x       y       z     vdW  Elec       q    Type
REMARK                         _______ _______ _______ _____ _____    ______ ____
ROOT
ATOM      1  C   LIG A   1      -1.212  -1.934 136.148  0.00  0.00    +0.010 C 
ATOM      2  C   LIG A   1      -2.680  -1.835 135.690  0.00  0.00    +0.018 C 
ATOM      3  C   LIG A   1      -3.490  -2.829 136.525  0.00  0.00    +0.006 C 
ATOM      4  C   LIG A   1      -4.953  -2.818 136.126  0.00  0.00    +0.007 C 
ATOM      5  C   LIG A   1      -5.180  -3.152 134.633  0.00  0.00    -0.023 C 
ATOM      6  C   LIG A   1      -6.686  -2.939 134.371  0.00  0.00    +0.008 C 
ATOM      7  C   LIG A   1      -7.085  -3.259 132.940  0.00  0.00    +0.012 C 
ATOM      8  C   LIG A   1      -6.244  -2.554 131.824  0.00  0.00    -0.005 C 
ATOM      9  C   LIG A   1      -6.386  -3.381 130.426  0.00  0.00    -0.019 C 
ATOM     10  C   LIG A   1      -7.872  -3.619 130.001  0.00  0.00    +0.008 C 
ATOM     11  C   LIG A   1      -8.446  -2.769 128.876  0.00  0.00    +0.005 C 
ATOM     12  C   LIG A   1      -7.486  -2.715 127.680  0.00  0.00    +0.008 C 
ATOM     13  C   LIG A   1      -8.168  -2.326 126.312  0.00  0.00    +0.049 C 
ATOM     14  C   LIG A   1      -7.068  -2.272 125.213  0.00  0.00    +0.154 C 
ATOM     15  C   LIG A   1      -5.868  -1.397 125.581  0.00  0.00    +0.144 C 
ATOM     16  C   LIG A   1      -5.214  -1.888 126.872  0.00  0.00    +0.041 C 
ATOM     17  C   LIG A   1      -6.181  -1.942 128.096  0.00  0.00    -0.022 C 
ATOM     18  C   LIG A   1      -5.496  -2.801 129.252  0.00  0.00    +0.006 C 
ATOM     19  C   LIG A   1      -4.118  -2.297 129.732  0.00  0.00    +0.031 C 
ATOM     20  C   LIG A   1      -3.843  -2.297 131.206  0.00  0.00    -0.026 C 
ATOM     21  C   LIG A   1      -4.748  -2.379 132.206  0.00  0.00    -0.061 C 
ATOM     22  C   LIG A   1      -4.390  -2.158 133.718  0.00  0.00    +0.053 C 
ATOM     23  C   LIG A   1      -2.858  -2.030 134.145  0.00  0.00    +0.073 C 
ATOM     24  C   LIG A   1      -2.167  -0.833 133.441  0.00  0.00    +0.042 C 
ATOM     25  C   LIG A   1      -6.423  -0.477 128.522  0.00  0.00    +0.012 C 
ATOM     26  C   LIG A   1      -5.815  -4.843 130.653  0.00  0.00    +0.012 C 
ATOM     27  C   LIG A   1      -6.811  -1.119 131.721  0.00  0.00    +0.016 C 
ATOM     28  C   LIG A   1      -4.815  -4.635 134.391  0.00  0.00    +0.012 C 
ENDROOT
BRANCH  23  29
ATOM     29  O   LIG A   1      -2.146  -3.225 133.797  0.00  0.00    -0.388 OA
ATOM     30  H   LIG A   1      -2.562  -3.975 134.254  0.00  0.00    +0.210 HD
ENDBRANCH  23  29
BRANCH  15  31
ATOM     31  O   LIG A   1      -4.897  -1.480 124.531  0.00  0.00    -0.389 OA
ATOM     32  H   LIG A   1      -4.992  -0.652 124.019  0.00  0.00    +0.210 HD
ENDBRANCH  15  31
BRANCH  14  33
ATOM     33  O   LIG A   1      -7.572  -1.852 123.935  0.00  0.00    -0.389 OA
ATOM     34  H   LIG A   1      -6.883  -2.077 123.268  0.00  0.00    +0.210 HD
ENDBRANCH  14  33
BRANCH  13  35
ATOM     35  C   LIG A   1      -9.159  -3.464 125.891  0.00  0.00    +0.167 C 
BRANCH  35  36
ATOM     36  O   LIG A   1      -9.927  -3.118 124.739  0.00  0.00    -0.394 OA
ATOM     37  H   LIG A   1      -9.702  -3.773 124.042  0.00  0.00    +0.209 HD
ENDBRANCH  35  36
ENDBRANCH  13  35
BRANCH  13  38
ATOM     38  C   LIG A   1      -8.979  -1.009 126.408  0.00  0.00    +0.167 C 
BRANCH  38  39
ATOM     39  O   LIG A   1      -9.354  -0.515 125.122  0.00  0.00    -0.394 OA
ATOM     40  H   LIG A   1     -10.329  -0.375 125.159  0.00  0.00    +0.209 HD
ENDBRANCH  38  39
ENDBRANCH  13  38
TORSDOF 7
ENDMDL
MODEL 9
REMARK VINA RESULT:      -7.8      5.177      8.251
REMARK  Name = NuBBE_430
REMARK  13 active torsions:
REMARK  status: ('A' for Active; 'I' for Inactive)
REMARK    1  A    between atoms: C_1  and  C_2
REMARK    2  A    between atoms: C_6  and  C_41
REMARK    3  A    between atoms: C_9  and  C_40
REMARK    4  A    between atoms: C_10  and  C_39
REMARK    5  A    between atoms: C_15  and  C_16
REMARK    6  A    between atoms: C_15  and  C_37
REMARK    7  A    between atoms: C_16  and  O_17
REMARK    8  A    between atoms: C_18  and  O_36
REMARK    9  A    between atoms: C_20  and  O_35
REMARK   10  A    between atoms: C_23  and  C_34
REMARK   11  A    between atoms: C_31  and  C_32
REMARK   12  A    between atoms: C_31  and  O_33
REMARK   13  A    between atoms: C_37  and  O_38
REMARK                            x       y       z     vdW  Elec       q    Type
REMARK                         _______ _______ _______ _____ _____    ______ ____
ROOT
ATOM      1  C   LIG A   1      -2.276   5.143 133.479  0.00  0.00    +0.010 C 
ATOM      2  C   LIG A   1      -2.254   5.009 131.945  0.00  0.00    +0.018 C 
ATOM      3  C   LIG A   1      -2.267   6.423 131.360  0.00  0.00    +0.006 C 
ATOM      4  C   LIG A   1      -2.269   6.391 129.843  0.00  0.00    +0.007 C 
ATOM      5  C   LIG A   1      -3.471   5.619 129.252  0.00  0.00    -0.023 C 
ATOM      6  C   LIG A   1      -3.229   5.551 127.730  0.00  0.00    +0.008 C 
ATOM      7  C   LIG A   1      -4.350   4.842 126.987  0.00  0.00    +0.012 C 
ATOM      8  C   LIG A   1      -4.739   3.426 127.531  0.00  0.00    -0.005 C 
ATOM      9  C   LIG A   1      -6.248   3.048 127.042  0.00  0.00    -0.019 C 
ATOM     10  C   LIG A   1      -6.443   3.175 125.496  0.00  0.00    +0.008 C 
ATOM     11  C   LIG A   1      -6.485   1.899 124.666  0.00  0.00    +0.005 C 
ATOM     12  C   LIG A   1      -7.418   0.858 125.301  0.00  0.00    +0.008 C 
ATOM     13  C   LIG A   1      -7.935  -0.249 124.304  0.00  0.00    +0.049 C 
ATOM     14  C   LIG A   1      -8.829  -1.246 125.099  0.00  0.00    +0.154 C 
ATOM     15  C   LIG A   1      -8.162  -1.805 126.358  0.00  0.00    +0.144 C 
ATOM     16  C   LIG A   1      -7.765  -0.676 127.308  0.00  0.00    +0.041 C 
ATOM     17  C   LIG A   1      -6.812   0.385 126.673  0.00  0.00    -0.022 C 
ATOM     18  C   LIG A   1      -6.775   1.670 127.617  0.00  0.00    +0.006 C 
ATOM     19  C   LIG A   1      -6.333   1.416 129.075  0.00  0.00    +0.031 C 
ATOM     20  C   LIG A   1      -5.391   2.398 129.706  0.00  0.00    -0.026 C 
ATOM     21  C   LIG A   1      -4.620   3.312 129.075  0.00  0.00    -0.061 C 
ATOM     22  C   LIG A   1      -3.509   4.153 129.797  0.00  0.00    +0.053 C 
ATOM     23  C   LIG A   1      -3.400   4.096 131.388  0.00  0.00    +0.073 C 
ATOM     24  C   LIG A   1      -3.132   2.653 131.891  0.00  0.00    +0.042 C 
ATOM     25  C   LIG A   1      -5.428  -0.291 126.553  0.00  0.00    +0.012 C 
ATOM     26  C   LIG A   1      -7.249   4.122 127.642  0.00  0.00    +0.012 C 
ATOM     27  C   LIG A   1      -3.675   2.457 126.965  0.00  0.00    +0.016 C 
ATOM     28  C   LIG A   1      -4.766   6.415 129.537  0.00  0.00    +0.012 C 
ENDROOT
BRANCH  23  29
ATOM     29  O   LIG A   1      -4.619   4.558 131.985  0.00  0.00    -0.388 OA
ATOM     30  H   LIG A   1      -4.833   3.979 132.736  0.00  0.00    +0.210 HD
ENDBRANCH  23  29
BRANCH  15  31
ATOM     31  O   LIG A   1      -9.097  -2.649 127.038  0.00  0.00    -0.389 OA
ATOM     32  H   LIG A   1      -9.731  -2.945 126.354  0.00  0.00    +0.210 HD
ENDBRANCH  15  31
BRANCH  14  33
ATOM     33  O   LIG A   1      -9.295  -2.342 124.297  0.00  0.00    -0.389 OA
ATOM     34  H   LIG A   1      -9.561  -1.968 123.427  0.00  0.00    +0.210 HD
ENDBRANCH  14  33
BRANCH  13  35
ATOM     35  C   LIG A   1      -8.864   0.418 123.233  0.00  0.00    +0.167 C 
BRANCH  35  36
ATOM     36  O   LIG A   1     -10.226   0.481 123.655  0.00  0.00    -0.394 OA
ATOM     37  H   LIG A   1     -10.607   1.295 123.259  0.00  0.00    +0.209 HD
ENDBRANCH  35  36
ENDBRANCH  13  35
BRANCH  13  38
ATOM     38  C   LIG A   1      -6.780  -0.955 123.550  0.00  0.00    +0.167 C 
BRANCH  38  39
ATOM     39  O   LIG A   1      -7.261  -1.821 122.523  0.00  0.00    -0.394 OA
ATOM     40  H   LIG A   1      -6.463  -2.131 122.034  0.00  0.00    +0.209 HD
ENDBRANCH  38  39
ENDBRANCH  13  38
TORSDOF 7
ENDMDL
