MODEL 1
REMARK VINA RESULT:      -7.5      0.000      0.000
REMARK  Name = NuBBE_2320
REMARK  8 active torsions:
REMARK  status: ('A' for Active; 'I' for Inactive)
REMARK    1  A    between atoms: C_1  and  O_28
REMARK    2  A    between atoms: C_3  and  C_25
REMARK    3  A    between atoms: C_5  and  O_8
REMARK    4  A    between atoms: O_8  and  C_9
REMARK    5  A    between atoms: C_10  and  C_24
REMARK    6  A    between atoms: C_12  and  C_15
REMARK    7  A    between atoms: C_25  and  C_26
REMARK    8  A    between atoms: O_28  and  C_29
REMARK                            x       y       z     vdW  Elec       q    Type
REMARK                         _______ _______ _______ _____ _____    ______ ____
ROOT
ATOM      1  C   LIG A   1      -8.354  -0.618 124.580  0.00  0.00    +0.203 C 
ATOM      2  C   LIG A   1      -7.053  -0.420 124.844  0.00  0.00    +0.150 C 
ATOM      3  C   LIG A   1      -6.131  -1.343 125.610  0.00  0.00    +0.044 C 
ATOM      4  C   LIG A   1      -6.873  -2.460 126.386  0.00  0.00    +0.055 C 
ATOM      5  C   LIG A   1      -8.387  -2.278 126.530  0.00  0.00    +0.193 C 
ATOM      6  C   LIG A   1      -8.935  -1.877 125.144  0.00  0.00    +0.229 C 
ATOM      7  O   LIG A   1      -9.812  -2.495 124.555  0.00  0.00    -0.286 OA
ATOM      8  C   LIG A   1      -5.421  -0.254 126.457  0.00  0.00    +0.045 C 
ATOM      9  C   LIG A   1      -5.286   0.898 125.421  0.00  0.00    +0.207 C 
ATOM     10  O   LIG A   1      -6.451   0.800 124.567  0.00  0.00    -0.484 OA
ATOM     11  C   LIG A   1      -6.196   0.163 127.719  0.00  0.00    +0.012 C 
ENDROOT
BRANCH   9  12
ATOM     12  C   LIG A   1      -5.112   2.308 125.954  0.00  0.00    -0.003 A 
ATOM     13  C   LIG A   1      -6.173   3.244 125.901  0.00  0.00    +0.011 A 
ATOM     14  C   LIG A   1      -6.030   4.540 126.405  0.00  0.00    +0.050 A 
ATOM     15  C   LIG A   1      -4.817   4.880 126.955  0.00  0.00    +0.166 A 
ATOM     16  C   LIG A   1      -3.767   3.993 126.995  0.00  0.00    +0.167 A 
ATOM     17  C   LIG A   1      -3.875   2.710 126.494  0.00  0.00    +0.056 A 
ATOM     18  O   LIG A   1      -2.662   4.528 127.581  0.00  0.00    -0.453 OA
ATOM     19  C   LIG A   1      -3.153   5.837 127.942  0.00  0.00    +0.466 C 
ATOM     20  O   LIG A   1      -4.508   6.080 127.513  0.00  0.00    -0.453 OA
ENDBRANCH   9  12
BRANCH   5  21
ATOM     21  O   LIG A   1      -8.881  -3.490 127.095  0.00  0.00    -0.372 OA
ATOM     22  C   LIG A   1      -8.644  -3.622 128.491  0.00  0.00    +0.195 C 
ENDBRANCH   5  21
BRANCH   1  23
ATOM     23  O   LIG A   1      -9.095   0.342 123.913  0.00  0.00    -0.489 OA
ATOM     24  C   LIG A   1      -9.895   1.205 124.714  0.00  0.00    +0.277 C 
ENDBRANCH   1  23
BRANCH   3  25
ATOM     25  C   LIG A   1      -5.138  -2.019 124.599  0.00  0.00    +0.041 C 
BRANCH  25  26
ATOM     26  C   LIG A   1      -5.387  -3.489 124.368  0.00  0.00    -0.034 C 
ATOM     27  C   LIG A   1      -4.557  -4.277 123.670  0.00  0.00    +0.004 C 
ENDBRANCH  25  26
ENDBRANCH   3  25
TORSDOF 5
ENDMDL
MODEL 2
REMARK VINA RESULT:      -7.3      7.170      9.586
REMARK  Name = NuBBE_2320
REMARK  8 active torsions:
REMARK  status: ('A' for Active; 'I' for Inactive)
REMARK    1  A    between atoms: C_1  and  O_28
REMARK    2  A    between atoms: C_3  and  C_25
REMARK    3  A    between atoms: C_5  and  O_8
REMARK    4  A    between atoms: O_8  and  C_9
REMARK    5  A    between atoms: C_10  and  C_24
REMARK    6  A    between atoms: C_12  and  C_15
REMARK    7  A    between atoms: C_25  and  C_26
REMARK    8  A    between atoms: O_28  and  C_29
REMARK                            x       y       z     vdW  Elec       q    Type
REMARK                         _______ _______ _______ _____ _____    ______ ____
ROOT
ATOM      1  C   LIG A   1      -5.884   4.748 132.222  0.00  0.00    +0.203 C 
ATOM      2  C   LIG A   1      -7.074   5.036 132.772  0.00  0.00    +0.150 C 
ATOM      3  C   LIG A   1      -7.887   4.151 133.692  0.00  0.00    +0.044 C 
ATOM      4  C   LIG A   1      -7.395   2.682 133.736  0.00  0.00    +0.055 C 
ATOM      5  C   LIG A   1      -6.408   2.277 132.637  0.00  0.00    +0.193 C 
ATOM      6  C   LIG A   1      -5.344   3.390 132.543  0.00  0.00    +0.229 C 
ATOM      7  O   LIG A   1      -4.142   3.194 132.666  0.00  0.00    -0.286 OA
ATOM      8  C   LIG A   1      -9.271   4.408 133.040  0.00  0.00    +0.045 C 
ATOM      9  C   LIG A   1      -9.172   5.923 132.701  0.00  0.00    +0.207 C 
ATOM     10  O   LIG A   1      -7.781   6.166 132.384  0.00  0.00    -0.484 OA
ATOM     11  C   LIG A   1      -9.555   3.535 131.805  0.00  0.00    +0.012 C 
ENDROOT
BRANCH   9  12
ATOM     12  C   LIG A   1     -10.086   6.463 131.617  0.00  0.00    -0.003 A 
ATOM     13  C   LIG A   1     -11.493   6.474 131.789  0.00  0.00    +0.011 A 
ATOM     14  C   LIG A   1     -12.344   6.985 130.805  0.00  0.00    +0.050 A 
ATOM     15  C   LIG A   1     -11.770   7.475 129.657  0.00  0.00    +0.166 A 
ATOM     16  C   LIG A   1     -10.409   7.451 129.461  0.00  0.00    +0.167 A 
ATOM     17  C   LIG A   1      -9.544   6.942 130.410  0.00  0.00    +0.056 A 
ATOM     18  O   LIG A   1     -10.050   7.985 128.262  0.00  0.00    -0.453 OA
ATOM     19  C   LIG A   1     -11.338   8.385 127.748  0.00  0.00    +0.466 C 
ATOM     20  O   LIG A   1     -12.438   8.030 128.611  0.00  0.00    -0.453 OA
ENDBRANCH   9  12
BRANCH   5  21
ATOM     21  O   LIG A   1      -5.950   0.970 132.978  0.00  0.00    -0.372 OA
ATOM     22  C   LIG A   1      -5.979   0.687 134.371  0.00  0.00    +0.195 C 
ENDBRANCH   5  21
BRANCH   1  23
ATOM     23  O   LIG A   1      -5.276   5.634 131.349  0.00  0.00    -0.489 OA
ATOM     24  C   LIG A   1      -5.249   5.263 129.975  0.00  0.00    +0.277 C 
ENDBRANCH   1  23
BRANCH   3  25
ATOM     25  C   LIG A   1      -7.821   4.738 135.147  0.00  0.00    +0.041 C 
BRANCH  25  26
ATOM     26  C   LIG A   1      -6.443   4.734 135.760  0.00  0.00    -0.034 C 
ATOM     27  C   LIG A   1      -5.878   5.816 136.315  0.00  0.00    +0.004 C 
ENDBRANCH  25  26
ENDBRANCH   3  25
TORSDOF 5
ENDMDL
MODEL 3
REMARK VINA RESULT:      -7.2      3.508      6.064
REMARK  Name = NuBBE_2320
REMARK  8 active torsions:
REMARK  status: ('A' for Active; 'I' for Inactive)
REMARK    1  A    between atoms: C_1  and  O_28
REMARK    2  A    between atoms: C_3  and  C_25
REMARK    3  A    between atoms: C_5  and  O_8
REMARK    4  A    between atoms: O_8  and  C_9
REMARK    5  A    between atoms: C_10  and  C_24
REMARK    6  A    between atoms: C_12  and  C_15
REMARK    7  A    between atoms: C_25  and  C_26
REMARK    8  A    between atoms: O_28  and  C_29
REMARK                            x       y       z     vdW  Elec       q    Type
REMARK                         _______ _______ _______ _____ _____    ______ ____
ROOT
ATOM      1  C   LIG A   1      -6.305  -1.389 124.773  0.00  0.00    +0.203 C 
ATOM      2  C   LIG A   1      -6.902  -1.935 125.844  0.00  0.00    +0.150 C 
ATOM      3  C   LIG A   1      -8.246  -1.556 126.427  0.00  0.00    +0.044 C 
ATOM      4  C   LIG A   1      -8.807  -0.219 125.877  0.00  0.00    +0.055 C 
ATOM      5  C   LIG A   1      -7.811   0.654 125.108  0.00  0.00    +0.193 C 
ATOM      6  C   LIG A   1      -7.055  -0.266 124.127  0.00  0.00    +0.229 C 
ATOM      7  O   LIG A   1      -7.014  -0.086 122.918  0.00  0.00    -0.286 OA
ATOM      8  C   LIG A   1      -7.827  -1.580 127.921  0.00  0.00    +0.045 C 
ATOM      9  C   LIG A   1      -6.872  -2.807 127.949  0.00  0.00    +0.207 C 
ATOM     10  O   LIG A   1      -6.220  -2.830 126.658  0.00  0.00    -0.484 OA
ATOM     11  C   LIG A   1      -7.153  -0.284 128.404  0.00  0.00    +0.012 C 
ENDROOT
BRANCH   9  12
ATOM     12  C   LIG A   1      -5.861  -2.884 129.078  0.00  0.00    -0.003 A 
ATOM     13  C   LIG A   1      -4.481  -2.670 128.837  0.00  0.00    +0.011 A 
ATOM     14  C   LIG A   1      -3.543  -2.721 129.872  0.00  0.00    +0.050 A 
ATOM     15  C   LIG A   1      -4.004  -2.992 131.138  0.00  0.00    +0.166 A 
ATOM     16  C   LIG A   1      -5.335  -3.227 131.388  0.00  0.00    +0.167 A 
ATOM     17  C   LIG A   1      -6.283  -3.195 130.384  0.00  0.00    +0.056 A 
ATOM     18  O   LIG A   1      -5.577  -3.473 132.704  0.00  0.00    -0.453 OA
ATOM     19  C   LIG A   1      -4.252  -3.323 133.256  0.00  0.00    +0.466 C 
ATOM     20  O   LIG A   1      -3.242  -3.055 132.262  0.00  0.00    -0.453 OA
ENDBRANCH   9  12
BRANCH   5  21
ATOM     21  O   LIG A   1      -8.574   1.717 124.540  0.00  0.00    -0.372 OA
ATOM     22  C   LIG A   1      -9.953   1.420 124.371  0.00  0.00    +0.195 C 
ENDBRANCH   5  21
BRANCH   1  23
ATOM     23  O   LIG A   1      -5.041  -1.798 124.382  0.00  0.00    -0.489 OA
ATOM     24  C   LIG A   1      -4.973  -2.924 123.514  0.00  0.00    +0.277 C 
ENDBRANCH   1  23
BRANCH   3  25
ATOM     25  C   LIG A   1      -9.277  -2.695 126.102  0.00  0.00    +0.041 C 
BRANCH  25  26
ATOM     26  C   LIG A   1      -8.971  -3.478 124.850  0.00  0.00    -0.034 C 
ATOM     27  C   LIG A   1      -9.495  -3.187 123.651  0.00  0.00    +0.004 C 
ENDBRANCH  25  26
ENDBRANCH   3  25
TORSDOF 5
ENDMDL
MODEL 4
REMARK VINA RESULT:      -7.1      2.629      5.355
REMARK  Name = NuBBE_2320
REMARK  8 active torsions:
REMARK  status: ('A' for Active; 'I' for Inactive)
REMARK    1  A    between atoms: C_1  and  O_28
REMARK    2  A    between atoms: C_3  and  C_25
REMARK    3  A    between atoms: C_5  and  O_8
REMARK    4  A    between atoms: O_8  and  C_9
REMARK    5  A    between atoms: C_10  and  C_24
REMARK    6  A    between atoms: C_12  and  C_15
REMARK    7  A    between atoms: C_25  and  C_26
REMARK    8  A    between atoms: O_28  and  C_29
REMARK                            x       y       z     vdW  Elec       q    Type
REMARK                         _______ _______ _______ _____ _____    ______ ____
ROOT
ATOM      1  C   LIG A   1      -6.464   0.711 125.085  0.00  0.00    +0.203 C 
ATOM      2  C   LIG A   1      -6.152  -0.517 125.529  0.00  0.00    +0.150 C 
ATOM      3  C   LIG A   1      -6.526  -1.836 124.888  0.00  0.00    +0.044 C 
ATOM      4  C   LIG A   1      -7.610  -1.707 123.787  0.00  0.00    +0.055 C 
ATOM      5  C   LIG A   1      -8.355  -0.370 123.741  0.00  0.00    +0.193 C 
ATOM      6  C   LIG A   1      -7.299   0.749 123.843  0.00  0.00    +0.229 C 
ATOM      7  O   LIG A   1      -7.166   1.638 123.013  0.00  0.00    -0.286 OA
ATOM      8  C   LIG A   1      -6.930  -2.579 126.188  0.00  0.00    +0.045 C 
ATOM      9  C   LIG A   1      -5.858  -2.053 127.185  0.00  0.00    +0.207 C 
ATOM     10  O   LIG A   1      -5.572  -0.694 126.778  0.00  0.00    -0.484 OA
ATOM     11  C   LIG A   1      -8.370  -2.296 126.651  0.00  0.00    +0.012 C 
ENDROOT
BRANCH   9  12
ATOM     12  C   LIG A   1      -6.180  -2.128 128.667  0.00  0.00    -0.003 A 
ATOM     13  C   LIG A   1      -6.226  -3.373 129.341  0.00  0.00    +0.011 A 
ATOM     14  C   LIG A   1      -6.503  -3.453 130.709  0.00  0.00    +0.050 A 
ATOM     15  C   LIG A   1      -6.735  -2.277 131.382  0.00  0.00    +0.166 A 
ATOM     16  C   LIG A   1      -6.718  -1.061 130.740  0.00  0.00    +0.167 A 
ATOM     17  C   LIG A   1      -6.459  -0.952 129.388  0.00  0.00    +0.056 A 
ATOM     18  O   LIG A   1      -6.969  -0.027 131.589  0.00  0.00    -0.453 OA
ATOM     19  C   LIG A   1      -7.103  -0.731 132.842  0.00  0.00    +0.466 C 
ATOM     20  O   LIG A   1      -6.993  -2.163 132.711  0.00  0.00    -0.453 OA
ENDBRANCH   9  12
BRANCH   5  21
ATOM     21  O   LIG A   1      -9.151  -0.402 122.558  0.00  0.00    -0.372 OA
ATOM     22  C   LIG A   1     -10.267   0.478 122.582  0.00  0.00    +0.195 C 
ENDBRANCH   5  21
BRANCH   1  23
ATOM     23  O   LIG A   1      -6.103   1.837 125.806  0.00  0.00    -0.489 OA
ATOM     24  C   LIG A   1      -7.147   2.524 126.487  0.00  0.00    +0.277 C 
ENDBRANCH   1  23
BRANCH   3  25
ATOM     25  C   LIG A   1      -5.240  -2.466 124.243  0.00  0.00    +0.041 C 
BRANCH  25  26
ATOM     26  C   LIG A   1      -5.334  -3.949 123.982  0.00  0.00    -0.034 C 
ATOM     27  C   LIG A   1      -4.303  -4.690 123.552  0.00  0.00    +0.004 C 
ENDBRANCH  25  26
ENDBRANCH   3  25
TORSDOF 5
ENDMDL
MODEL 5
REMARK VINA RESULT:      -7.0      4.079      7.526
REMARK  Name = NuBBE_2320
REMARK  8 active torsions:
REMARK  status: ('A' for Active; 'I' for Inactive)
REMARK    1  A    between atoms: C_1  and  O_28
REMARK    2  A    between atoms: C_3  and  C_25
REMARK    3  A    between atoms: C_5  and  O_8
REMARK    4  A    between atoms: O_8  and  C_9
REMARK    5  A    between atoms: C_10  and  C_24
REMARK    6  A    between atoms: C_12  and  C_15
REMARK    7  A    between atoms: C_25  and  C_26
REMARK    8  A    between atoms: O_28  and  C_29
REMARK                            x       y       z     vdW  Elec       q    Type
REMARK                         _______ _______ _______ _____ _____    ______ ____
ROOT
ATOM      1  C   LIG A   1      -4.423  -2.534 130.794  0.00  0.00    +0.203 C 
ATOM      2  C   LIG A   1      -5.528  -1.931 130.330  0.00  0.00    +0.150 C 
ATOM      3  C   LIG A   1      -6.904  -1.948 130.959  0.00  0.00    +0.044 C 
ATOM      4  C   LIG A   1      -7.063  -3.010 132.077  0.00  0.00    +0.055 C 
ATOM      5  C   LIG A   1      -5.958  -4.067 132.153  0.00  0.00    +0.193 C 
ATOM      6  C   LIG A   1      -4.607  -3.329 132.049  0.00  0.00    +0.229 C 
ATOM      7  O   LIG A   1      -3.721  -3.410 132.888  0.00  0.00    -0.286 OA
ATOM      8  C   LIG A   1      -7.714  -2.175 129.655  0.00  0.00    +0.045 C 
ATOM      9  C   LIG A   1      -6.926  -1.289 128.649  0.00  0.00    +0.207 C 
ATOM     10  O   LIG A   1      -5.543  -1.347 129.070  0.00  0.00    -0.484 OA
ATOM     11  C   LIG A   1      -7.799  -3.648 129.218  0.00  0.00    +0.012 C 
ENDROOT
BRANCH   9  12
ATOM     12  C   LIG A   1      -7.066  -1.607 127.172  0.00  0.00    -0.003 A 
ATOM     13  C   LIG A   1      -5.975  -2.123 126.431  0.00  0.00    +0.011 A 
ATOM     14  C   LIG A   1      -6.097  -2.437 125.074  0.00  0.00    +0.050 A 
ATOM     15  C   LIG A   1      -7.317  -2.224 124.478  0.00  0.00    +0.166 A 
ATOM     16  C   LIG A   1      -8.381  -1.702 125.174  0.00  0.00    +0.167 A 
ATOM     17  C   LIG A   1      -8.287  -1.371 126.512  0.00  0.00    +0.056 A 
ATOM     18  O   LIG A   1      -9.492  -1.573 124.399  0.00  0.00    -0.453 OA
ATOM     19  C   LIG A   1      -9.014  -2.114 123.148  0.00  0.00    +0.466 C 
ATOM     20  O   LIG A   1      -7.623  -2.494 123.181  0.00  0.00    -0.453 OA
ENDBRANCH   9  12
BRANCH   5  21
ATOM     21  O   LIG A   1      -6.200  -4.808 133.347  0.00  0.00    -0.372 OA
ATOM     22  C   LIG A   1      -7.034  -4.143 134.287  0.00  0.00    +0.195 C 
ENDBRANCH   5  21
BRANCH   1  23
ATOM     23  O   LIG A   1      -3.236  -2.481 130.082  0.00  0.00    -0.489 OA
ATOM     24  C   LIG A   1      -2.955  -3.580 129.222  0.00  0.00    +0.277 C 
ENDBRANCH   1  23
BRANCH   3  25
ATOM     25  C   LIG A   1      -7.196  -0.534 131.576  0.00  0.00    +0.041 C 
BRANCH  25  26
ATOM     26  C   LIG A   1      -8.648  -0.279 131.897  0.00  0.00    -0.034 C 
ATOM     27  C   LIG A   1      -9.240   0.913 131.742  0.00  0.00    +0.004 C 
ENDBRANCH  25  26
ENDBRANCH   3  25
TORSDOF 5
ENDMDL
MODEL 6
REMARK VINA RESULT:      -7.0      2.592      5.774
REMARK  Name = NuBBE_2320
REMARK  8 active torsions:
REMARK  status: ('A' for Active; 'I' for Inactive)
REMARK    1  A    between atoms: C_1  and  O_28
REMARK    2  A    between atoms: C_3  and  C_25
REMARK    3  A    between atoms: C_5  and  O_8
REMARK    4  A    between atoms: O_8  and  C_9
REMARK    5  A    between atoms: C_10  and  C_24
REMARK    6  A    between atoms: C_12  and  C_15
REMARK    7  A    between atoms: C_25  and  C_26
REMARK    8  A    between atoms: O_28  and  C_29
REMARK                            x       y       z     vdW  Elec       q    Type
REMARK                         _______ _______ _______ _____ _____    ______ ____
ROOT
ATOM      1  C   LIG A   1      -6.729   0.727 125.278  0.00  0.00    +0.203 C 
ATOM      2  C   LIG A   1      -6.338  -0.486 125.698  0.00  0.00    +0.150 C 
ATOM      3  C   LIG A   1      -6.572  -1.808 125.000  0.00  0.00    +0.044 C 
ATOM      4  C   LIG A   1      -7.611  -1.729 123.852  0.00  0.00    +0.055 C 
ATOM      5  C   LIG A   1      -8.461  -0.456 123.810  0.00  0.00    +0.193 C 
ATOM      6  C   LIG A   1      -7.506   0.741 123.998  0.00  0.00    +0.229 C 
ATOM      7  O   LIG A   1      -7.409   1.666 123.203  0.00  0.00    -0.286 OA
ATOM      8  C   LIG A   1      -6.973  -2.626 126.255  0.00  0.00    +0.045 C 
ATOM      9  C   LIG A   1      -5.995  -2.050 127.319  0.00  0.00    +0.207 C 
ATOM     10  O   LIG A   1      -5.803  -0.659 126.967  0.00  0.00    -0.484 OA
ATOM     11  C   LIG A   1      -8.451  -2.475 126.656  0.00  0.00    +0.012 C 
ENDROOT
BRANCH   9  12
ATOM     12  C   LIG A   1      -6.377  -2.201 128.780  0.00  0.00    -0.003 A 
ATOM     13  C   LIG A   1      -7.290  -1.307 129.391  0.00  0.00    +0.011 A 
ATOM     14  C   LIG A   1      -7.662  -1.446 130.731  0.00  0.00    +0.050 A 
ATOM     15  C   LIG A   1      -7.108  -2.484 131.442  0.00  0.00    +0.166 A 
ATOM     16  C   LIG A   1      -6.202  -3.348 130.873  0.00  0.00    +0.167 A 
ATOM     17  C   LIG A   1      -5.806  -3.227 129.556  0.00  0.00    +0.056 A 
ATOM     18  O   LIG A   1      -5.779  -4.301 131.748  0.00  0.00    -0.453 OA
ATOM     19  C   LIG A   1      -6.556  -3.961 132.916  0.00  0.00    +0.466 C 
ATOM     20  O   LIG A   1      -7.372  -2.785 132.741  0.00  0.00    -0.453 OA
ENDBRANCH   9  12
BRANCH   5  21
ATOM     21  O   LIG A   1      -9.197  -0.511 122.590  0.00  0.00    -0.372 OA
ATOM     22  C   LIG A   1     -10.319   0.362 122.545  0.00  0.00    +0.195 C 
ENDBRANCH   5  21
BRANCH   1  23
ATOM     23  O   LIG A   1      -6.495   1.853 126.049  0.00  0.00    -0.489 OA
ATOM     24  C   LIG A   1      -5.286   2.561 125.799  0.00  0.00    +0.277 C 
ENDBRANCH   1  23
BRANCH   3  25
ATOM     25  C   LIG A   1      -5.211  -2.310 124.399  0.00  0.00    +0.041 C 
BRANCH  25  26
ATOM     26  C   LIG A   1      -5.281  -3.664 123.738  0.00  0.00    -0.034 C 
ATOM     27  C   LIG A   1      -4.270  -4.544 123.749  0.00  0.00    +0.004 C 
ENDBRANCH  25  26
ENDBRANCH   3  25
TORSDOF 5
ENDMDL
MODEL 7
REMARK VINA RESULT:      -6.9      5.773      7.861
REMARK  Name = NuBBE_2320
REMARK  8 active torsions:
REMARK  status: ('A' for Active; 'I' for Inactive)
REMARK    1  A    between atoms: C_1  and  O_28
REMARK    2  A    between atoms: C_3  and  C_25
REMARK    3  A    between atoms: C_5  and  O_8
REMARK    4  A    between atoms: O_8  and  C_9
REMARK    5  A    between atoms: C_10  and  C_24
REMARK    6  A    between atoms: C_12  and  C_15
REMARK    7  A    between atoms: C_25  and  C_26
REMARK    8  A    between atoms: O_28  and  C_29
REMARK                            x       y       z     vdW  Elec       q    Type
REMARK                         _______ _______ _______ _____ _____    ______ ____
ROOT
ATOM      1  C   LIG A   1      -7.188   3.799 128.330  0.00  0.00    +0.203 C 
ATOM      2  C   LIG A   1      -7.638   4.204 129.528  0.00  0.00    +0.150 C 
ATOM      3  C   LIG A   1      -7.883   3.341 130.746  0.00  0.00    +0.044 C 
ATOM      4  C   LIG A   1      -7.875   1.821 130.442  0.00  0.00    +0.055 C 
ATOM      5  C   LIG A   1      -7.950   1.438 128.962  0.00  0.00    +0.193 C 
ATOM      6  C   LIG A   1      -6.942   2.327 128.205  0.00  0.00    +0.229 C 
ATOM      7  O   LIG A   1      -6.036   1.890 127.510  0.00  0.00    -0.286 OA
ATOM      8  C   LIG A   1      -9.240   3.966 131.162  0.00  0.00    +0.045 C 
ATOM      9  C   LIG A   1      -8.988   5.471 130.857  0.00  0.00    +0.207 C 
ATOM     10  O   LIG A   1      -8.107   5.499 129.709  0.00  0.00    -0.484 OA
ATOM     11  C   LIG A   1     -10.452   3.395 130.406  0.00  0.00    +0.012 C 
ENDROOT
BRANCH   9  12
ATOM     12  C   LIG A   1     -10.201   6.357 130.641  0.00  0.00    -0.003 A 
ATOM     13  C   LIG A   1     -11.236   6.423 131.607  0.00  0.00    +0.011 A 
ATOM     14  C   LIG A   1     -12.349   7.249 131.428  0.00  0.00    +0.050 A 
ATOM     15  C   LIG A   1     -12.410   7.997 130.276  0.00  0.00    +0.166 A 
ATOM     16  C   LIG A   1     -11.427   7.929 129.317  0.00  0.00    +0.167 A 
ATOM     17  C   LIG A   1     -10.322   7.113 129.460  0.00  0.00    +0.056 A 
ATOM     18  O   LIG A   1     -11.679   8.749 128.261  0.00  0.00    -0.453 OA
ATOM     19  C   LIG A   1     -12.910   9.370 128.688  0.00  0.00    +0.466 C 
ATOM     20  O   LIG A   1     -13.399   8.869 129.949  0.00  0.00    -0.453 OA
ENDBRANCH   9  12
BRANCH   5  21
ATOM     21  O   LIG A   1      -7.739   0.028 128.906  0.00  0.00    -0.372 OA
ATOM     22  C   LIG A   1      -7.816  -0.623 130.167  0.00  0.00    +0.195 C 
ENDBRANCH   5  21
BRANCH   1  23
ATOM     23  O   LIG A   1      -7.064   4.693 127.281  0.00  0.00    -0.489 OA
ATOM     24  C   LIG A   1      -7.911   4.484 126.157  0.00  0.00    +0.277 C 
ENDBRANCH   1  23
BRANCH   3  25
ATOM     25  C   LIG A   1      -6.765   3.638 131.809  0.00  0.00    +0.041 C 
BRANCH  25  26
ATOM     26  C   LIG A   1      -6.981   2.974 133.146  0.00  0.00    -0.034 C 
ATOM     27  C   LIG A   1      -7.538   3.594 134.196  0.00  0.00    +0.004 C 
ENDBRANCH  25  26
ENDBRANCH   3  25
TORSDOF 5
ENDMDL
MODEL 8
REMARK VINA RESULT:      -6.5      4.835      7.350
REMARK  Name = NuBBE_2320
REMARK  8 active torsions:
REMARK  status: ('A' for Active; 'I' for Inactive)
REMARK    1  A    between atoms: C_1  and  O_28
REMARK    2  A    between atoms: C_3  and  C_25
REMARK    3  A    between atoms: C_5  and  O_8
REMARK    4  A    between atoms: O_8  and  C_9
REMARK    5  A    between atoms: C_10  and  C_24
REMARK    6  A    between atoms: C_12  and  C_15
REMARK    7  A    between atoms: C_25  and  C_26
REMARK    8  A    between atoms: O_28  and  C_29
REMARK                            x       y       z     vdW  Elec       q    Type
REMARK                         _______ _______ _______ _____ _____    ______ ____
ROOT
ATOM      1  C   LIG A   1      -6.055   4.006 127.646  0.00  0.00    +0.203 C 
ATOM      2  C   LIG A   1      -6.262   4.324 128.933  0.00  0.00    +0.150 C 
ATOM      3  C   LIG A   1      -5.869   3.507 130.145  0.00  0.00    +0.044 C 
ATOM      4  C   LIG A   1      -5.458   2.051 129.806  0.00  0.00    +0.055 C 
ATOM      5  C   LIG A   1      -5.813   1.570 128.396  0.00  0.00    +0.193 C 
ATOM      6  C   LIG A   1      -5.395   2.683 127.413  0.00  0.00    +0.229 C 
ATOM      7  O   LIG A   1      -4.626   2.510 126.477  0.00  0.00    -0.286 OA
ATOM      8  C   LIG A   1      -7.184   3.697 130.946  0.00  0.00    +0.045 C 
ATOM      9  C   LIG A   1      -7.524   5.181 130.626  0.00  0.00    +0.207 C 
ATOM     10  O   LIG A   1      -7.052   5.413 129.278  0.00  0.00    -0.484 OA
ATOM     11  C   LIG A   1      -8.308   2.725 130.545  0.00  0.00    +0.012 C 
ENDROOT
BRANCH   9  12
ATOM     12  C   LIG A   1      -8.966   5.623 130.788  0.00  0.00    -0.003 A 
ATOM     13  C   LIG A   1      -9.518   5.855 132.072  0.00  0.00    +0.011 A 
ATOM     14  C   LIG A   1     -10.840   6.279 132.233  0.00  0.00    +0.050 A 
ATOM     15  C   LIG A   1     -11.593   6.463 131.099  0.00  0.00    +0.166 A 
ATOM     16  C   LIG A   1     -11.084   6.220 129.845  0.00  0.00    +0.167 A 
ATOM     17  C   LIG A   1      -9.785   5.789 129.655  0.00  0.00    +0.056 A 
ATOM     18  O   LIG A   1     -11.993   6.465 128.862  0.00  0.00    -0.453 OA
ATOM     19  C   LIG A   1     -13.116   6.929 129.642  0.00  0.00    +0.466 C 
ATOM     20  O   LIG A   1     -12.882   6.893 131.064  0.00  0.00    -0.453 OA
ENDBRANCH   9  12
BRANCH   5  21
ATOM     21  O   LIG A   1      -5.184   0.300 128.242  0.00  0.00    -0.372 OA
ATOM     22  C   LIG A   1      -6.038  -0.715 127.729  0.00  0.00    +0.195 C 
ENDBRANCH   5  21
BRANCH   1  23
ATOM     23  O   LIG A   1      -6.520   4.825 126.631  0.00  0.00    -0.489 OA
ATOM     24  C   LIG A   1      -7.671   4.379 125.924  0.00  0.00    +0.277 C 
ENDBRANCH   1  23
BRANCH   3  25
ATOM     25  C   LIG A   1      -4.658   4.209 130.857  0.00  0.00    +0.041 C 
BRANCH  25  26
ATOM     26  C   LIG A   1      -3.386   4.236 130.046  0.00  0.00    -0.034 C 
ATOM     27  C   LIG A   1      -2.767   5.368 129.683  0.00  0.00    +0.004 C 
ENDBRANCH  25  26
ENDBRANCH   3  25
TORSDOF 5
ENDMDL
MODEL 9
REMARK VINA RESULT:      -6.5      6.583      9.500
REMARK  Name = NuBBE_2320
REMARK  8 active torsions:
REMARK  status: ('A' for Active; 'I' for Inactive)
REMARK    1  A    between atoms: C_1  and  O_28
REMARK    2  A    between atoms: C_3  and  C_25
REMARK    3  A    between atoms: C_5  and  O_8
REMARK    4  A    between atoms: O_8  and  C_9
REMARK    5  A    between atoms: C_10  and  C_24
REMARK    6  A    between atoms: C_12  and  C_15
REMARK    7  A    between atoms: C_25  and  C_26
REMARK    8  A    between atoms: O_28  and  C_29
REMARK                            x       y       z     vdW  Elec       q    Type
REMARK                         _______ _______ _______ _____ _____    ______ ____
ROOT
ATOM      1  C   LIG A   1      -6.862   3.132 131.718  0.00  0.00    +0.203 C 
ATOM      2  C   LIG A   1      -7.038   4.431 131.432  0.00  0.00    +0.150 C 
ATOM      3  C   LIG A   1      -6.649   5.612 132.294  0.00  0.00    +0.044 C 
ATOM      4  C   LIG A   1      -6.286   5.226 133.750  0.00  0.00    +0.055 C 
ATOM      5  C   LIG A   1      -6.678   3.809 134.180  0.00  0.00    +0.193 C 
ATOM      6  C   LIG A   1      -6.244   2.850 133.052  0.00  0.00    +0.229 C 
ATOM      7  O   LIG A   1      -5.496   1.896 133.219  0.00  0.00    -0.286 OA
ATOM      8  C   LIG A   1      -7.944   6.441 132.089  0.00  0.00    +0.045 C 
ATOM      9  C   LIG A   1      -8.245   6.169 130.588  0.00  0.00    +0.207 C 
ATOM     10  O   LIG A   1      -7.790   4.820 130.331  0.00  0.00    -0.484 OA
ATOM     11  C   LIG A   1      -9.102   6.033 133.017  0.00  0.00    +0.012 C 
ENDROOT
BRANCH   9  12
ATOM     12  C   LIG A   1      -9.672   6.369 130.110  0.00  0.00    -0.003 A 
ATOM     13  C   LIG A   1     -10.620   5.320 130.186  0.00  0.00    +0.011 A 
ATOM     14  C   LIG A   1     -11.941   5.498 129.765  0.00  0.00    +0.050 A 
ATOM     15  C   LIG A   1     -12.292   6.730 129.268  0.00  0.00    +0.166 A 
ATOM     16  C   LIG A   1     -11.379   7.754 129.163  0.00  0.00    +0.167 A 
ATOM     17  C   LIG A   1     -10.065   7.604 129.560  0.00  0.00    +0.056 A 
ATOM     18  O   LIG A   1     -11.932   8.886 128.649  0.00  0.00    -0.453 OA
ATOM     19  C   LIG A   1     -13.303   8.468 128.483  0.00  0.00    +0.466 C 
ATOM     20  O   LIG A   1     -13.530   7.089 128.838  0.00  0.00    -0.453 OA
ENDBRANCH   9  12
BRANCH   5  21
ATOM     21  O   LIG A   1      -6.089   3.607 135.463  0.00  0.00    -0.372 OA
ATOM     22  C   LIG A   1      -5.729   4.807 136.135  0.00  0.00    +0.195 C 
ENDBRANCH   5  21
BRANCH   1  23
ATOM     23  O   LIG A   1      -7.320   2.149 130.857  0.00  0.00    -0.489 OA
ATOM     24  C   LIG A   1      -8.481   1.432 131.262  0.00  0.00    +0.277 C 
ENDBRANCH   1  23
BRANCH   3  25
ATOM     25  C   LIG A   1      -5.406   6.322 131.647  0.00  0.00    +0.041 C 
BRANCH  25  26
ATOM     26  C   LIG A   1      -4.223   6.476 132.571  0.00  0.00    -0.034 C 
ATOM     27  C   LIG A   1      -3.239   7.363 132.368  0.00  0.00    +0.004 C 
ENDBRANCH  25  26
ENDBRANCH   3  25
TORSDOF 5
ENDMDL
