MODEL 1
REMARK VINA RESULT:      -7.3      0.000      0.000
REMARK  Name = NuBBE_1709
REMARK  2 active torsions:
REMARK  status: ('A' for Active; 'I' for Inactive)
REMARK    1  A    between atoms: C_4  and  O_5
REMARK    2  A    between atoms: C_14  and  O_15
REMARK                            x       y       z     vdW  Elec       q    Type
REMARK                         _______ _______ _______ _____ _____    ______ ____
ROOT
ATOM      1  O   LIG A   1     -11.517   6.112 132.459  0.00  0.00    -0.286 OA
ATOM      2  C   LIG A   1     -10.688   6.532 131.659  0.00  0.00    +0.204 A 
ATOM      3  C   LIG A   1     -11.115   7.219 130.433  0.00  0.00    +0.106 A 
ATOM      4  C   LIG A   1     -12.468   7.416 130.140  0.00  0.00    +0.131 A 
ATOM      5  C   LIG A   1     -12.842   8.071 128.970  0.00  0.00    +0.046 A 
ATOM      6  C   LIG A   1     -11.862   8.532 128.090  0.00  0.00    +0.007 A 
ATOM      7  C   LIG A   1     -10.510   8.336 128.382  0.00  0.00    +0.047 A 
ATOM      8  C   LIG A   1     -10.134   7.678 129.556  0.00  0.00    +0.143 A 
ATOM      9  O   LIG A   1      -8.784   7.527 129.766  0.00  0.00    -0.455 OA
ATOM     10  C   LIG A   1      -8.372   6.886 130.910  0.00  0.00    +0.140 A 
ATOM     11  C   LIG A   1      -6.994   6.751 131.090  0.00  0.00    +0.050 A 
ATOM     12  C   LIG A   1      -6.496   6.111 132.228  0.00  0.00    +0.049 A 
ATOM     13  C   LIG A   1      -7.382   5.610 133.179  0.00  0.00    +0.118 A 
ATOM     14  C   LIG A   1      -8.756   5.738 133.012  0.00  0.00    +0.060 A 
ATOM     15  C   LIG A   1      -9.244   6.378 131.872  0.00  0.00    +0.068 A 
ENDROOT
BRANCH   4  16
ATOM     16  O   LIG A   1     -13.478   6.990 130.961  0.00  0.00    -0.506 OA
ATOM     17  H   LIG A   1     -13.247   6.086 131.276  0.00  0.00    +0.292 HD
ENDBRANCH   4  16
BRANCH  13  18
ATOM     18  O   LIG A   1      -6.937   4.980 134.301  0.00  0.00    -0.507 OA
ATOM     19  H   LIG A   1      -7.532   4.242 134.512  0.00  0.00    +0.292 HD
ENDBRANCH  13  18
TORSDOF 2
ENDMDL
MODEL 2
REMARK VINA RESULT:      -7.0      2.014      5.188
REMARK  Name = NuBBE_1709
REMARK  2 active torsions:
REMARK  status: ('A' for Active; 'I' for Inactive)
REMARK    1  A    between atoms: C_4  and  O_5
REMARK    2  A    between atoms: C_14  and  O_15
REMARK                            x       y       z     vdW  Elec       q    Type
REMARK                         _______ _______ _______ _____ _____    ______ ____
ROOT
ATOM      1  O   LIG A   1     -11.261   6.502 132.255  0.00  0.00    -0.286 OA
ATOM      2  C   LIG A   1     -10.694   6.238 131.201  0.00  0.00    +0.204 A 
ATOM      3  C   LIG A   1      -9.719   5.143 131.131  0.00  0.00    +0.106 A 
ATOM      4  C   LIG A   1      -9.409   4.369 132.254  0.00  0.00    +0.131 A 
ATOM      5  C   LIG A   1      -8.480   3.336 132.156  0.00  0.00    +0.046 A 
ATOM      6  C   LIG A   1      -7.860   3.074 130.934  0.00  0.00    +0.007 A 
ATOM      7  C   LIG A   1      -8.169   3.847 129.812  0.00  0.00    +0.047 A 
ATOM      8  C   LIG A   1      -9.101   4.884 129.909  0.00  0.00    +0.143 A 
ATOM      9  O   LIG A   1      -9.347   5.594 128.758  0.00  0.00    -0.455 OA
ATOM     10  C   LIG A   1     -10.257   6.622 128.811  0.00  0.00    +0.140 A 
ATOM     11  C   LIG A   1     -10.482   7.321 127.623  0.00  0.00    +0.050 A 
ATOM     12  C   LIG A   1     -11.393   8.380 127.595  0.00  0.00    +0.049 A 
ATOM     13  C   LIG A   1     -12.074   8.732 128.758  0.00  0.00    +0.118 A 
ATOM     14  C   LIG A   1     -11.860   8.045 129.947  0.00  0.00    +0.060 A 
ATOM     15  C   LIG A   1     -10.948   6.989 129.965  0.00  0.00    +0.068 A 
ENDROOT
BRANCH   4  16
ATOM     16  O   LIG A   1      -9.981   4.573 133.480  0.00  0.00    -0.506 OA
ATOM     17  H   LIG A   1      -9.400   5.188 133.984  0.00  0.00    +0.292 HD
ENDBRANCH   4  16
BRANCH  13  18
ATOM     18  O   LIG A   1     -12.971   9.758 128.772  0.00  0.00    -0.507 OA
ATOM     19  H   LIG A   1     -12.491  10.601 128.817  0.00  0.00    +0.292 HD
ENDBRANCH  13  18
TORSDOF 2
ENDMDL
MODEL 3
REMARK VINA RESULT:      -6.8      9.085     10.391
REMARK  Name = NuBBE_1709
REMARK  2 active torsions:
REMARK  status: ('A' for Active; 'I' for Inactive)
REMARK    1  A    between atoms: C_4  and  O_5
REMARK    2  A    between atoms: C_14  and  O_15
REMARK                            x       y       z     vdW  Elec       q    Type
REMARK                         _______ _______ _______ _____ _____    ______ ____
ROOT
ATOM      1  O   LIG A   1      -9.352   3.094 120.864  0.00  0.00    -0.286 OA
ATOM      2  C   LIG A   1      -8.360   3.150 121.583  0.00  0.00    +0.204 A 
ATOM      3  C   LIG A   1      -7.139   3.821 121.119  0.00  0.00    +0.106 A 
ATOM      4  C   LIG A   1      -7.068   4.414 119.855  0.00  0.00    +0.131 A 
ATOM      5  C   LIG A   1      -5.896   5.045 119.443  0.00  0.00    +0.046 A 
ATOM      6  C   LIG A   1      -4.793   5.082 120.296  0.00  0.00    +0.007 A 
ATOM      7  C   LIG A   1      -4.863   4.490 121.560  0.00  0.00    +0.047 A 
ATOM      8  C   LIG A   1      -6.038   3.857 121.973  0.00  0.00    +0.143 A 
ATOM      9  O   LIG A   1      -6.022   3.300 123.229  0.00  0.00    -0.455 OA
ATOM     10  C   LIG A   1      -7.159   2.669 123.675  0.00  0.00    +0.140 A 
ATOM     11  C   LIG A   1      -7.107   2.115 124.955  0.00  0.00    +0.050 A 
ATOM     12  C   LIG A   1      -8.222   1.457 125.481  0.00  0.00    +0.049 A 
ATOM     13  C   LIG A   1      -9.383   1.358 124.718  0.00  0.00    +0.118 A 
ATOM     14  C   LIG A   1      -9.450   1.904 123.442  0.00  0.00    +0.060 A 
ATOM     15  C   LIG A   1      -8.330   2.560 122.927  0.00  0.00    +0.068 A 
ENDROOT
BRANCH   4  16
ATOM     16  O   LIG A   1      -8.113   4.414 118.971  0.00  0.00    -0.506 OA
ATOM     17  H   LIG A   1      -7.836   3.900 118.178  0.00  0.00    +0.292 HD
ENDBRANCH   4  16
BRANCH  13  18
ATOM     18  O   LIG A   1     -10.492   0.724 125.193  0.00  0.00    -0.507 OA
ATOM     19  H   LIG A   1     -11.122   0.592 124.466  0.00  0.00    +0.292 HD
ENDBRANCH  13  18
TORSDOF 2
ENDMDL
MODEL 4
REMARK VINA RESULT:      -6.8      1.499      5.829
REMARK  Name = NuBBE_1709
REMARK  2 active torsions:
REMARK  status: ('A' for Active; 'I' for Inactive)
REMARK    1  A    between atoms: C_4  and  O_5
REMARK    2  A    between atoms: C_14  and  O_15
REMARK                            x       y       z     vdW  Elec       q    Type
REMARK                         _______ _______ _______ _____ _____    ______ ____
ROOT
ATOM      1  O   LIG A   1      -7.448   7.318 130.364  0.00  0.00    -0.286 OA
ATOM      2  C   LIG A   1      -8.382   6.836 130.996  0.00  0.00    +0.204 A 
ATOM      3  C   LIG A   1      -8.133   5.998 132.175  0.00  0.00    +0.106 A 
ATOM      4  C   LIG A   1      -6.833   5.725 132.615  0.00  0.00    +0.131 A 
ATOM      5  C   LIG A   1      -6.627   4.928 133.738  0.00  0.00    +0.046 A 
ATOM      6  C   LIG A   1      -7.723   4.401 134.424  0.00  0.00    +0.007 A 
ATOM      7  C   LIG A   1      -9.021   4.673 133.985  0.00  0.00    +0.047 A 
ATOM      8  C   LIG A   1      -9.228   5.473 132.859  0.00  0.00    +0.143 A 
ATOM      9  O   LIG A   1     -10.535   5.691 132.496  0.00  0.00    -0.455 OA
ATOM     10  C   LIG A   1     -10.782   6.474 131.393  0.00  0.00    +0.140 A 
ATOM     11  C   LIG A   1     -12.122   6.673 131.054  0.00  0.00    +0.050 A 
ATOM     12  C   LIG A   1     -12.456   7.457 129.946  0.00  0.00    +0.049 A 
ATOM     13  C   LIG A   1     -11.443   8.036 129.185  0.00  0.00    +0.118 A 
ATOM     14  C   LIG A   1     -10.105   7.846 129.511  0.00  0.00    +0.060 A 
ATOM     15  C   LIG A   1      -9.783   7.061 130.619  0.00  0.00    +0.068 A 
ENDROOT
BRANCH   4  16
ATOM     16  O   LIG A   1      -5.717   6.211 131.988  0.00  0.00    -0.506 OA
ATOM     17  H   LIG A   1      -5.449   5.556 131.303  0.00  0.00    +0.292 HD
ENDBRANCH   4  16
BRANCH  13  18
ATOM     18  O   LIG A   1     -11.726   8.807 128.098  0.00  0.00    -0.507 OA
ATOM     19  H   LIG A   1     -12.623   8.604 127.786  0.00  0.00    +0.292 HD
ENDBRANCH  13  18
TORSDOF 2
ENDMDL
MODEL 5
REMARK VINA RESULT:      -6.7      9.545     10.648
REMARK  Name = NuBBE_1709
REMARK  2 active torsions:
REMARK  status: ('A' for Active; 'I' for Inactive)
REMARK    1  A    between atoms: C_4  and  O_5
REMARK    2  A    between atoms: C_14  and  O_15
REMARK                            x       y       z     vdW  Elec       q    Type
REMARK                         _______ _______ _______ _____ _____    ______ ____
ROOT
ATOM      1  O   LIG A   1      -9.736  -1.013 122.905  0.00  0.00    -0.286 OA
ATOM      2  C   LIG A   1      -9.096  -0.557 123.846  0.00  0.00    +0.204 A 
ATOM      3  C   LIG A   1      -8.788  -1.392 125.013  0.00  0.00    +0.106 A 
ATOM      4  C   LIG A   1      -9.209  -2.724 125.089  0.00  0.00    +0.131 A 
ATOM      5  C   LIG A   1      -8.901  -3.492 126.209  0.00  0.00    +0.046 A 
ATOM      6  C   LIG A   1      -8.169  -2.929 127.256  0.00  0.00    +0.007 A 
ATOM      7  C   LIG A   1      -7.748  -1.599 127.180  0.00  0.00    +0.047 A 
ATOM      8  C   LIG A   1      -8.057  -0.828 126.057  0.00  0.00    +0.143 A 
ATOM      9  O   LIG A   1      -7.605   0.470 126.064  0.00  0.00    -0.455 OA
ATOM     10  C   LIG A   1      -7.888   1.262 124.977  0.00  0.00    +0.140 A 
ATOM     11  C   LIG A   1      -7.413   2.574 125.018  0.00  0.00    +0.050 A 
ATOM     12  C   LIG A   1      -7.658   3.443 123.951  0.00  0.00    +0.049 A 
ATOM     13  C   LIG A   1      -8.379   2.990 122.848  0.00  0.00    +0.118 A 
ATOM     14  C   LIG A   1      -8.858   1.686 122.794  0.00  0.00    +0.060 A 
ATOM     15  C   LIG A   1      -8.607   0.827 123.865  0.00  0.00    +0.068 A 
ENDROOT
BRANCH   4  16
ATOM     16  O   LIG A   1      -9.928  -3.336 124.098  0.00  0.00    -0.506 OA
ATOM     17  H   LIG A   1     -10.665  -2.733 123.846  0.00  0.00    +0.292 HD
ENDBRANCH   4  16
BRANCH  13  18
ATOM     18  O   LIG A   1      -8.640   3.804 121.788  0.00  0.00    -0.507 OA
ATOM     19  H   LIG A   1      -8.893   4.683 122.114  0.00  0.00    +0.292 HD
ENDBRANCH  13  18
TORSDOF 2
ENDMDL
MODEL 6
REMARK VINA RESULT:      -6.6      1.785      2.787
REMARK  Name = NuBBE_1709
REMARK  2 active torsions:
REMARK  status: ('A' for Active; 'I' for Inactive)
REMARK    1  A    between atoms: C_4  and  O_5
REMARK    2  A    between atoms: C_14  and  O_15
REMARK                            x       y       z     vdW  Elec       q    Type
REMARK                         _______ _______ _______ _____ _____    ______ ____
ROOT
ATOM      1  O   LIG A   1      -9.139   5.623 127.921  0.00  0.00    -0.286 OA
ATOM      2  C   LIG A   1      -9.726   6.044 128.911  0.00  0.00    +0.204 A 
ATOM      3  C   LIG A   1     -10.963   6.822 128.772  0.00  0.00    +0.106 A 
ATOM      4  C   LIG A   1     -11.509   7.106 127.515  0.00  0.00    +0.131 A 
ATOM      5  C   LIG A   1     -12.684   7.845 127.414  0.00  0.00    +0.046 A 
ATOM      6  C   LIG A   1     -13.317   8.303 128.571  0.00  0.00    +0.007 A 
ATOM      7  C   LIG A   1     -12.772   8.020 129.826  0.00  0.00    +0.047 A 
ATOM      8  C   LIG A   1     -11.593   7.278 129.928  0.00  0.00    +0.143 A 
ATOM      9  O   LIG A   1     -11.126   7.045 131.200  0.00  0.00    -0.455 OA
ATOM     10  C   LIG A   1      -9.969   6.317 131.344  0.00  0.00    +0.140 A 
ATOM     11  C   LIG A   1      -9.525   6.100 132.649  0.00  0.00    +0.050 A 
ATOM     12  C   LIG A   1      -8.356   5.370 132.880  0.00  0.00    +0.049 A 
ATOM     13  C   LIG A   1      -7.639   4.861 131.799  0.00  0.00    +0.118 A 
ATOM     14  C   LIG A   1      -8.070   5.070 130.494  0.00  0.00    +0.060 A 
ATOM     15  C   LIG A   1      -9.239   5.801 130.275  0.00  0.00    +0.068 A 
ENDROOT
BRANCH   4  16
ATOM     16  O   LIG A   1     -10.939   6.686 126.344  0.00  0.00    -0.506 OA
ATOM     17  H   LIG A   1     -11.457   7.077 125.602  0.00  0.00    +0.292 HD
ENDBRANCH   4  16
BRANCH  13  18
ATOM     18  O   LIG A   1      -6.495   4.144 131.980  0.00  0.00    -0.507 OA
ATOM     19  H   LIG A   1      -6.038   4.466 132.774  0.00  0.00    +0.292 HD
ENDBRANCH  13  18
TORSDOF 2
ENDMDL
MODEL 7
REMARK VINA RESULT:      -6.6      9.591     10.408
REMARK  Name = NuBBE_1709
REMARK  2 active torsions:
REMARK  status: ('A' for Active; 'I' for Inactive)
REMARK    1  A    between atoms: C_4  and  O_5
REMARK    2  A    between atoms: C_14  and  O_15
REMARK                            x       y       z     vdW  Elec       q    Type
REMARK                         _______ _______ _______ _____ _____    ______ ____
ROOT
ATOM      1  O   LIG A   1     -10.172  -0.271 125.583  0.00  0.00    -0.286 OA
ATOM      2  C   LIG A   1      -9.025  -0.221 125.155  0.00  0.00    +0.204 A 
ATOM      3  C   LIG A   1      -8.288  -1.453 124.849  0.00  0.00    +0.106 A 
ATOM      4  C   LIG A   1      -8.866  -2.714 125.033  0.00  0.00    +0.131 A 
ATOM      5  C   LIG A   1      -8.143  -3.866 124.733  0.00  0.00    +0.046 A 
ATOM      6  C   LIG A   1      -6.839  -3.758 124.247  0.00  0.00    +0.007 A 
ATOM      7  C   LIG A   1      -6.261  -2.500 124.063  0.00  0.00    +0.047 A 
ATOM      8  C   LIG A   1      -6.986  -1.344 124.364  0.00  0.00    +0.143 A 
ATOM      9  O   LIG A   1      -6.343  -0.148 124.154  0.00  0.00    -0.455 OA
ATOM     10  C   LIG A   1      -7.022   1.013 124.436  0.00  0.00    +0.140 A 
ATOM     11  C   LIG A   1      -6.338   2.209 124.211  0.00  0.00    +0.050 A 
ATOM     12  C   LIG A   1      -6.960   3.433 124.474  0.00  0.00    +0.049 A 
ATOM     13  C   LIG A   1      -8.265   3.450 124.962  0.00  0.00    +0.118 A 
ATOM     14  C   LIG A   1      -8.957   2.267 125.191  0.00  0.00    +0.060 A 
ATOM     15  C   LIG A   1      -8.327   1.050 124.925  0.00  0.00    +0.068 A 
ENDROOT
BRANCH   4  16
ATOM     16  O   LIG A   1     -10.139  -2.888 125.504  0.00  0.00    -0.506 OA
ATOM     17  H   LIG A   1     -10.241  -2.327 126.307  0.00  0.00    +0.292 HD
ENDBRANCH   4  16
BRANCH  13  18
ATOM     18  O   LIG A   1      -8.906   4.621 125.230  0.00  0.00    -0.507 OA
ATOM     19  H   LIG A   1      -9.416   4.526 126.051  0.00  0.00    +0.292 HD
ENDBRANCH  13  18
TORSDOF 2
ENDMDL
MODEL 8
REMARK VINA RESULT:      -6.4      8.967     10.250
REMARK  Name = NuBBE_1709
REMARK  2 active torsions:
REMARK  status: ('A' for Active; 'I' for Inactive)
REMARK    1  A    between atoms: C_4  and  O_5
REMARK    2  A    between atoms: C_14  and  O_15
REMARK                            x       y       z     vdW  Elec       q    Type
REMARK                         _______ _______ _______ _____ _____    ______ ____
ROOT
ATOM      1  O   LIG A   1      -7.159   0.913 127.413  0.00  0.00    -0.286 OA
ATOM      2  C   LIG A   1      -7.833   0.264 126.620  0.00  0.00    +0.204 A 
ATOM      3  C   LIG A   1      -8.183  -1.132 126.906  0.00  0.00    +0.106 A 
ATOM      4  C   LIG A   1      -7.764  -1.764 128.082  0.00  0.00    +0.131 A 
ATOM      5  C   LIG A   1      -8.113  -3.090 128.326  0.00  0.00    +0.046 A 
ATOM      6  C   LIG A   1      -8.882  -3.787 127.393  0.00  0.00    +0.007 A 
ATOM      7  C   LIG A   1      -9.300  -3.157 126.218  0.00  0.00    +0.047 A 
ATOM      8  C   LIG A   1      -8.950  -1.827 125.973  0.00  0.00    +0.143 A 
ATOM      9  O   LIG A   1      -9.403  -1.284 124.794  0.00  0.00    -0.455 OA
ATOM     10  C   LIG A   1      -9.082   0.022 124.515  0.00  0.00    +0.140 A 
ATOM     11  C   LIG A   1      -9.558   0.540 123.309  0.00  0.00    +0.050 A 
ATOM     12  C   LIG A   1      -9.274   1.861 122.952  0.00  0.00    +0.049 A 
ATOM     13  C   LIG A   1      -8.514   2.656 123.808  0.00  0.00    +0.118 A 
ATOM     14  C   LIG A   1      -8.034   2.153 125.012  0.00  0.00    +0.060 A 
ATOM     15  C   LIG A   1      -8.323   0.832 125.358  0.00  0.00    +0.068 A 
ENDROOT
BRANCH   4  16
ATOM     16  O   LIG A   1      -7.011  -1.136 129.037  0.00  0.00    -0.506 OA
ATOM     17  H   LIG A   1      -7.628  -0.696 129.665  0.00  0.00    +0.292 HD
ENDBRANCH   4  16
BRANCH  13  18
ATOM     18  O   LIG A   1      -8.215   3.948 123.498  0.00  0.00    -0.507 OA
ATOM     19  H   LIG A   1      -8.641   4.538 124.140  0.00  0.00    +0.292 HD
ENDBRANCH  13  18
TORSDOF 2
ENDMDL
MODEL 9
REMARK VINA RESULT:      -6.4      9.092      9.995
REMARK  Name = NuBBE_1709
REMARK  2 active torsions:
REMARK  status: ('A' for Active; 'I' for Inactive)
REMARK    1  A    between atoms: C_4  and  O_5
REMARK    2  A    between atoms: C_14  and  O_15
REMARK                            x       y       z     vdW  Elec       q    Type
REMARK                         _______ _______ _______ _____ _____    ______ ____
ROOT
ATOM      1  O   LIG A   1      -9.417   1.908 123.072  0.00  0.00    -0.286 OA
ATOM      2  C   LIG A   1      -8.454   1.427 123.659  0.00  0.00    +0.204 A 
ATOM      3  C   LIG A   1      -8.255  -0.026 123.700  0.00  0.00    +0.106 A 
ATOM      4  C   LIG A   1      -9.148  -0.904 123.076  0.00  0.00    +0.131 A 
ATOM      5  C   LIG A   1      -8.931  -2.278 123.131  0.00  0.00    +0.046 A 
ATOM      6  C   LIG A   1      -7.820  -2.778 123.811  0.00  0.00    +0.007 A 
ATOM      7  C   LIG A   1      -6.928  -1.903 124.435  0.00  0.00    +0.047 A 
ATOM      8  C   LIG A   1      -7.144  -0.524 124.380  0.00  0.00    +0.143 A 
ATOM      9  O   LIG A   1      -6.219   0.266 125.020  0.00  0.00    -0.455 OA
ATOM     10  C   LIG A   1      -6.395   1.628 124.989  0.00  0.00    +0.140 A 
ATOM     11  C   LIG A   1      -5.435   2.399 125.649  0.00  0.00    +0.050 A 
ATOM     12  C   LIG A   1      -5.543   3.792 125.663  0.00  0.00    +0.049 A 
ATOM     13  C   LIG A   1      -6.613   4.405 125.014  0.00  0.00    +0.118 A 
ATOM     14  C   LIG A   1      -7.576   3.650 124.353  0.00  0.00    +0.060 A 
ATOM     15  C   LIG A   1      -7.458   2.260 124.345  0.00  0.00    +0.068 A 
ENDROOT
BRANCH   4  16
ATOM     16  O   LIG A   1     -10.255  -0.478 122.392  0.00  0.00    -0.506 OA
ATOM     17  H   LIG A   1      -9.967  -0.221 121.486  0.00  0.00    +0.292 HD
ENDBRANCH   4  16
BRANCH  13  18
ATOM     18  O   LIG A   1      -6.755   5.759 125.005  0.00  0.00    -0.507 OA
ATOM     19  H   LIG A   1      -7.153   6.034 124.162  0.00  0.00    +0.292 HD
ENDBRANCH  13  18
TORSDOF 2
ENDMDL
