MODEL 1
REMARK VINA RESULT:      -8.8      0.000      0.000
REMARK  Name = NuBBE_686
REMARK  10 active torsions:
REMARK  status: ('A' for Active; 'I' for Inactive)
REMARK    1  A    between atoms: C_4  and  C_5
REMARK    2  A    between atoms: C_12  and  O_13
REMARK    3  A    between atoms: C_16  and  C_24
REMARK    4  A    between atoms: C_18  and  C_23
REMARK    5  A    between atoms: C_28  and  C_29
REMARK    6  A    between atoms: C_30  and  C_31
REMARK    7  A    between atoms: C_31  and  C_33
REMARK    8  A    between atoms: C_31  and  C_34
REMARK    9  A    between atoms: C_34  and  O_36
REMARK   10  A    between atoms: C_34  and  C_37
REMARK                            x       y       z     vdW  Elec       q    Type
REMARK                         _______ _______ _______ _____ _____    ______ ____
ROOT
ATOM      1 CL   LIG A   1      -8.536   2.289 130.718  0.00  0.00    -0.079 Cl
ATOM      2  C   LIG A   1      -9.066   3.928 130.561  0.00  0.00    +0.094 C 
ATOM      3  C   LIG A   1     -10.565   4.126 130.544  0.00  0.00    +0.207 C 
ATOM      4  C   LIG A   1     -11.049   5.549 130.873  0.00  0.00    +0.141 C 
ATOM      5  C   LIG A   1     -10.886   5.768 132.392  0.00  0.00    +0.051 C 
ATOM      6  C   LIG A   1     -10.232   6.457 129.962  0.00  0.00    +0.081 C 
ATOM      7  C   LIG A   1      -8.778   6.367 130.333  0.00  0.00    +0.003 C 
ATOM      8  C   LIG A   1      -7.935   7.401 130.474  0.00  0.00    +0.200 C 
ATOM      9  O   LIG A   1      -6.595   7.272 130.770  0.00  0.00    -0.463 OA
ATOM     10  O   LIG A   1     -12.395   5.873 130.528  0.00  0.00    -0.333 OA
ATOM     11  C   LIG A   1     -12.450   7.277 130.246  0.00  0.00    +0.188 C 
ATOM     12  C   LIG A   1     -11.024   7.770 129.977  0.00  0.00    +0.168 C 
ATOM     13  C   LIG A   1     -13.474   7.576 129.153  0.00  0.00    +0.086 C 
ATOM     14  C   LIG A   1     -13.232   8.989 128.622  0.00  0.00    +0.181 C 
ATOM     15  O   LIG A   1     -11.901   9.098 128.091  0.00  0.00    -0.461 OA
ATOM     16  C   LIG A   1     -10.836   8.518 128.677  0.00  0.00    +0.316 C 
ATOM     17  O   LIG A   1      -9.723   8.636 128.166  0.00  0.00    -0.250 OA
ATOM     18  C   LIG A   1     -13.464  10.126 129.612  0.00  0.00    +0.052 C 
ATOM     19  C   LIG A   1     -13.429   6.553 128.008  0.00  0.00    +0.016 C 
ATOM     20  O   LIG A   1     -11.340   3.204 130.304  0.00  0.00    -0.288 OA
ATOM     21  C   LIG A   1      -8.235   5.001 130.533  0.00  0.00    +0.007 C 
ATOM     22  C   LIG A   1      -6.783   4.882 130.700  0.00  0.00    +0.056 C 
ATOM     23  C   LIG A   1      -6.037   5.996 130.826  0.00  0.00    +0.128 C 
ENDROOT
BRANCH  11  24
ATOM     24  O   LIG A   1     -12.903   7.887 131.454  0.00  0.00    -0.363 OA
ATOM     25  H   LIG A   1     -12.155   7.809 132.073  0.00  0.00    +0.213 HD
ENDBRANCH  11  24
BRANCH  23  26
ATOM     26  C   LIG A   1      -4.601   5.964 131.027  0.00  0.00    +0.042 C 
ATOM     27  C   LIG A   1      -3.960   6.567 132.044  0.00  0.00    -0.018 C 
BRANCH  27  28
ATOM     28  C   LIG A   1      -2.455   6.582 132.223  0.00  0.00    +0.037 C 
ATOM     29  C   LIG A   1      -1.804   6.458 130.843  0.00  0.00    +0.014 C 
BRANCH  28  30
ATOM     30  C   LIG A   1      -1.994   7.845 133.001  0.00  0.00    +0.118 C 
ATOM     31  C   LIG A   1      -0.477   7.997 133.041  0.00  0.00    +0.038 C 
BRANCH  30  32
ATOM     32  O   LIG A   1      -2.536   9.027 132.404  0.00  0.00    -0.392 OA
ATOM     33  H   LIG A   1      -1.951   9.768 132.637  0.00  0.00    +0.210 HD
ENDBRANCH  30  32
ENDBRANCH  28  30
ENDBRANCH  27  28
ENDBRANCH  23  26
TORSDOF 5
ENDMDL
MODEL 2
REMARK VINA RESULT:      -8.8      6.141      9.257
REMARK  Name = NuBBE_686
REMARK  10 active torsions:
REMARK  status: ('A' for Active; 'I' for Inactive)
REMARK    1  A    between atoms: C_4  and  C_5
REMARK    2  A    between atoms: C_12  and  O_13
REMARK    3  A    between atoms: C_16  and  C_24
REMARK    4  A    between atoms: C_18  and  C_23
REMARK    5  A    between atoms: C_28  and  C_29
REMARK    6  A    between atoms: C_30  and  C_31
REMARK    7  A    between atoms: C_31  and  C_33
REMARK    8  A    between atoms: C_31  and  C_34
REMARK    9  A    between atoms: C_34  and  O_36
REMARK   10  A    between atoms: C_34  and  C_37
REMARK                            x       y       z     vdW  Elec       q    Type
REMARK                         _______ _______ _______ _____ _____    ______ ____
ROOT
ATOM      1 CL   LIG A   1      -4.530   0.507 130.547  0.00  0.00    -0.079 Cl
ATOM      2  C   LIG A   1      -5.687   0.167 129.307  0.00  0.00    +0.094 C 
ATOM      3  C   LIG A   1      -5.605  -1.219 128.706  0.00  0.00    +0.207 C 
ATOM      4  C   LIG A   1      -6.868  -1.697 127.971  0.00  0.00    +0.141 C 
ATOM      5  C   LIG A   1      -7.929  -2.058 129.032  0.00  0.00    +0.051 C 
ATOM      6  C   LIG A   1      -7.217  -0.560 127.017  0.00  0.00    +0.081 C 
ATOM      7  C   LIG A   1      -7.580   0.666 127.807  0.00  0.00    +0.003 C 
ATOM      8  C   LIG A   1      -8.628   1.470 127.577  0.00  0.00    +0.200 C 
ATOM      9  O   LIG A   1      -8.900   2.614 128.297  0.00  0.00    -0.463 OA
ATOM     10  O   LIG A   1      -6.727  -2.817 127.098  0.00  0.00    -0.333 OA
ATOM     11  C   LIG A   1      -7.697  -2.684 126.052  0.00  0.00    +0.188 C 
ATOM     12  C   LIG A   1      -8.167  -1.225 126.014  0.00  0.00    +0.168 C 
ATOM     13  C   LIG A   1      -7.164  -3.245 124.735  0.00  0.00    +0.086 C 
ATOM     14  C   LIG A   1      -8.046  -2.747 123.592  0.00  0.00    +0.181 C 
ATOM     15  O   LIG A   1      -8.042  -1.310 123.550  0.00  0.00    -0.461 OA
ATOM     16  C   LIG A   1      -8.068  -0.552 124.664  0.00  0.00    +0.316 C 
ATOM     17  O   LIG A   1      -8.048   0.674 124.564  0.00  0.00    -0.250 OA
ATOM     18  C   LIG A   1      -9.492  -3.237 123.597  0.00  0.00    +0.052 C 
ATOM     19  C   LIG A   1      -5.695  -2.869 124.488  0.00  0.00    +0.016 C 
ATOM     20  O   LIG A   1      -4.601  -1.918 128.818  0.00  0.00    -0.288 OA
ATOM     21  C   LIG A   1      -6.669   1.020 128.924  0.00  0.00    +0.007 C 
ATOM     22  C   LIG A   1      -6.893   2.314 129.577  0.00  0.00    +0.056 C 
ATOM     23  C   LIG A   1      -7.984   3.038 129.259  0.00  0.00    +0.128 C 
ENDROOT
BRANCH  11  24
ATOM     24  O   LIG A   1      -8.803  -3.489 126.459  0.00  0.00    -0.363 OA
ATOM     25  H   LIG A   1      -8.646  -4.360 126.053  0.00  0.00    +0.213 HD
ENDBRANCH  11  24
BRANCH  23  26
ATOM     26  C   LIG A   1      -8.295   4.310 129.882  0.00  0.00    +0.042 C 
ATOM     27  C   LIG A   1      -9.539   4.741 130.155  0.00  0.00    -0.018 C 
BRANCH  27  28
ATOM     28  C   LIG A   1      -9.867   6.094 130.754  0.00  0.00    +0.037 C 
ATOM     29  C   LIG A   1      -8.571   6.904 130.856  0.00  0.00    +0.014 C 
BRANCH  28  30
ATOM     30  C   LIG A   1     -10.972   6.818 129.936  0.00  0.00    +0.118 C 
ATOM     31  C   LIG A   1     -10.414   7.878 128.991  0.00  0.00    +0.038 C 
BRANCH  30  32
ATOM     32  O   LIG A   1     -11.710   5.878 129.150  0.00  0.00    -0.392 OA
ATOM     33  H   LIG A   1     -12.264   6.384 128.531  0.00  0.00    +0.210 HD
ENDBRANCH  30  32
ENDBRANCH  28  30
ENDBRANCH  27  28
ENDBRANCH  23  26
TORSDOF 5
ENDMDL
MODEL 3
REMARK VINA RESULT:      -8.7      5.544      8.647
REMARK  Name = NuBBE_686
REMARK  10 active torsions:
REMARK  status: ('A' for Active; 'I' for Inactive)
REMARK    1  A    between atoms: C_4  and  C_5
REMARK    2  A    between atoms: C_12  and  O_13
REMARK    3  A    between atoms: C_16  and  C_24
REMARK    4  A    between atoms: C_18  and  C_23
REMARK    5  A    between atoms: C_28  and  C_29
REMARK    6  A    between atoms: C_30  and  C_31
REMARK    7  A    between atoms: C_31  and  C_33
REMARK    8  A    between atoms: C_31  and  C_34
REMARK    9  A    between atoms: C_34  and  O_36
REMARK   10  A    between atoms: C_34  and  C_37
REMARK                            x       y       z     vdW  Elec       q    Type
REMARK                         _______ _______ _______ _____ _____    ______ ____
ROOT
ATOM      1 CL   LIG A   1      -8.649   1.937 127.799  0.00  0.00    -0.079 Cl
ATOM      2  C   LIG A   1      -7.215   2.858 128.094  0.00  0.00    +0.094 C 
ATOM      3  C   LIG A   1      -6.814   2.985 129.548  0.00  0.00    +0.207 C 
ATOM      4  C   LIG A   1      -5.348   3.375 129.798  0.00  0.00    +0.141 C 
ATOM      5  C   LIG A   1      -4.470   2.140 129.508  0.00  0.00    +0.051 C 
ATOM      6  C   LIG A   1      -5.115   4.598 128.918  0.00  0.00    +0.081 C 
ATOM      7  C   LIG A   1      -5.249   4.210 127.472  0.00  0.00    +0.003 C 
ATOM      8  C   LIG A   1      -4.418   4.565 126.481  0.00  0.00    +0.200 C 
ATOM      9  O   LIG A   1      -4.602   4.227 125.157  0.00  0.00    -0.463 OA
ATOM     10  O   LIG A   1      -5.015   3.849 131.102  0.00  0.00    -0.333 OA
ATOM     11  C   LIG A   1      -3.919   4.763 130.971  0.00  0.00    +0.188 C 
ATOM     12  C   LIG A   1      -3.842   5.216 129.509  0.00  0.00    +0.168 C 
ATOM     13  C   LIG A   1      -4.010   5.880 132.009  0.00  0.00    +0.086 C 
ATOM     14  C   LIG A   1      -3.070   7.013 131.599  0.00  0.00    +0.181 C 
ATOM     15  O   LIG A   1      -3.435   7.517 130.304  0.00  0.00    -0.461 OA
ATOM     16  C   LIG A   1      -3.832   6.712 129.298  0.00  0.00    +0.316 C 
ATOM     17  O   LIG A   1      -4.145   7.205 128.215  0.00  0.00    -0.250 OA
ATOM     18  C   LIG A   1      -1.581   6.683 131.600  0.00  0.00    +0.052 C 
ATOM     19  C   LIG A   1      -5.444   6.403 132.186  0.00  0.00    +0.016 C 
ATOM     20  O   LIG A   1      -7.606   2.770 130.462  0.00  0.00    -0.288 OA
ATOM     21  C   LIG A   1      -6.428   3.381 127.121  0.00  0.00    +0.007 C 
ATOM     22  C   LIG A   1      -6.682   3.160 125.694  0.00  0.00    +0.056 C 
ATOM     23  C   LIG A   1      -5.772   3.567 124.788  0.00  0.00    +0.128 C 
ENDROOT
BRANCH  11  24
ATOM     24  O   LIG A   1      -2.751   3.993 131.252  0.00  0.00    -0.363 OA
ATOM     25  H   LIG A   1      -2.611   4.086 132.212  0.00  0.00    +0.213 HD
ENDBRANCH  11  24
BRANCH  23  26
ATOM     26  C   LIG A   1      -5.932   3.357 123.361  0.00  0.00    +0.042 C 
ATOM     27  C   LIG A   1      -5.437   4.169 122.411  0.00  0.00    -0.018 C 
BRANCH  27  28
ATOM     28  C   LIG A   1      -5.653   3.982 120.922  0.00  0.00    +0.037 C 
ATOM     29  C   LIG A   1      -7.160   3.972 120.651  0.00  0.00    +0.014 C 
BRANCH  28  30
ATOM     30  C   LIG A   1      -4.896   5.064 120.104  0.00  0.00    +0.118 C 
ATOM     31  C   LIG A   1      -5.758   5.699 119.018  0.00  0.00    +0.038 C 
BRANCH  30  32
ATOM     32  O   LIG A   1      -4.435   6.111 120.963  0.00  0.00    -0.392 OA
ATOM     33  H   LIG A   1      -5.029   6.143 121.732  0.00  0.00    +0.210 HD
ENDBRANCH  30  32
ENDBRANCH  28  30
ENDBRANCH  27  28
ENDBRANCH  23  26
TORSDOF 5
ENDMDL
MODEL 4
REMARK VINA RESULT:      -8.5      5.746      8.228
REMARK  Name = NuBBE_686
REMARK  10 active torsions:
REMARK  status: ('A' for Active; 'I' for Inactive)
REMARK    1  A    between atoms: C_4  and  C_5
REMARK    2  A    between atoms: C_12  and  O_13
REMARK    3  A    between atoms: C_16  and  C_24
REMARK    4  A    between atoms: C_18  and  C_23
REMARK    5  A    between atoms: C_28  and  C_29
REMARK    6  A    between atoms: C_30  and  C_31
REMARK    7  A    between atoms: C_31  and  C_33
REMARK    8  A    between atoms: C_31  and  C_34
REMARK    9  A    between atoms: C_34  and  O_36
REMARK   10  A    between atoms: C_34  and  C_37
REMARK                            x       y       z     vdW  Elec       q    Type
REMARK                         _______ _______ _______ _____ _____    ______ ____
ROOT
ATOM      1 CL   LIG A   1      -2.150   3.174 126.669  0.00  0.00    -0.079 Cl
ATOM      2  C   LIG A   1      -3.663   3.726 127.299  0.00  0.00    +0.094 C 
ATOM      3  C   LIG A   1      -3.631   4.208 128.733  0.00  0.00    +0.207 C 
ATOM      4  C   LIG A   1      -4.802   5.112 129.154  0.00  0.00    +0.141 C 
ATOM      5  C   LIG A   1      -4.579   6.503 128.525  0.00  0.00    +0.051 C 
ATOM      6  C   LIG A   1      -6.052   4.358 128.716  0.00  0.00    +0.081 C 
ATOM      7  C   LIG A   1      -6.073   4.245 127.218  0.00  0.00    +0.003 C 
ATOM      8  C   LIG A   1      -7.130   4.471 126.424  0.00  0.00    +0.200 C 
ATOM      9  O   LIG A   1      -7.121   4.310 125.055  0.00  0.00    -0.463 OA
ATOM     10  O   LIG A   1      -5.010   5.295 130.554  0.00  0.00    -0.333 OA
ATOM     11  C   LIG A   1      -6.410   5.522 130.764  0.00  0.00    +0.188 C 
ATOM     12  C   LIG A   1      -7.167   5.033 129.524  0.00  0.00    +0.168 C 
ATOM     13  C   LIG A   1      -6.866   4.932 132.096  0.00  0.00    +0.086 C 
ATOM     14  C   LIG A   1      -8.392   4.852 132.105  0.00  0.00    +0.181 C 
ATOM     15  O   LIG A   1      -8.852   4.028 131.022  0.00  0.00    -0.461 OA
ATOM     16  C   LIG A   1      -8.289   4.057 129.798  0.00  0.00    +0.316 C 
ATOM     17  O   LIG A   1      -8.718   3.317 128.914  0.00  0.00    -0.250 OA
ATOM     18  C   LIG A   1      -9.134   6.184 132.063  0.00  0.00    +0.052 C 
ATOM     19  C   LIG A   1      -6.250   3.551 132.371  0.00  0.00    +0.016 C 
ATOM     20  O   LIG A   1      -2.718   3.909 129.499  0.00  0.00    -0.288 OA
ATOM     21  C   LIG A   1      -4.806   3.817 126.574  0.00  0.00    +0.007 C 
ATOM     22  C   LIG A   1      -4.861   3.511 125.141  0.00  0.00    +0.056 C 
ATOM     23  C   LIG A   1      -5.984   3.778 124.448  0.00  0.00    +0.128 C 
ENDROOT
BRANCH  11  24
ATOM     24  O   LIG A   1      -6.556   6.939 130.835  0.00  0.00    -0.363 OA
ATOM     25  H   LIG A   1      -5.822   7.297 130.304  0.00  0.00    +0.213 HD
ENDBRANCH  11  24
BRANCH  23  26
ATOM     26  C   LIG A   1      -6.108   3.536 123.023  0.00  0.00    +0.042 C 
ATOM     27  C   LIG A   1      -5.549   4.301 122.069  0.00  0.00    -0.018 C 
BRANCH  27  28
ATOM     28  C   LIG A   1      -5.725   4.082 120.580  0.00  0.00    +0.037 C 
ATOM     29  C   LIG A   1      -7.223   3.967 120.283  0.00  0.00    +0.014 C 
BRANCH  28  30
ATOM     30  C   LIG A   1      -5.028   5.202 119.760  0.00  0.00    +0.118 C 
ATOM     31  C   LIG A   1      -5.936   5.813 118.697  0.00  0.00    +0.038 C 
BRANCH  30  32
ATOM     32  O   LIG A   1      -4.594   6.258 120.622  0.00  0.00    -0.392 OA
ATOM     33  H   LIG A   1      -4.772   5.982 121.537  0.00  0.00    +0.210 HD
ENDBRANCH  30  32
ENDBRANCH  28  30
ENDBRANCH  27  28
ENDBRANCH  23  26
TORSDOF 5
ENDMDL
MODEL 5
REMARK VINA RESULT:      -8.4      5.868      8.587
REMARK  Name = NuBBE_686
REMARK  10 active torsions:
REMARK  status: ('A' for Active; 'I' for Inactive)
REMARK    1  A    between atoms: C_4  and  C_5
REMARK    2  A    between atoms: C_12  and  O_13
REMARK    3  A    between atoms: C_16  and  C_24
REMARK    4  A    between atoms: C_18  and  C_23
REMARK    5  A    between atoms: C_28  and  C_29
REMARK    6  A    between atoms: C_30  and  C_31
REMARK    7  A    between atoms: C_31  and  C_33
REMARK    8  A    between atoms: C_31  and  C_34
REMARK    9  A    between atoms: C_34  and  O_36
REMARK   10  A    between atoms: C_34  and  C_37
REMARK                            x       y       z     vdW  Elec       q    Type
REMARK                         _______ _______ _______ _____ _____    ______ ____
ROOT
ATOM      1 CL   LIG A   1      -7.062  -2.744 131.964  0.00  0.00    -0.079 Cl
ATOM      2  C   LIG A   1      -7.279  -1.108 131.446  0.00  0.00    +0.094 C 
ATOM      3  C   LIG A   1      -7.096  -0.058 132.520  0.00  0.00    +0.207 C 
ATOM      4  C   LIG A   1      -6.822   1.368 132.012  0.00  0.00    +0.141 C 
ATOM      5  C   LIG A   1      -5.367   1.420 131.502  0.00  0.00    +0.051 C 
ATOM      6  C   LIG A   1      -7.915   1.631 130.983  0.00  0.00    +0.081 C 
ATOM      7  C   LIG A   1      -7.751   0.688 129.823  0.00  0.00    +0.003 C 
ATOM      8  C   LIG A   1      -7.821   1.017 128.525  0.00  0.00    +0.200 C 
ATOM      9  O   LIG A   1      -7.712   0.113 127.490  0.00  0.00    -0.463 OA
ATOM     10  O   LIG A   1      -6.995   2.434 132.945  0.00  0.00    -0.333 OA
ATOM     11  C   LIG A   1      -7.384   3.601 132.210  0.00  0.00    +0.188 C 
ATOM     12  C   LIG A   1      -7.897   3.156 130.836  0.00  0.00    +0.168 C 
ATOM     13  C   LIG A   1      -8.339   4.470 133.026  0.00  0.00    +0.086 C 
ATOM     14  C   LIG A   1      -9.016   5.472 132.093  0.00  0.00    +0.181 C 
ATOM     15  O   LIG A   1      -9.742   4.780 131.063  0.00  0.00    -0.461 OA
ATOM     16  C   LIG A   1      -9.268   3.670 130.463  0.00  0.00    +0.316 C 
ATOM     17  O   LIG A   1      -9.943   3.114 129.598  0.00  0.00    -0.250 OA
ATOM     18  C   LIG A   1      -8.103   6.507 131.443  0.00  0.00    +0.052 C 
ATOM     19  C   LIG A   1      -9.388   3.640 133.783  0.00  0.00    +0.016 C 
ATOM     20  O   LIG A   1      -7.143  -0.336 133.716  0.00  0.00    -0.288 OA
ATOM     21  C   LIG A   1      -7.518  -0.737 130.163  0.00  0.00    +0.007 C 
ATOM     22  C   LIG A   1      -7.553  -1.697 129.055  0.00  0.00    +0.056 C 
ATOM     23  C   LIG A   1      -7.630  -1.246 127.789  0.00  0.00    +0.128 C 
ENDROOT
BRANCH  11  24
ATOM     24  O   LIG A   1      -6.179   4.339 132.009  0.00  0.00    -0.363 OA
ATOM     25  H   LIG A   1      -6.150   4.521 131.052  0.00  0.00    +0.213 HD
ENDBRANCH  11  24
BRANCH  23  26
ATOM     26  C   LIG A   1      -7.636  -2.128 126.637  0.00  0.00    +0.042 C 
ATOM     27  C   LIG A   1      -6.568  -2.371 125.858  0.00  0.00    -0.018 C 
BRANCH  27  28
ATOM     28  C   LIG A   1      -6.588  -3.247 124.621  0.00  0.00    +0.037 C 
ATOM     29  C   LIG A   1      -7.875  -2.955 123.844  0.00  0.00    +0.014 C 
BRANCH  28  30
ATOM     30  C   LIG A   1      -5.305  -3.047 123.769  0.00  0.00    +0.118 C 
ATOM     31  C   LIG A   1      -4.512  -4.335 123.576  0.00  0.00    +0.038 C 
BRANCH  30  32
ATOM     32  O   LIG A   1      -5.637  -2.541 122.473  0.00  0.00    -0.392 OA
ATOM     33  H   LIG A   1      -6.197  -3.203 122.034  0.00  0.00    +0.210 HD
ENDBRANCH  30  32
ENDBRANCH  28  30
ENDBRANCH  27  28
ENDBRANCH  23  26
TORSDOF 5
ENDMDL
MODEL 6
REMARK VINA RESULT:      -8.1      4.121      8.540
REMARK  Name = NuBBE_686
REMARK  10 active torsions:
REMARK  status: ('A' for Active; 'I' for Inactive)
REMARK    1  A    between atoms: C_4  and  C_5
REMARK    2  A    between atoms: C_12  and  O_13
REMARK    3  A    between atoms: C_16  and  C_24
REMARK    4  A    between atoms: C_18  and  C_23
REMARK    5  A    between atoms: C_28  and  C_29
REMARK    6  A    between atoms: C_30  and  C_31
REMARK    7  A    between atoms: C_31  and  C_33
REMARK    8  A    between atoms: C_31  and  C_34
REMARK    9  A    between atoms: C_34  and  O_36
REMARK   10  A    between atoms: C_34  and  C_37
REMARK                            x       y       z     vdW  Elec       q    Type
REMARK                         _______ _______ _______ _____ _____    ______ ____
ROOT
ATOM      1 CL   LIG A   1      -7.892   3.648 134.496  0.00  0.00    -0.079 Cl
ATOM      2  C   LIG A   1      -7.913   2.861 132.956  0.00  0.00    +0.094 C 
ATOM      3  C   LIG A   1      -7.216   1.519 132.905  0.00  0.00    +0.207 C 
ATOM      4  C   LIG A   1      -7.612   0.613 131.727  0.00  0.00    +0.141 C 
ATOM      5  C   LIG A   1      -9.015   0.041 132.016  0.00  0.00    +0.051 C 
ATOM      6  C   LIG A   1      -7.477   1.497 130.493  0.00  0.00    +0.081 C 
ATOM      7  C   LIG A   1      -8.475   2.619 130.567  0.00  0.00    +0.003 C 
ATOM      8  C   LIG A   1      -9.264   3.040 129.567  0.00  0.00    +0.200 C 
ATOM      9  O   LIG A   1     -10.134   4.105 129.662  0.00  0.00    -0.463 OA
ATOM     10  O   LIG A   1      -6.747  -0.484 131.432  0.00  0.00    -0.333 OA
ATOM     11  C   LIG A   1      -6.837  -0.749 130.026  0.00  0.00    +0.188 C 
ATOM     12  C   LIG A   1      -7.432   0.487 129.341  0.00  0.00    +0.168 C 
ATOM     13  C   LIG A   1      -5.499  -1.234 129.474  0.00  0.00    +0.086 C 
ATOM     14  C   LIG A   1      -5.528  -1.135 127.950  0.00  0.00    +0.181 C 
ATOM     15  O   LIG A   1      -5.761   0.224 127.544  0.00  0.00    -0.461 OA
ATOM     16  C   LIG A   1      -6.626   1.034 128.186  0.00  0.00    +0.316 C 
ATOM     17  O   LIG A   1      -6.772   2.193 127.801  0.00  0.00    -0.250 OA
ATOM     18  C   LIG A   1      -6.527  -2.042 127.237  0.00  0.00    +0.052 C 
ATOM     19  C   LIG A   1      -4.307  -0.450 130.045  0.00  0.00    +0.016 C 
ATOM     20  O   LIG A   1      -6.405   1.174 133.761  0.00  0.00    -0.288 OA
ATOM     21  C   LIG A   1      -8.564   3.334 131.864  0.00  0.00    +0.007 C 
ATOM     22  C   LIG A   1      -9.383   4.550 131.896  0.00  0.00    +0.056 C 
ATOM     23  C   LIG A   1     -10.133   4.873 130.825  0.00  0.00    +0.128 C 
ENDROOT
BRANCH  11  24
ATOM     24  O   LIG A   1      -7.778  -1.814 129.903  0.00  0.00    -0.363 OA
ATOM     25  H   LIG A   1      -7.326  -2.596 130.267  0.00  0.00    +0.213 HD
ENDBRANCH  11  24
BRANCH  23  26
ATOM     26  C   LIG A   1     -10.995   6.040 130.789  0.00  0.00    +0.042 C 
ATOM     27  C   LIG A   1     -11.847   6.326 129.790  0.00  0.00    -0.018 C 
BRANCH  27  28
ATOM     28  C   LIG A   1     -12.706   7.574 129.724  0.00  0.00    +0.037 C 
ATOM     29  C   LIG A   1     -13.099   7.964 131.152  0.00  0.00    +0.014 C 
BRANCH  28  30
ATOM     30  C   LIG A   1     -11.981   8.716 128.960  0.00  0.00    +0.118 C 
ATOM     31  C   LIG A   1     -11.246   8.226 127.717  0.00  0.00    +0.038 C 
BRANCH  30  32
ATOM     32  O   LIG A   1     -12.916   9.716 128.549  0.00  0.00    -0.392 OA
ATOM     33  H   LIG A   1     -13.501   9.900 129.304  0.00  0.00    +0.210 HD
ENDBRANCH  30  32
ENDBRANCH  28  30
ENDBRANCH  27  28
ENDBRANCH  23  26
TORSDOF 5
ENDMDL
MODEL 7
REMARK VINA RESULT:      -8.1      5.652      7.817
REMARK  Name = NuBBE_686
REMARK  10 active torsions:
REMARK  status: ('A' for Active; 'I' for Inactive)
REMARK    1  A    between atoms: C_4  and  C_5
REMARK    2  A    between atoms: C_12  and  O_13
REMARK    3  A    between atoms: C_16  and  C_24
REMARK    4  A    between atoms: C_18  and  C_23
REMARK    5  A    between atoms: C_28  and  C_29
REMARK    6  A    between atoms: C_30  and  C_31
REMARK    7  A    between atoms: C_31  and  C_33
REMARK    8  A    between atoms: C_31  and  C_34
REMARK    9  A    between atoms: C_34  and  O_36
REMARK   10  A    between atoms: C_34  and  C_37
REMARK                            x       y       z     vdW  Elec       q    Type
REMARK                         _______ _______ _______ _____ _____    ______ ____
ROOT
ATOM      1 CL   LIG A   1      -7.835  -1.232 126.485  0.00  0.00    -0.079 Cl
ATOM      2  C   LIG A   1      -7.794   0.299 127.290  0.00  0.00    +0.094 C 
ATOM      3  C   LIG A   1      -7.660   0.237 128.796  0.00  0.00    +0.207 C 
ATOM      4  C   LIG A   1      -7.161   1.526 129.470  0.00  0.00    +0.141 C 
ATOM      5  C   LIG A   1      -5.649   1.654 129.191  0.00  0.00    +0.051 C 
ATOM      6  C   LIG A   1      -8.053   2.628 128.911  0.00  0.00    +0.081 C 
ATOM      7  C   LIG A   1      -7.821   2.761 127.432  0.00  0.00    +0.003 C 
ATOM      8  C   LIG A   1      -7.661   3.911 126.760  0.00  0.00    +0.200 C 
ATOM      9  O   LIG A   1      -7.497   3.993 125.394  0.00  0.00    -0.463 OA
ATOM     10  O   LIG A   1      -7.355   1.638 130.879  0.00  0.00    -0.333 OA
ATOM     11  C   LIG A   1      -7.501   3.029 131.193  0.00  0.00    +0.188 C 
ATOM     12  C   LIG A   1      -7.849   3.779 129.902  0.00  0.00    +0.168 C 
ATOM     13  C   LIG A   1      -8.468   3.230 132.358  0.00  0.00    +0.086 C 
ATOM     14  C   LIG A   1      -8.886   4.699 132.407  0.00  0.00    +0.181 C 
ATOM     15  O   LIG A   1      -9.521   5.076 131.174  0.00  0.00    -0.461 OA
ATOM     16  C   LIG A   1      -9.086   4.645 129.973  0.00  0.00    +0.316 C 
ATOM     17  O   LIG A   1      -9.680   4.991 128.953  0.00  0.00    -0.250 OA
ATOM     18  C   LIG A   1      -7.779   5.701 132.720  0.00  0.00    +0.052 C 
ATOM     19  C   LIG A   1      -9.701   2.319 132.263  0.00  0.00    +0.016 C 
ATOM     20  O   LIG A   1      -7.915  -0.785 129.429  0.00  0.00    -0.288 OA
ATOM     21  C   LIG A   1      -7.797   1.498 126.655  0.00  0.00    +0.007 C 
ATOM     22  C   LIG A   1      -7.769   1.619 125.193  0.00  0.00    +0.056 C 
ATOM     23  C   LIG A   1      -7.607   2.832 124.631  0.00  0.00    +0.128 C 
ENDROOT
BRANCH  11  24
ATOM     24  O   LIG A   1      -6.207   3.459 131.613  0.00  0.00    -0.363 OA
ATOM     25  H   LIG A   1      -6.321   4.391 131.873  0.00  0.00    +0.213 HD
ENDBRANCH  11  24
BRANCH  23  26
ATOM     26  C   LIG A   1      -7.537   3.032 123.196  0.00  0.00    +0.042 C 
ATOM     27  C   LIG A   1      -6.394   3.157 122.500  0.00  0.00    -0.018 C 
BRANCH  27  28
ATOM     28  C   LIG A   1      -6.321   3.423 121.009  0.00  0.00    +0.037 C 
ATOM     29  C   LIG A   1      -7.687   3.937 120.544  0.00  0.00    +0.014 C 
BRANCH  28  30
ATOM     30  C   LIG A   1      -5.158   4.395 120.668  0.00  0.00    +0.118 C 
ATOM     31  C   LIG A   1      -5.498   5.352 119.530  0.00  0.00    +0.038 C 
BRANCH  30  32
ATOM     32  O   LIG A   1      -4.810   5.181 121.811  0.00  0.00    -0.392 OA
ATOM     33  H   LIG A   1      -5.129   6.086 121.653  0.00  0.00    +0.210 HD
ENDBRANCH  30  32
ENDBRANCH  28  30
ENDBRANCH  27  28
ENDBRANCH  23  26
TORSDOF 5
ENDMDL
MODEL 8
REMARK VINA RESULT:      -8.0      3.586      8.628
REMARK  Name = NuBBE_686
REMARK  10 active torsions:
REMARK  status: ('A' for Active; 'I' for Inactive)
REMARK    1  A    between atoms: C_4  and  C_5
REMARK    2  A    between atoms: C_12  and  O_13
REMARK    3  A    between atoms: C_16  and  C_24
REMARK    4  A    between atoms: C_18  and  C_23
REMARK    5  A    between atoms: C_28  and  C_29
REMARK    6  A    between atoms: C_30  and  C_31
REMARK    7  A    between atoms: C_31  and  C_33
REMARK    8  A    between atoms: C_31  and  C_34
REMARK    9  A    between atoms: C_34  and  O_36
REMARK   10  A    between atoms: C_34  and  C_37
REMARK                            x       y       z     vdW  Elec       q    Type
REMARK                         _______ _______ _______ _____ _____    ______ ____
ROOT
ATOM      1 CL   LIG A   1      -6.591   6.878 131.482  0.00  0.00    -0.079 Cl
ATOM      2  C   LIG A   1      -7.096   5.225 131.416  0.00  0.00    +0.094 C 
ATOM      3  C   LIG A   1      -6.167   4.236 132.086  0.00  0.00    +0.207 C 
ATOM      4  C   LIG A   1      -6.795   2.879 132.447  0.00  0.00    +0.141 C 
ATOM      5  C   LIG A   1      -7.704   3.087 133.677  0.00  0.00    +0.051 C 
ATOM      6  C   LIG A   1      -7.478   2.412 131.167  0.00  0.00    +0.081 C 
ATOM      7  C   LIG A   1      -8.593   3.358 130.817  0.00  0.00    +0.003 C 
ATOM      8  C   LIG A   1      -9.829   3.010 130.432  0.00  0.00    +0.200 C 
ATOM      9  O   LIG A   1     -10.811   3.909 130.075  0.00  0.00    -0.463 OA
ATOM     10  O   LIG A   1      -5.900   1.808 132.743  0.00  0.00    -0.333 OA
ATOM     11  C   LIG A   1      -6.543   0.582 132.371  0.00  0.00    +0.188 C 
ATOM     12  C   LIG A   1      -7.691   0.914 131.410  0.00  0.00    +0.168 C 
ATOM     13  C   LIG A   1      -5.526  -0.438 131.863  0.00  0.00    +0.086 C 
ATOM     14  C   LIG A   1      -6.269  -1.555 131.132  0.00  0.00    +0.181 C 
ATOM     15  O   LIG A   1      -7.015  -1.016 130.028  0.00  0.00    -0.461 OA
ATOM     16  C   LIG A   1      -7.676   0.156 130.103  0.00  0.00    +0.316 C 
ATOM     17  O   LIG A   1      -8.286   0.573 129.119  0.00  0.00    -0.250 OA
ATOM     18  C   LIG A   1      -7.198  -2.413 131.985  0.00  0.00    +0.052 C 
ATOM     19  C   LIG A   1      -4.464   0.195 130.950  0.00  0.00    +0.016 C 
ATOM     20  O   LIG A   1      -4.997   4.511 132.339  0.00  0.00    -0.288 OA
ATOM     21  C   LIG A   1      -8.271   4.805 130.884  0.00  0.00    +0.007 C 
ATOM     22  C   LIG A   1      -9.279   5.733 130.360  0.00  0.00    +0.056 C 
ATOM     23  C   LIG A   1     -10.489   5.263 129.999  0.00  0.00    +0.128 C 
ENDROOT
BRANCH  11  24
ATOM     24  O   LIG A   1      -7.114   0.074 133.576  0.00  0.00    -0.363 OA
ATOM     25  H   LIG A   1      -8.075   0.193 133.471  0.00  0.00    +0.213 HD
ENDBRANCH  11  24
BRANCH  23  26
ATOM     26  C   LIG A   1     -11.550   6.119 129.503  0.00  0.00    +0.042 C 
ATOM     27  C   LIG A   1     -11.355   7.210 128.742  0.00  0.00    -0.018 C 
BRANCH  27  28
ATOM     28  C   LIG A   1     -12.459   8.137 128.271  0.00  0.00    +0.037 C 
ATOM     29  C   LIG A   1     -13.736   7.311 128.087  0.00  0.00    +0.014 C 
BRANCH  28  30
ATOM     30  C   LIG A   1     -12.643   9.332 129.245  0.00  0.00    +0.118 C 
ATOM     31  C   LIG A   1     -13.739  10.296 128.802  0.00  0.00    +0.038 C 
BRANCH  30  32
ATOM     32  O   LIG A   1     -12.977   8.865 130.555  0.00  0.00    -0.392 OA
ATOM     33  H   LIG A   1     -13.919   8.621 130.549  0.00  0.00    +0.210 HD
ENDBRANCH  30  32
ENDBRANCH  28  30
ENDBRANCH  27  28
ENDBRANCH  23  26
TORSDOF 5
ENDMDL
MODEL 9
REMARK VINA RESULT:      -8.0      4.031      6.375
REMARK  Name = NuBBE_686
REMARK  10 active torsions:
REMARK  status: ('A' for Active; 'I' for Inactive)
REMARK    1  A    between atoms: C_4  and  C_5
REMARK    2  A    between atoms: C_12  and  O_13
REMARK    3  A    between atoms: C_16  and  C_24
REMARK    4  A    between atoms: C_18  and  C_23
REMARK    5  A    between atoms: C_28  and  C_29
REMARK    6  A    between atoms: C_30  and  C_31
REMARK    7  A    between atoms: C_31  and  C_33
REMARK    8  A    between atoms: C_31  and  C_34
REMARK    9  A    between atoms: C_34  and  O_36
REMARK   10  A    between atoms: C_34  and  C_37
REMARK                            x       y       z     vdW  Elec       q    Type
REMARK                         _______ _______ _______ _____ _____    ______ ____
ROOT
ATOM      1 CL   LIG A   1      -7.010   4.059 135.235  0.00  0.00    -0.079 Cl
ATOM      2  C   LIG A   1      -7.801   4.237 133.707  0.00  0.00    +0.094 C 
ATOM      3  C   LIG A   1      -8.320   5.625 133.403  0.00  0.00    +0.207 C 
ATOM      4  C   LIG A   1      -8.592   5.920 131.918  0.00  0.00    +0.141 C 
ATOM      5  C   LIG A   1      -7.232   6.112 131.215  0.00  0.00    +0.051 C 
ATOM      6  C   LIG A   1      -9.448   4.753 131.441  0.00  0.00    +0.081 C 
ATOM      7  C   LIG A   1      -8.653   3.480 131.520  0.00  0.00    +0.003 C 
ATOM      8  C   LIG A   1      -8.585   2.533 130.573  0.00  0.00    +0.200 C 
ATOM      9  O   LIG A   1      -7.881   1.355 130.704  0.00  0.00    -0.463 OA
ATOM     10  O   LIG A   1      -9.401   7.057 131.620  0.00  0.00    -0.333 OA
ATOM     11  C   LIG A   1     -10.094   6.793 130.393  0.00  0.00    +0.188 C 
ATOM     12  C   LIG A   1     -10.063   5.281 130.139  0.00  0.00    +0.168 C 
ATOM     13  C   LIG A   1     -11.478   7.438 130.396  0.00  0.00    +0.086 C 
ATOM     14  C   LIG A   1     -12.311   6.826 129.271  0.00  0.00    +0.181 C 
ATOM     15  O   LIG A   1     -12.432   5.406 129.457  0.00  0.00    -0.461 OA
ATOM     16  C   LIG A   1     -11.410   4.643 129.891  0.00  0.00    +0.316 C 
ATOM     17  O   LIG A   1     -11.579   3.433 130.044  0.00  0.00    -0.250 OA
ATOM     18  C   LIG A   1     -11.823   7.099 127.851  0.00  0.00    +0.052 C 
ATOM     19  C   LIG A   1     -12.196   7.283 131.746  0.00  0.00    +0.016 C 
ATOM     20  O   LIG A   1      -8.491   6.463 134.286  0.00  0.00    -0.288 OA
ATOM     21  C   LIG A   1      -7.902   3.253 132.779  0.00  0.00    +0.007 C 
ATOM     22  C   LIG A   1      -7.284   1.934 132.954  0.00  0.00    +0.056 C 
ATOM     23  C   LIG A   1      -7.283   1.062 131.928  0.00  0.00    +0.128 C 
ENDROOT
BRANCH  11  24
ATOM     24  O   LIG A   1      -9.315   7.423 129.377  0.00  0.00    -0.363 OA
ATOM     25  H   LIG A   1      -8.861   6.694 128.917  0.00  0.00    +0.213 HD
ENDBRANCH  11  24
BRANCH  23  26
ATOM     26  C   LIG A   1      -6.665  -0.249 132.008  0.00  0.00    +0.042 C 
ATOM     27  C   LIG A   1      -7.057  -1.321 131.298  0.00  0.00    -0.018 C 
BRANCH  27  28
ATOM     28  C   LIG A   1      -6.449  -2.704 131.424  0.00  0.00    +0.037 C 
ATOM     29  C   LIG A   1      -7.021  -3.370 132.679  0.00  0.00    +0.014 C 
BRANCH  28  30
ATOM     30  C   LIG A   1      -6.681  -3.539 130.135  0.00  0.00    +0.118 C 
ATOM     31  C   LIG A   1      -8.024  -3.249 129.472  0.00  0.00    +0.038 C 
BRANCH  30  32
ATOM     32  O   LIG A   1      -5.654  -3.274 129.175  0.00  0.00    -0.392 OA
ATOM     33  H   LIG A   1      -5.423  -2.332 129.244  0.00  0.00    +0.210 HD
ENDBRANCH  30  32
ENDBRANCH  28  30
ENDBRANCH  27  28
ENDBRANCH  23  26
TORSDOF 5
ENDMDL
