MODEL 1
REMARK VINA RESULT:      -6.5      0.000      0.000
REMARK  Name = NuBBE_1333
REMARK  11 active torsions:
REMARK  status: ('A' for Active; 'I' for Inactive)
REMARK    1  A    between atoms: C_4  and  C_5
REMARK    2  A    between atoms: C_7  and  O_8
REMARK    3  A    between atoms: O_8  and  C_9
REMARK    4  A    between atoms: C_10  and  O_11
REMARK    5  A    between atoms: O_11  and  C_12
REMARK    6  A    between atoms: C_13  and  O_14
REMARK    7  A    between atoms: O_14  and  C_15
REMARK    8  A    between atoms: C_21  and  O_22
REMARK    9  A    between atoms: O_22  and  C_23
REMARK   10  A    between atoms: C_25  and  O_26
REMARK   11  A    between atoms: O_26  and  C_27
REMARK                            x       y       z     vdW  Elec       q    Type
REMARK                         _______ _______ _______ _____ _____    ______ ____
ROOT
ATOM      1  O   LIG A   1      -9.820  -0.076 125.138  0.00  0.00    -0.287 OA
ATOM      2  C   LIG A   1      -8.617  -0.114 125.329  0.00  0.00    +0.197 A 
ATOM      3  C   LIG A   1      -7.961   1.067 125.914  0.00  0.00    +0.098 A 
ATOM      4  C   LIG A   1      -6.637   1.080 126.085  0.00  0.00    +0.140 A 
ATOM      5  O   LIG A   1      -5.803   0.036 125.754  0.00  0.00    -0.454 OA
ATOM      6  C   LIG A   1      -7.737  -1.263 125.017  0.00  0.00    +0.106 A 
ATOM      7  C   LIG A   1      -6.367  -1.108 125.251  0.00  0.00    +0.146 A 
ATOM      8  C   LIG A   1      -5.470  -2.138 124.984  0.00  0.00    +0.092 A 
ATOM      9  C   LIG A   1      -5.937  -3.339 124.468  0.00  0.00    +0.127 A 
ATOM     10  C   LIG A   1      -7.309  -3.517 124.266  0.00  0.00    +0.092 A 
ATOM     11  C   LIG A   1      -8.220  -2.485 124.535  0.00  0.00    +0.138 A 
ENDROOT
BRANCH   4  12
ATOM     12  C   LIG A   1      -5.938   2.258 126.636  0.00  0.00    +0.025 A 
ATOM     13  C   LIG A   1      -4.628   2.558 126.263  0.00  0.00    +0.061 A 
ATOM     14  C   LIG A   1      -3.963   3.668 126.797  0.00  0.00    +0.166 A 
ATOM     15  C   LIG A   1      -4.620   4.501 127.741  0.00  0.00    +0.203 A 
ATOM     16  C   LIG A   1      -5.960   4.228 128.087  0.00  0.00    +0.166 A 
ATOM     17  C   LIG A   1      -6.590   3.115 127.523  0.00  0.00    +0.061 A 
BRANCH  14  18
ATOM     18  O   LIG A   1      -2.672   4.004 126.448  0.00  0.00    -0.491 OA
ATOM     19  C   LIG A   1      -1.685   2.978 126.535  0.00  0.00    +0.277 C 
ENDBRANCH  14  18
BRANCH  15  20
ATOM     20  O   LIG A   1      -3.849   5.537 128.223  0.00  0.00    -0.488 OA
ATOM     21  C   LIG A   1      -3.192   5.374 129.472  0.00  0.00    +0.277 C 
ENDBRANCH  15  20
BRANCH  16  22
ATOM     22  O   LIG A   1      -6.631   5.062 128.945  0.00  0.00    -0.491 OA
ATOM     23  C   LIG A   1      -6.990   4.559 130.229  0.00  0.00    +0.277 C 
ENDBRANCH  16  22
ENDBRANCH   4  12
BRANCH   9  24
ATOM     24  O   LIG A   1      -5.145  -4.411 124.161  0.00  0.00    -0.495 OA
ATOM     25  C   LIG A   1      -3.981  -4.102 123.400  0.00  0.00    +0.277 C 
ENDBRANCH   9  24
BRANCH  11  26
ATOM     26  O   LIG A   1      -9.562  -2.603 124.302  0.00  0.00    -0.494 OA
ATOM     27  C   LIG A   1      -9.950  -3.444 123.225  0.00  0.00    +0.277 C 
ENDBRANCH  11  26
TORSDOF 6
ENDMDL
MODEL 2
REMARK VINA RESULT:      -6.5      2.566      8.962
REMARK  Name = NuBBE_1333
REMARK  11 active torsions:
REMARK  status: ('A' for Active; 'I' for Inactive)
REMARK    1  A    between atoms: C_4  and  C_5
REMARK    2  A    between atoms: C_7  and  O_8
REMARK    3  A    between atoms: O_8  and  C_9
REMARK    4  A    between atoms: C_10  and  O_11
REMARK    5  A    between atoms: O_11  and  C_12
REMARK    6  A    between atoms: C_13  and  O_14
REMARK    7  A    between atoms: O_14  and  C_15
REMARK    8  A    between atoms: C_21  and  O_22
REMARK    9  A    between atoms: O_22  and  C_23
REMARK   10  A    between atoms: C_25  and  O_26
REMARK   11  A    between atoms: O_26  and  C_27
REMARK                            x       y       z     vdW  Elec       q    Type
REMARK                         _______ _______ _______ _____ _____    ______ ____
ROOT
ATOM      1  O   LIG A   1      -5.481   4.877 128.521  0.00  0.00    -0.287 OA
ATOM      2  C   LIG A   1      -6.538   4.300 128.705  0.00  0.00    +0.197 A 
ATOM      3  C   LIG A   1      -6.802   3.061 127.954  0.00  0.00    +0.098 A 
ATOM      4  C   LIG A   1      -7.973   2.433 128.091  0.00  0.00    +0.140 A 
ATOM      5  O   LIG A   1      -8.988   2.860 128.916  0.00  0.00    -0.454 OA
ATOM      6  C   LIG A   1      -7.603   4.740 129.635  0.00  0.00    +0.106 A 
ATOM      7  C   LIG A   1      -8.776   3.981 129.677  0.00  0.00    +0.146 A 
ATOM      8  C   LIG A   1      -9.828   4.326 130.521  0.00  0.00    +0.092 A 
ATOM      9  C   LIG A   1      -9.717   5.447 131.333  0.00  0.00    +0.127 A 
ATOM     10  C   LIG A   1      -8.533   6.190 131.326  0.00  0.00    +0.092 A 
ATOM     11  C   LIG A   1      -7.468   5.848 130.480  0.00  0.00    +0.138 A 
ENDROOT
BRANCH   4  12
ATOM     12  C   LIG A   1      -8.289   1.209 127.328  0.00  0.00    +0.025 A 
ATOM     13  C   LIG A   1      -9.053   1.264 126.163  0.00  0.00    +0.061 A 
ATOM     14  C   LIG A   1      -9.363   0.100 125.449  0.00  0.00    +0.166 A 
ATOM     15  C   LIG A   1      -8.907  -1.161 125.916  0.00  0.00    +0.203 A 
ATOM     16  C   LIG A   1      -8.095  -1.216 127.069  0.00  0.00    +0.166 A 
ATOM     17  C   LIG A   1      -7.801  -0.029 127.747  0.00  0.00    +0.061 A 
BRANCH  14  18
ATOM     18  O   LIG A   1     -10.109   0.112 124.289  0.00  0.00    -0.491 OA
ATOM     19  C   LIG A   1     -10.251   1.362 123.617  0.00  0.00    +0.277 C 
ENDBRANCH  14  18
BRANCH  15  20
ATOM     20  O   LIG A   1      -9.309  -2.233 125.151  0.00  0.00    -0.488 OA
ATOM     21  C   LIG A   1      -8.389  -2.793 124.225  0.00  0.00    +0.277 C 
ENDBRANCH  15  20
BRANCH  16  22
ATOM     22  O   LIG A   1      -7.589  -2.418 127.495  0.00  0.00    -0.491 OA
ATOM     23  C   LIG A   1      -8.401  -3.229 128.340  0.00  0.00    +0.277 C 
ENDBRANCH  16  22
ENDBRANCH   4  12
BRANCH   9  24
ATOM     24  O   LIG A   1     -10.689   5.881 132.191  0.00  0.00    -0.495 OA
ATOM     25  C   LIG A   1     -11.791   6.539 131.571  0.00  0.00    +0.277 C 
ENDBRANCH   9  24
BRANCH  11  26
ATOM     26  O   LIG A   1      -6.316   6.579 130.407  0.00  0.00    -0.494 OA
ATOM     27  C   LIG A   1      -5.528   6.647 131.588  0.00  0.00    +0.277 C 
ENDBRANCH  11  26
TORSDOF 6
ENDMDL
MODEL 3
REMARK VINA RESULT:      -6.4      0.741      2.534
REMARK  Name = NuBBE_1333
REMARK  11 active torsions:
REMARK  status: ('A' for Active; 'I' for Inactive)
REMARK    1  A    between atoms: C_4  and  C_5
REMARK    2  A    between atoms: C_7  and  O_8
REMARK    3  A    between atoms: O_8  and  C_9
REMARK    4  A    between atoms: C_10  and  O_11
REMARK    5  A    between atoms: O_11  and  C_12
REMARK    6  A    between atoms: C_13  and  O_14
REMARK    7  A    between atoms: O_14  and  C_15
REMARK    8  A    between atoms: C_21  and  O_22
REMARK    9  A    between atoms: O_22  and  C_23
REMARK   10  A    between atoms: C_25  and  O_26
REMARK   11  A    between atoms: O_26  and  C_27
REMARK                            x       y       z     vdW  Elec       q    Type
REMARK                         _______ _______ _______ _____ _____    ______ ____
ROOT
ATOM      1  O   LIG A   1      -9.637  -0.927 125.826  0.00  0.00    -0.287 OA
ATOM      2  C   LIG A   1      -8.450  -0.662 125.774  0.00  0.00    +0.197 A 
ATOM      3  C   LIG A   1      -7.980   0.583 126.404  0.00  0.00    +0.098 A 
ATOM      4  C   LIG A   1      -6.694   0.932 126.318  0.00  0.00    +0.140 A 
ATOM      5  O   LIG A   1      -5.732   0.189 125.671  0.00  0.00    -0.454 OA
ATOM      6  C   LIG A   1      -7.415  -1.495 125.119  0.00  0.00    +0.106 A 
ATOM      7  C   LIG A   1      -6.105  -1.004 125.109  0.00  0.00    +0.146 A 
ATOM      8  C   LIG A   1      -5.072  -1.722 124.513  0.00  0.00    +0.092 A 
ATOM      9  C   LIG A   1      -5.344  -2.944 123.912  0.00  0.00    +0.127 A 
ATOM     10  C   LIG A   1      -6.642  -3.460 123.950  0.00  0.00    +0.092 A 
ATOM     11  C   LIG A   1      -7.688  -2.743 124.551  0.00  0.00    +0.138 A 
ENDROOT
BRANCH   4  12
ATOM     12  C   LIG A   1      -6.190   2.189 126.906  0.00  0.00    +0.025 A 
ATOM     13  C   LIG A   1      -6.991   2.962 127.747  0.00  0.00    +0.061 A 
ATOM     14  C   LIG A   1      -6.516   4.161 128.292  0.00  0.00    +0.166 A 
ATOM     15  C   LIG A   1      -5.206   4.611 127.982  0.00  0.00    +0.203 A 
ATOM     16  C   LIG A   1      -4.376   3.809 127.169  0.00  0.00    +0.166 A 
ATOM     17  C   LIG A   1      -4.886   2.615 126.653  0.00  0.00    +0.061 A 
BRANCH  14  18
ATOM     18  O   LIG A   1      -7.273   4.949 129.134  0.00  0.00    -0.491 OA
ATOM     19  C   LIG A   1      -7.764   4.345 130.329  0.00  0.00    +0.277 C 
ENDBRANCH  14  18
BRANCH  15  20
ATOM     20  O   LIG A   1      -4.869   5.821 128.547  0.00  0.00    -0.488 OA
ATOM     21  C   LIG A   1      -4.158   5.825 129.777  0.00  0.00    +0.277 C 
ENDBRANCH  15  20
BRANCH  16  22
ATOM     22  O   LIG A   1      -3.085   4.196 126.916  0.00  0.00    -0.491 OA
ATOM     23  C   LIG A   1      -2.075   3.191 126.879  0.00  0.00    +0.277 C 
ENDBRANCH  16  22
ENDBRANCH   4  12
BRANCH   9  24
ATOM     24  O   LIG A   1      -4.409  -3.726 123.291  0.00  0.00    -0.495 OA
ATOM     25  C   LIG A   1      -4.445  -5.106 123.649  0.00  0.00    +0.277 C 
ENDBRANCH   9  24
BRANCH  11  26
ATOM     26  O   LIG A   1      -8.979  -3.190 124.563  0.00  0.00    -0.494 OA
ATOM     27  C   LIG A   1      -9.623  -3.316 123.302  0.00  0.00    +0.277 C 
ENDBRANCH  11  26
TORSDOF 6
ENDMDL
MODEL 4
REMARK VINA RESULT:      -6.4      4.497      6.181
REMARK  Name = NuBBE_1333
REMARK  11 active torsions:
REMARK  status: ('A' for Active; 'I' for Inactive)
REMARK    1  A    between atoms: C_4  and  C_5
REMARK    2  A    between atoms: C_7  and  O_8
REMARK    3  A    between atoms: O_8  and  C_9
REMARK    4  A    between atoms: C_10  and  O_11
REMARK    5  A    between atoms: O_11  and  C_12
REMARK    6  A    between atoms: C_13  and  O_14
REMARK    7  A    between atoms: O_14  and  C_15
REMARK    8  A    between atoms: C_21  and  O_22
REMARK    9  A    between atoms: O_22  and  C_23
REMARK   10  A    between atoms: C_25  and  O_26
REMARK   11  A    between atoms: O_26  and  C_27
REMARK                            x       y       z     vdW  Elec       q    Type
REMARK                         _______ _______ _______ _____ _____    ______ ____
ROOT
ATOM      1  O   LIG A   1      -9.863  -2.479 125.331  0.00  0.00    -0.287 OA
ATOM      2  C   LIG A   1      -8.891  -1.928 125.818  0.00  0.00    +0.197 A 
ATOM      3  C   LIG A   1      -8.306  -2.493 127.045  0.00  0.00    +0.098 A 
ATOM      4  C   LIG A   1      -7.275  -1.883 127.636  0.00  0.00    +0.140 A 
ATOM      5  O   LIG A   1      -6.687  -0.729 127.168  0.00  0.00    -0.454 OA
ATOM      6  C   LIG A   1      -8.233  -0.717 125.276  0.00  0.00    +0.106 A 
ATOM      7  C   LIG A   1      -7.160  -0.189 126.001  0.00  0.00    +0.146 A 
ATOM      8  C   LIG A   1      -6.487   0.948 125.564  0.00  0.00    +0.092 A 
ATOM      9  C   LIG A   1      -6.889   1.577 124.393  0.00  0.00    +0.127 A 
ATOM     10  C   LIG A   1      -7.936   1.035 123.643  0.00  0.00    +0.092 A 
ATOM     11  C   LIG A   1      -8.618  -0.112 124.075  0.00  0.00    +0.138 A 
ENDROOT
BRANCH   4  12
ATOM     12  C   LIG A   1      -6.684  -2.397 128.887  0.00  0.00    +0.025 A 
ATOM     13  C   LIG A   1      -5.343  -2.776 128.947  0.00  0.00    +0.061 A 
ATOM     14  C   LIG A   1      -4.788  -3.277 130.131  0.00  0.00    +0.166 A 
ATOM     15  C   LIG A   1      -5.596  -3.415 131.290  0.00  0.00    +0.203 A 
ATOM     16  C   LIG A   1      -6.941  -2.989 131.247  0.00  0.00    +0.166 A 
ATOM     17  C   LIG A   1      -7.453  -2.487 130.048  0.00  0.00    +0.061 A 
BRANCH  14  18
ATOM     18  O   LIG A   1      -3.466  -3.655 130.233  0.00  0.00    -0.491 OA
ATOM     19  C   LIG A   1      -2.712  -3.730 129.025  0.00  0.00    +0.277 C 
ENDBRANCH  14  18
BRANCH  15  20
ATOM     20  O   LIG A   1      -4.947  -3.954 132.378  0.00  0.00    -0.488 OA
ATOM     21  C   LIG A   1      -5.210  -5.305 132.728  0.00  0.00    +0.277 C 
ENDBRANCH  15  20
BRANCH  16  22
ATOM     22  O   LIG A   1      -7.717  -3.053 132.376  0.00  0.00    -0.491 OA
ATOM     23  C   LIG A   1      -7.691  -1.947 133.275  0.00  0.00    +0.277 C 
ENDBRANCH  16  22
ENDBRANCH   4  12
BRANCH   9  24
ATOM     24  O   LIG A   1      -6.306   2.702 123.878  0.00  0.00    -0.495 OA
ATOM     25  C   LIG A   1      -6.822   3.125 122.618  0.00  0.00    +0.277 C 
ENDBRANCH   9  24
BRANCH  11  26
ATOM     26  O   LIG A   1      -9.679  -0.642 123.396  0.00  0.00    -0.494 OA
ATOM     27  C   LIG A   1     -10.291   0.190 122.419  0.00  0.00    +0.277 C 
ENDBRANCH  11  26
TORSDOF 6
ENDMDL
MODEL 5
REMARK VINA RESULT:      -6.4      5.346      7.996
REMARK  Name = NuBBE_1333
REMARK  11 active torsions:
REMARK  status: ('A' for Active; 'I' for Inactive)
REMARK    1  A    between atoms: C_4  and  C_5
REMARK    2  A    between atoms: C_7  and  O_8
REMARK    3  A    between atoms: O_8  and  C_9
REMARK    4  A    between atoms: C_10  and  O_11
REMARK    5  A    between atoms: O_11  and  C_12
REMARK    6  A    between atoms: C_13  and  O_14
REMARK    7  A    between atoms: O_14  and  C_15
REMARK    8  A    between atoms: C_21  and  O_22
REMARK    9  A    between atoms: O_22  and  C_23
REMARK   10  A    between atoms: C_25  and  O_26
REMARK   11  A    between atoms: O_26  and  C_27
REMARK                            x       y       z     vdW  Elec       q    Type
REMARK                         _______ _______ _______ _____ _____    ______ ____
ROOT
ATOM      1  O   LIG A   1      -3.032  -3.402 130.201  0.00  0.00    -0.287 OA
ATOM      2  C   LIG A   1      -4.200  -3.092 130.051  0.00  0.00    +0.197 A 
ATOM      3  C   LIG A   1      -4.686  -2.825 128.687  0.00  0.00    +0.098 A 
ATOM      4  C   LIG A   1      -5.947  -2.429 128.493  0.00  0.00    +0.140 A 
ATOM      5  O   LIG A   1      -6.867  -2.253 129.501  0.00  0.00    -0.454 OA
ATOM      6  C   LIG A   1      -5.196  -2.956 131.139  0.00  0.00    +0.106 A 
ATOM      7  C   LIG A   1      -6.482  -2.536 130.786  0.00  0.00    +0.146 A 
ATOM      8  C   LIG A   1      -7.478  -2.381 131.746  0.00  0.00    +0.092 A 
ATOM      9  C   LIG A   1      -7.191  -2.639 133.080  0.00  0.00    +0.127 A 
ATOM     10  C   LIG A   1      -5.920  -3.096 133.437  0.00  0.00    +0.092 A 
ATOM     11  C   LIG A   1      -4.911  -3.257 132.475  0.00  0.00    +0.138 A 
ENDROOT
BRANCH   4  12
ATOM     12  C   LIG A   1      -6.462  -2.117 127.145  0.00  0.00    +0.025 A 
ATOM     13  C   LIG A   1      -5.695  -2.363 126.006  0.00  0.00    +0.061 A 
ATOM     14  C   LIG A   1      -6.180  -2.053 124.730  0.00  0.00    +0.166 A 
ATOM     15  C   LIG A   1      -7.466  -1.470 124.583  0.00  0.00    +0.203 A 
ATOM     16  C   LIG A   1      -8.264  -1.262 125.728  0.00  0.00    +0.166 A 
ATOM     17  C   LIG A   1      -7.745  -1.594 126.983  0.00  0.00    +0.061 A 
BRANCH  14  18
ATOM     18  O   LIG A   1      -5.457  -2.288 123.579  0.00  0.00    -0.491 OA
ATOM     19  C   LIG A   1      -4.682  -3.484 123.528  0.00  0.00    +0.277 C 
ENDBRANCH  14  18
BRANCH  15  20
ATOM     20  O   LIG A   1      -7.814  -1.175 123.283  0.00  0.00    -0.488 OA
ATOM     21  C   LIG A   1      -8.696  -2.054 122.598  0.00  0.00    +0.277 C 
ENDBRANCH  15  20
BRANCH  16  22
ATOM     22  O   LIG A   1      -9.535  -0.762 125.597  0.00  0.00    -0.491 OA
ATOM     23  C   LIG A   1      -9.714   0.650 125.659  0.00  0.00    +0.277 C 
ENDBRANCH  16  22
ENDBRANCH   4  12
BRANCH   9  24
ATOM     24  O   LIG A   1      -8.088  -2.511 134.104  0.00  0.00    -0.495 OA
ATOM     25  C   LIG A   1      -8.209  -3.654 134.946  0.00  0.00    +0.277 C 
ENDBRANCH   9  24
BRANCH  11  26
ATOM     26  O   LIG A   1      -3.642  -3.651 132.793  0.00  0.00    -0.494 OA
ATOM     27  C   LIG A   1      -3.503  -4.932 133.393  0.00  0.00    +0.277 C 
ENDBRANCH  11  26
TORSDOF 6
ENDMDL
MODEL 6
REMARK VINA RESULT:      -6.4      5.424      8.344
REMARK  Name = NuBBE_1333
REMARK  11 active torsions:
REMARK  status: ('A' for Active; 'I' for Inactive)
REMARK    1  A    between atoms: C_4  and  C_5
REMARK    2  A    between atoms: C_7  and  O_8
REMARK    3  A    between atoms: O_8  and  C_9
REMARK    4  A    between atoms: C_10  and  O_11
REMARK    5  A    between atoms: O_11  and  C_12
REMARK    6  A    between atoms: C_13  and  O_14
REMARK    7  A    between atoms: O_14  and  C_15
REMARK    8  A    between atoms: C_21  and  O_22
REMARK    9  A    between atoms: O_22  and  C_23
REMARK   10  A    between atoms: C_25  and  O_26
REMARK   11  A    between atoms: O_26  and  C_27
REMARK                            x       y       z     vdW  Elec       q    Type
REMARK                         _______ _______ _______ _____ _____    ______ ____
ROOT
ATOM      1  O   LIG A   1      -2.940  -3.220 130.207  0.00  0.00    -0.287 OA
ATOM      2  C   LIG A   1      -4.136  -3.050 130.047  0.00  0.00    +0.197 A 
ATOM      3  C   LIG A   1      -4.628  -2.753 128.692  0.00  0.00    +0.098 A 
ATOM      4  C   LIG A   1      -5.925  -2.506 128.491  0.00  0.00    +0.140 A 
ATOM      5  O   LIG A   1      -6.878  -2.516 129.484  0.00  0.00    -0.454 OA
ATOM      6  C   LIG A   1      -5.160  -3.115 131.115  0.00  0.00    +0.106 A 
ATOM      7  C   LIG A   1      -6.482  -2.837 130.757  0.00  0.00    +0.146 A 
ATOM      8  C   LIG A   1      -7.506  -2.873 131.699  0.00  0.00    +0.092 A 
ATOM      9  C   LIG A   1      -7.213  -3.184 133.020  0.00  0.00    +0.127 A 
ATOM     10  C   LIG A   1      -5.900  -3.501 133.380  0.00  0.00    +0.092 A 
ATOM     11  C   LIG A   1      -4.863  -3.468 132.436  0.00  0.00    +0.138 A 
ENDROOT
BRANCH   4  12
ATOM     12  C   LIG A   1      -6.451  -2.169 127.153  0.00  0.00    +0.025 A 
ATOM     13  C   LIG A   1      -7.699  -1.564 127.002  0.00  0.00    +0.061 A 
ATOM     14  C   LIG A   1      -8.202  -1.259 125.731  0.00  0.00    +0.166 A 
ATOM     15  C   LIG A   1      -7.443  -1.574 124.573  0.00  0.00    +0.203 A 
ATOM     16  C   LIG A   1      -6.161  -2.144 124.724  0.00  0.00    +0.166 A 
ATOM     17  C   LIG A   1      -5.692  -2.425 126.011  0.00  0.00    +0.061 A 
BRANCH  14  18
ATOM     18  O   LIG A   1      -9.426  -0.654 125.539  0.00  0.00    -0.491 OA
ATOM     19  C   LIG A   1      -9.543   0.718 125.911  0.00  0.00    +0.277 C 
ENDBRANCH  14  18
BRANCH  15  20
ATOM     20  O   LIG A   1      -8.061  -1.261 123.383  0.00  0.00    -0.488 OA
ATOM     21  C   LIG A   1      -8.725  -2.293 122.667  0.00  0.00    +0.277 C 
ENDBRANCH  15  20
BRANCH  16  22
ATOM     22  O   LIG A   1      -5.387  -2.393 123.619  0.00  0.00    -0.491 OA
ATOM     23  C   LIG A   1      -4.601  -3.581 123.600  0.00  0.00    +0.277 C 
ENDBRANCH  16  22
ENDBRANCH   4  12
BRANCH   9  24
ATOM     24  O   LIG A   1      -8.137  -3.240 134.027  0.00  0.00    -0.495 OA
ATOM     25  C   LIG A   1      -7.948  -4.301 134.960  0.00  0.00    +0.277 C 
ENDBRANCH   9  24
BRANCH  11  26
ATOM     26  O   LIG A   1      -3.559  -3.721 132.760  0.00  0.00    -0.494 OA
ATOM     27  C   LIG A   1      -3.289  -4.964 133.393  0.00  0.00    +0.277 C 
ENDBRANCH  11  26
TORSDOF 6
ENDMDL
MODEL 7
REMARK VINA RESULT:      -6.3      5.599      7.941
REMARK  Name = NuBBE_1333
REMARK  11 active torsions:
REMARK  status: ('A' for Active; 'I' for Inactive)
REMARK    1  A    between atoms: C_4  and  C_5
REMARK    2  A    between atoms: C_7  and  O_8
REMARK    3  A    between atoms: O_8  and  C_9
REMARK    4  A    between atoms: C_10  and  O_11
REMARK    5  A    between atoms: O_11  and  C_12
REMARK    6  A    between atoms: C_13  and  O_14
REMARK    7  A    between atoms: O_14  and  C_15
REMARK    8  A    between atoms: C_21  and  O_22
REMARK    9  A    between atoms: O_22  and  C_23
REMARK   10  A    between atoms: C_25  and  O_26
REMARK   11  A    between atoms: O_26  and  C_27
REMARK                            x       y       z     vdW  Elec       q    Type
REMARK                         _______ _______ _______ _____ _____    ______ ____
ROOT
ATOM      1  O   LIG A   1      -3.561  -3.376 129.605  0.00  0.00    -0.287 OA
ATOM      2  C   LIG A   1      -4.733  -3.114 129.806  0.00  0.00    +0.197 A 
ATOM      3  C   LIG A   1      -5.530  -2.561 128.698  0.00  0.00    +0.098 A 
ATOM      4  C   LIG A   1      -6.803  -2.211 128.899  0.00  0.00    +0.140 A 
ATOM      5  O   LIG A   1      -7.459  -2.338 130.102  0.00  0.00    -0.454 OA
ATOM      6  C   LIG A   1      -5.444  -3.304 131.091  0.00  0.00    +0.106 A 
ATOM      7  C   LIG A   1      -6.780  -2.894 131.155  0.00  0.00    +0.146 A 
ATOM      8  C   LIG A   1      -7.521  -3.034 132.325  0.00  0.00    +0.092 A 
ATOM      9  C   LIG A   1      -6.925  -3.584 133.452  0.00  0.00    +0.127 A 
ATOM     10  C   LIG A   1      -5.603  -4.031 133.387  0.00  0.00    +0.092 A 
ATOM     11  C   LIG A   1      -4.850  -3.895 132.211  0.00  0.00    +0.138 A 
ENDROOT
BRANCH   4  12
ATOM     12  C   LIG A   1      -7.623  -1.620 127.823  0.00  0.00    +0.025 A 
ATOM     13  C   LIG A   1      -8.276  -2.426 126.891  0.00  0.00    +0.061 A 
ATOM     14  C   LIG A   1      -9.043  -1.863 125.863  0.00  0.00    +0.166 A 
ATOM     15  C   LIG A   1      -9.155  -0.451 125.754  0.00  0.00    +0.203 A 
ATOM     16  C   LIG A   1      -8.534   0.366 126.723  0.00  0.00    +0.166 A 
ATOM     17  C   LIG A   1      -7.786  -0.237 127.738  0.00  0.00    +0.061 A 
BRANCH  14  18
ATOM     18  O   LIG A   1      -9.709  -2.624 124.927  0.00  0.00    -0.491 OA
ATOM     19  C   LIG A   1      -8.918  -3.304 123.955  0.00  0.00    +0.277 C 
ENDBRANCH  14  18
BRANCH  15  20
ATOM     20  O   LIG A   1      -9.902  -0.019 124.681  0.00  0.00    -0.488 OA
ATOM     21  C   LIG A   1      -9.226   0.475 123.534  0.00  0.00    +0.277 C 
ENDBRANCH  15  20
BRANCH  16  22
ATOM     22  O   LIG A   1      -8.689   1.728 126.671  0.00  0.00    -0.491 OA
ATOM     23  C   LIG A   1      -7.525   2.533 126.500  0.00  0.00    +0.277 C 
ENDBRANCH  16  22
ENDBRANCH   4  12
BRANCH   9  24
ATOM     24  O   LIG A   1      -7.556  -3.759 134.653  0.00  0.00    -0.495 OA
ATOM     25  C   LIG A   1      -7.221  -4.964 135.339  0.00  0.00    +0.277 C 
ENDBRANCH   9  24
BRANCH  11  26
ATOM     26  O   LIG A   1      -3.540  -4.272 132.124  0.00  0.00    -0.494 OA
ATOM     27  C   LIG A   1      -2.953  -4.817 133.298  0.00  0.00    +0.277 C 
ENDBRANCH  11  26
TORSDOF 6
ENDMDL
MODEL 8
REMARK VINA RESULT:      -6.2      2.574      8.888
REMARK  Name = NuBBE_1333
REMARK  11 active torsions:
REMARK  status: ('A' for Active; 'I' for Inactive)
REMARK    1  A    between atoms: C_4  and  C_5
REMARK    2  A    between atoms: C_7  and  O_8
REMARK    3  A    between atoms: O_8  and  C_9
REMARK    4  A    between atoms: C_10  and  O_11
REMARK    5  A    between atoms: O_11  and  C_12
REMARK    6  A    between atoms: C_13  and  O_14
REMARK    7  A    between atoms: O_14  and  C_15
REMARK    8  A    between atoms: C_21  and  O_22
REMARK    9  A    between atoms: O_22  and  C_23
REMARK   10  A    between atoms: C_25  and  O_26
REMARK   11  A    between atoms: O_26  and  C_27
REMARK                            x       y       z     vdW  Elec       q    Type
REMARK                         _______ _______ _______ _____ _____    ______ ____
ROOT
ATOM      1  O   LIG A   1      -5.089   4.486 128.631  0.00  0.00    -0.287 OA
ATOM      2  C   LIG A   1      -6.223   4.055 128.739  0.00  0.00    +0.197 A 
ATOM      3  C   LIG A   1      -6.594   2.853 127.974  0.00  0.00    +0.098 A 
ATOM      4  C   LIG A   1      -7.844   2.386 128.026  0.00  0.00    +0.140 A 
ATOM      5  O   LIG A   1      -8.851   2.953 128.774  0.00  0.00    -0.454 OA
ATOM      6  C   LIG A   1      -7.285   4.643 129.588  0.00  0.00    +0.106 A 
ATOM      7  C   LIG A   1      -8.548   4.045 129.546  0.00  0.00    +0.146 A 
ATOM      8  C   LIG A   1      -9.603   4.536 130.310  0.00  0.00    +0.092 A 
ATOM      9  C   LIG A   1      -9.403   5.642 131.125  0.00  0.00    +0.127 A 
ATOM     10  C   LIG A   1      -8.134   6.223 131.203  0.00  0.00    +0.092 A 
ATOM     11  C   LIG A   1      -7.066   5.733 130.437  0.00  0.00    +0.138 A 
ENDROOT
BRANCH   4  12
ATOM     12  C   LIG A   1      -8.264   1.206 127.246  0.00  0.00    +0.025 A 
ATOM     13  C   LIG A   1      -7.924  -0.085 127.652  0.00  0.00    +0.061 A 
ATOM     14  C   LIG A   1      -8.311  -1.202 126.903  0.00  0.00    +0.166 A 
ATOM     15  C   LIG A   1      -9.053  -1.029 125.704  0.00  0.00    +0.203 A 
ATOM     16  C   LIG A   1      -9.439   0.271 125.314  0.00  0.00    +0.166 A 
ATOM     17  C   LIG A   1      -9.039   1.359 126.096  0.00  0.00    +0.061 A 
BRANCH  14  18
ATOM     18  O   LIG A   1      -8.002  -2.493 127.274  0.00  0.00    -0.491 OA
ATOM     19  C   LIG A   1      -7.960  -2.779 128.671  0.00  0.00    +0.277 C 
ENDBRANCH  14  18
BRANCH  15  20
ATOM     20  O   LIG A   1      -9.340  -2.199 125.037  0.00  0.00    -0.488 OA
ATOM     21  C   LIG A   1      -8.605  -2.513 123.863  0.00  0.00    +0.277 C 
ENDBRANCH  15  20
BRANCH  16  22
ATOM     22  O   LIG A   1     -10.213   0.450 124.196  0.00  0.00    -0.491 OA
ATOM     23  C   LIG A   1      -9.860   1.493 123.291  0.00  0.00    +0.277 C 
ENDBRANCH  16  22
ENDBRANCH   4  12
BRANCH   9  24
ATOM     24  O   LIG A   1     -10.368   6.211 131.909  0.00  0.00    -0.495 OA
ATOM     25  C   LIG A   1     -11.655   6.313 131.303  0.00  0.00    +0.277 C 
ENDBRANCH   9  24
BRANCH  11  26
ATOM     26  O   LIG A   1      -5.825   6.306 130.447  0.00  0.00    -0.494 OA
ATOM     27  C   LIG A   1      -5.253   6.568 131.721  0.00  0.00    +0.277 C 
ENDBRANCH  11  26
TORSDOF 6
ENDMDL
MODEL 9
REMARK VINA RESULT:      -6.2      3.735      5.717
REMARK  Name = NuBBE_1333
REMARK  11 active torsions:
REMARK  status: ('A' for Active; 'I' for Inactive)
REMARK    1  A    between atoms: C_4  and  C_5
REMARK    2  A    between atoms: C_7  and  O_8
REMARK    3  A    between atoms: O_8  and  C_9
REMARK    4  A    between atoms: C_10  and  O_11
REMARK    5  A    between atoms: O_11  and  C_12
REMARK    6  A    between atoms: C_13  and  O_14
REMARK    7  A    between atoms: O_14  and  C_15
REMARK    8  A    between atoms: C_21  and  O_22
REMARK    9  A    between atoms: O_22  and  C_23
REMARK   10  A    between atoms: C_25  and  O_26
REMARK   11  A    between atoms: O_26  and  C_27
REMARK                            x       y       z     vdW  Elec       q    Type
REMARK                         _______ _______ _______ _____ _____    ______ ____
ROOT
ATOM      1  O   LIG A   1      -6.769  -1.489 126.330  0.00  0.00    -0.287 OA
ATOM      2  C   LIG A   1      -7.288  -0.402 126.508  0.00  0.00    +0.197 A 
ATOM      3  C   LIG A   1      -7.563   0.028 127.889  0.00  0.00    +0.098 A 
ATOM      4  C   LIG A   1      -8.182   1.190 128.118  0.00  0.00    +0.140 A 
ATOM      5  O   LIG A   1      -8.591   2.056 127.129  0.00  0.00    -0.454 OA
ATOM      6  C   LIG A   1      -7.677   0.546 125.439  0.00  0.00    +0.106 A 
ATOM      7  C   LIG A   1      -8.315   1.728 125.826  0.00  0.00    +0.146 A 
ATOM      8  C   LIG A   1      -8.715   2.673 124.886  0.00  0.00    +0.092 A 
ATOM      9  C   LIG A   1      -8.486   2.437 123.537  0.00  0.00    +0.127 A 
ATOM     10  C   LIG A   1      -7.816   1.276 123.142  0.00  0.00    +0.092 A 
ATOM     11  C   LIG A   1      -7.407   0.321 124.085  0.00  0.00    +0.138 A 
ENDROOT
BRANCH   4  12
ATOM     12  C   LIG A   1      -8.507   1.639 129.486  0.00  0.00    +0.025 A 
ATOM     13  C   LIG A   1      -9.259   2.793 129.705  0.00  0.00    +0.061 A 
ATOM     14  C   LIG A   1      -9.554   3.224 131.004  0.00  0.00    +0.166 A 
ATOM     15  C   LIG A   1      -9.077   2.488 132.121  0.00  0.00    +0.203 A 
ATOM     16  C   LIG A   1      -8.356   1.295 131.903  0.00  0.00    +0.166 A 
ATOM     17  C   LIG A   1      -8.091   0.895 130.591  0.00  0.00    +0.061 A 
BRANCH  14  18
ATOM     18  O   LIG A   1     -10.299   4.355 131.264  0.00  0.00    -0.491 OA
ATOM     19  C   LIG A   1      -9.826   5.587 130.724  0.00  0.00    +0.277 C 
ENDBRANCH  14  18
BRANCH  15  20
ATOM     20  O   LIG A   1      -9.399   3.034 133.344  0.00  0.00    -0.488 OA
ATOM     21  C   LIG A   1      -8.416   3.793 134.032  0.00  0.00    +0.277 C 
ENDBRANCH  15  20
BRANCH  16  22
ATOM     22  O   LIG A   1      -7.947   0.537 132.971  0.00  0.00    -0.491 OA
ATOM     23  C   LIG A   1      -7.544  -0.808 132.727  0.00  0.00    +0.277 C 
ENDBRANCH  16  22
ENDBRANCH   4  12
BRANCH   9  24
ATOM     24  O   LIG A   1      -8.845   3.290 122.530  0.00  0.00    -0.495 OA
ATOM     25  C   LIG A   1      -7.848   3.497 121.532  0.00  0.00    +0.277 C 
ENDBRANCH   9  24
BRANCH  11  26
ATOM     26  O   LIG A   1      -6.795  -0.850 123.734  0.00  0.00    -0.494 OA
ATOM     27  C   LIG A   1      -7.517  -1.711 122.864  0.00  0.00    +0.277 C 
ENDBRANCH  11  26
TORSDOF 6
ENDMDL
