MODEL 1
REMARK VINA RESULT:      -6.5      0.000      0.000
REMARK  Name = NuBBE_661
REMARK  6 active torsions:
REMARK  status: ('A' for Active; 'I' for Inactive)
REMARK    1  A    between atoms: C_5  and  C_14
REMARK    2  A    between atoms: C_6  and  O_7
REMARK    3  A    between atoms: O_7  and  C_8
REMARK    4  A    between atoms: C_17  and  C_18
REMARK    5  A    between atoms: C_18  and  C_19
REMARK    6  A    between atoms: C_18  and  C_20
REMARK                            x       y       z     vdW  Elec       q    Type
REMARK                         _______ _______ _______ _____ _____    ______ ____
ROOT
ATOM      1  O   LIG A   1     -10.770   7.812 125.811  0.00  0.00    -0.245 OA
ATOM      2  C   LIG A   1     -11.121   7.680 126.973  0.00  0.00    +0.337 A 
ATOM      3  O   LIG A   1     -10.375   6.963 127.899  0.00  0.00    -0.422 OA
ATOM      4  C   LIG A   1     -10.789   6.811 129.247  0.00  0.00    +0.148 A 
ATOM      5  C   LIG A   1      -9.964   6.048 130.099  0.00  0.00    +0.068 A 
ATOM      6  C   LIG A   1     -10.429   5.876 131.426  0.00  0.00    +0.129 A 
ATOM      7  C   LIG A   1     -11.634   6.462 131.848  0.00  0.00    +0.047 A 
ATOM      8  C   LIG A   1     -12.403   7.228 130.977  0.00  0.00    +0.015 A 
ATOM      9  C   LIG A   1     -11.987   7.399 129.664  0.00  0.00    +0.018 A 
ATOM     10  C   LIG A   1     -12.784   8.164 128.721  0.00  0.00    +0.018 A 
ATOM     11  C   LIG A   1     -12.371   8.289 127.458  0.00  0.00    +0.092 A 
ENDROOT
BRANCH   5  12
ATOM     12  C   LIG A   1      -8.675   5.422 129.600  0.00  0.00    +0.185 C 
ATOM     13  O   LIG A   1      -8.661   4.962 128.236  0.00  0.00    -0.363 OA
ATOM     14  C   LIG A   1      -8.583   3.942 129.235  0.00  0.00    +0.155 C 
BRANCH  14  15
ATOM     15  C   LIG A   1      -7.263   3.207 129.254  0.00  0.00    +0.014 C 
ATOM     16  C   LIG A   1      -7.280   2.078 130.285  0.00  0.00    +0.010 C 
ATOM     17  C   LIG A   1      -6.934   2.645 127.869  0.00  0.00    +0.010 C 
ENDBRANCH  14  15
ENDBRANCH   5  12
BRANCH   6  18
ATOM     18  O   LIG A   1      -9.688   5.056 132.244  0.00  0.00    -0.495 OA
ATOM     19  C   LIG A   1      -8.915   5.713 133.246  0.00  0.00    +0.277 C 
ENDBRANCH   6  18
TORSDOF 3
ENDMDL
MODEL 2
REMARK VINA RESULT:      -6.4      3.648      4.736
REMARK  Name = NuBBE_661
REMARK  6 active torsions:
REMARK  status: ('A' for Active; 'I' for Inactive)
REMARK    1  A    between atoms: C_5  and  C_14
REMARK    2  A    between atoms: C_6  and  O_7
REMARK    3  A    between atoms: O_7  and  C_8
REMARK    4  A    between atoms: C_17  and  C_18
REMARK    5  A    between atoms: C_18  and  C_19
REMARK    6  A    between atoms: C_18  and  C_20
REMARK                            x       y       z     vdW  Elec       q    Type
REMARK                         _______ _______ _______ _____ _____    ______ ____
ROOT
ATOM      1  O   LIG A   1      -9.764   7.757 128.928  0.00  0.00    -0.245 OA
ATOM      2  C   LIG A   1      -9.436   7.246 129.987  0.00  0.00    +0.337 A 
ATOM      3  O   LIG A   1      -8.109   7.127 130.376  0.00  0.00    -0.422 OA
ATOM      4  C   LIG A   1      -7.733   6.529 131.607  0.00  0.00    +0.148 A 
ATOM      5  C   LIG A   1      -6.356   6.445 131.895  0.00  0.00    +0.068 A 
ATOM      6  C   LIG A   1      -6.012   5.802 133.109  0.00  0.00    +0.129 A 
ATOM      7  C   LIG A   1      -7.007   5.306 133.969  0.00  0.00    +0.047 A 
ATOM      8  C   LIG A   1      -8.356   5.434 133.652  0.00  0.00    +0.015 A 
ATOM      9  C   LIG A   1      -8.727   6.041 132.461  0.00  0.00    +0.018 A 
ATOM     10  C   LIG A   1     -10.125   6.160 132.085  0.00  0.00    +0.018 A 
ATOM     11  C   LIG A   1     -10.449   6.725 130.920  0.00  0.00    +0.092 A 
ENDROOT
BRANCH   5  12
ATOM     12  C   LIG A   1      -5.312   6.984 130.934  0.00  0.00    +0.185 C 
ATOM     13  O   LIG A   1      -5.291   6.416 129.613  0.00  0.00    -0.363 OA
ATOM     14  C   LIG A   1      -4.155   6.122 130.431  0.00  0.00    +0.155 C 
BRANCH  14  15
ATOM     15  C   LIG A   1      -2.870   6.741 129.935  0.00  0.00    +0.014 C 
ATOM     16  C   LIG A   1      -1.722   6.473 130.909  0.00  0.00    +0.010 C 
ATOM     17  C   LIG A   1      -2.511   6.209 128.545  0.00  0.00    +0.010 C 
ENDBRANCH  14  15
ENDBRANCH   5  12
BRANCH   6  18
ATOM     18  O   LIG A   1      -4.671   5.624 133.363  0.00  0.00    -0.495 OA
ATOM     19  C   LIG A   1      -4.173   6.251 134.542  0.00  0.00    +0.277 C 
ENDBRANCH   6  18
TORSDOF 3
ENDMDL
MODEL 3
REMARK VINA RESULT:      -6.3      3.316      5.970
REMARK  Name = NuBBE_661
REMARK  6 active torsions:
REMARK  status: ('A' for Active; 'I' for Inactive)
REMARK    1  A    between atoms: C_5  and  C_14
REMARK    2  A    between atoms: C_6  and  O_7
REMARK    3  A    between atoms: O_7  and  C_8
REMARK    4  A    between atoms: C_17  and  C_18
REMARK    5  A    between atoms: C_18  and  C_19
REMARK    6  A    between atoms: C_18  and  C_20
REMARK                            x       y       z     vdW  Elec       q    Type
REMARK                         _______ _______ _______ _____ _____    ______ ____
ROOT
ATOM      1  O   LIG A   1      -4.197   8.224 129.150  0.00  0.00    -0.245 OA
ATOM      2  C   LIG A   1      -4.472   7.669 130.202  0.00  0.00    +0.337 A 
ATOM      3  O   LIG A   1      -5.731   7.145 130.460  0.00  0.00    -0.422 OA
ATOM      4  C   LIG A   1      -6.046   6.503 131.686  0.00  0.00    +0.148 A 
ATOM      5  C   LIG A   1      -7.361   6.022 131.848  0.00  0.00    +0.068 A 
ATOM      6  C   LIG A   1      -7.656   5.428 133.100  0.00  0.00    +0.129 A 
ATOM      7  C   LIG A   1      -6.670   5.318 134.095  0.00  0.00    +0.047 A 
ATOM      8  C   LIG A   1      -5.378   5.788 133.879  0.00  0.00    +0.015 A 
ATOM      9  C   LIG A   1      -5.061   6.393 132.671  0.00  0.00    +0.018 A 
ATOM     10  C   LIG A   1      -3.731   6.923 132.427  0.00  0.00    +0.018 A 
ATOM     11  C   LIG A   1      -3.463   7.524 131.266  0.00  0.00    +0.092 A 
ENDROOT
BRANCH   5  12
ATOM     12  C   LIG A   1      -8.399   6.170 130.752  0.00  0.00    +0.185 C 
ATOM     13  O   LIG A   1      -8.524   7.469 130.146  0.00  0.00    -0.363 OA
ATOM     14  C   LIG A   1      -9.642   7.040 130.928  0.00  0.00    +0.155 C 
BRANCH  14  15
ATOM     15  C   LIG A   1     -10.895   6.798 130.119  0.00  0.00    +0.014 C 
ATOM     16  C   LIG A   1     -12.126   6.731 131.023  0.00  0.00    +0.010 C 
ATOM     17  C   LIG A   1     -11.080   7.890 129.063  0.00  0.00    +0.010 C 
ENDBRANCH  14  15
ENDBRANCH   5  12
BRANCH   6  18
ATOM     18  O   LIG A   1      -8.958   5.039 133.314  0.00  0.00    -0.495 OA
ATOM     19  C   LIG A   1      -9.145   3.677 133.693  0.00  0.00    +0.277 C 
ENDBRANCH   6  18
TORSDOF 3
ENDMDL
MODEL 4
REMARK VINA RESULT:      -6.1      7.650      9.320
REMARK  Name = NuBBE_661
REMARK  6 active torsions:
REMARK  status: ('A' for Active; 'I' for Inactive)
REMARK    1  A    between atoms: C_5  and  C_14
REMARK    2  A    between atoms: C_6  and  O_7
REMARK    3  A    between atoms: O_7  and  C_8
REMARK    4  A    between atoms: C_17  and  C_18
REMARK    5  A    between atoms: C_18  and  C_19
REMARK    6  A    between atoms: C_18  and  C_20
REMARK                            x       y       z     vdW  Elec       q    Type
REMARK                         _______ _______ _______ _____ _____    ______ ____
ROOT
ATOM      1  O   LIG A   1      -7.492  -1.529 122.577  0.00  0.00    -0.245 OA
ATOM      2  C   LIG A   1      -7.824  -2.020 123.644  0.00  0.00    +0.337 A 
ATOM      3  O   LIG A   1      -7.184  -1.712 124.837  0.00  0.00    -0.422 OA
ATOM      4  C   LIG A   1      -7.573  -2.288 126.074  0.00  0.00    +0.148 A 
ATOM      5  C   LIG A   1      -6.843  -1.917 127.221  0.00  0.00    +0.068 A 
ATOM      6  C   LIG A   1      -7.226  -2.545 128.432  0.00  0.00    +0.129 A 
ATOM      7  C   LIG A   1      -8.289  -3.462 128.463  0.00  0.00    +0.047 A 
ATOM      8  C   LIG A   1      -8.996  -3.779 127.307  0.00  0.00    +0.015 A 
ATOM      9  C   LIG A   1      -8.634  -3.197 126.100  0.00  0.00    +0.018 A 
ATOM     10  C   LIG A   1      -9.330  -3.532 124.870  0.00  0.00    +0.018 A 
ATOM     11  C   LIG A   1      -8.941  -2.977 123.720  0.00  0.00    +0.092 A 
ENDROOT
BRANCH   5  12
ATOM     12  C   LIG A   1      -5.693  -0.930 127.144  0.00  0.00    +0.185 C 
ATOM     13  O   LIG A   1      -5.475  -0.094 128.294  0.00  0.00    -0.363 OA
ATOM     14  C   LIG A   1      -5.924   0.580 127.115  0.00  0.00    +0.155 C 
BRANCH  14  15
ATOM     15  C   LIG A   1      -4.901   1.522 126.525  0.00  0.00    +0.014 C 
ATOM     16  C   LIG A   1      -5.546   2.456 125.499  0.00  0.00    +0.010 C 
ATOM     17  C   LIG A   1      -4.219   2.342 127.622  0.00  0.00    +0.010 C 
ENDBRANCH  14  15
ENDBRANCH   5  12
BRANCH   6  18
ATOM     18  O   LIG A   1      -6.464  -2.269 129.545  0.00  0.00    -0.495 OA
ATOM     19  C   LIG A   1      -5.864  -3.396 130.181  0.00  0.00    +0.277 C 
ENDBRANCH   6  18
TORSDOF 3
ENDMDL
MODEL 5
REMARK VINA RESULT:      -6.1      7.325      9.538
REMARK  Name = NuBBE_661
REMARK  6 active torsions:
REMARK  status: ('A' for Active; 'I' for Inactive)
REMARK    1  A    between atoms: C_5  and  C_14
REMARK    2  A    between atoms: C_6  and  O_7
REMARK    3  A    between atoms: O_7  and  C_8
REMARK    4  A    between atoms: C_17  and  C_18
REMARK    5  A    between atoms: C_18  and  C_19
REMARK    6  A    between atoms: C_18  and  C_20
REMARK                            x       y       z     vdW  Elec       q    Type
REMARK                         _______ _______ _______ _____ _____    ______ ____
ROOT
ATOM      1  O   LIG A   1      -7.521  -1.432 129.738  0.00  0.00    -0.245 OA
ATOM      2  C   LIG A   1      -7.888  -1.869 128.658  0.00  0.00    +0.337 A 
ATOM      3  O   LIG A   1      -7.886  -1.097 127.505  0.00  0.00    -0.422 OA
ATOM      4  C   LIG A   1      -8.317  -1.609 126.253  0.00  0.00    +0.148 A 
ATOM      5  C   LIG A   1      -8.290  -0.733 125.149  0.00  0.00    +0.068 A 
ATOM      6  C   LIG A   1      -8.769  -1.260 123.924  0.00  0.00    +0.129 A 
ATOM      7  C   LIG A   1      -9.218  -2.589 123.839  0.00  0.00    +0.047 A 
ATOM      8  C   LIG A   1      -9.203  -3.423 124.953  0.00  0.00    +0.015 A 
ATOM      9  C   LIG A   1      -8.758  -2.933 126.172  0.00  0.00    +0.018 A 
ATOM     10  C   LIG A   1      -8.763  -3.767 127.360  0.00  0.00    +0.018 A 
ATOM     11  C   LIG A   1      -8.354  -3.259 128.525  0.00  0.00    +0.092 A 
ENDROOT
BRANCH   5  12
ATOM     12  C   LIG A   1      -7.807   0.699 125.286  0.00  0.00    +0.185 C 
ATOM     13  O   LIG A   1      -7.221   1.302 124.118  0.00  0.00    -0.363 OA
ATOM     14  C   LIG A   1      -6.326   1.065 125.209  0.00  0.00    +0.155 C 
BRANCH  14  15
ATOM     15  C   LIG A   1      -5.792   2.326 125.845  0.00  0.00    +0.014 C 
ATOM     16  C   LIG A   1      -4.476   2.055 126.574  0.00  0.00    +0.010 C 
ATOM     17  C   LIG A   1      -5.592   3.422 124.795  0.00  0.00    +0.010 C 
ENDBRANCH  14  15
ENDBRANCH   5  12
BRANCH   6  18
ATOM     18  O   LIG A   1      -8.841  -0.394 122.858  0.00  0.00    -0.495 OA
ATOM     19  C   LIG A   1     -10.152   0.027 122.487  0.00  0.00    +0.277 C 
ENDBRANCH   6  18
TORSDOF 3
ENDMDL
MODEL 6
REMARK VINA RESULT:      -6.1      6.410      9.479
REMARK  Name = NuBBE_661
REMARK  6 active torsions:
REMARK  status: ('A' for Active; 'I' for Inactive)
REMARK    1  A    between atoms: C_5  and  C_14
REMARK    2  A    between atoms: C_6  and  O_7
REMARK    3  A    between atoms: O_7  and  C_8
REMARK    4  A    between atoms: C_17  and  C_18
REMARK    5  A    between atoms: C_18  and  C_19
REMARK    6  A    between atoms: C_18  and  C_20
REMARK                            x       y       z     vdW  Elec       q    Type
REMARK                         _______ _______ _______ _____ _____    ______ ____
ROOT
ATOM      1  O   LIG A   1      -5.829   0.032 130.329  0.00  0.00    -0.245 OA
ATOM      2  C   LIG A   1      -6.501  -0.830 129.786  0.00  0.00    +0.337 A 
ATOM      3  O   LIG A   1      -6.969  -0.700 128.486  0.00  0.00    -0.422 OA
ATOM      4  C   LIG A   1      -7.753  -1.704 127.860  0.00  0.00    +0.148 A 
ATOM      5  C   LIG A   1      -8.190  -1.461 126.542  0.00  0.00    +0.068 A 
ATOM      6  C   LIG A   1      -9.009  -2.462 125.964  0.00  0.00    +0.129 A 
ATOM      7  C   LIG A   1      -9.331  -3.629 126.676  0.00  0.00    +0.047 A 
ATOM      8  C   LIG A   1      -8.855  -3.835 127.968  0.00  0.00    +0.015 A 
ATOM      9  C   LIG A   1      -8.068  -2.865 128.572  0.00  0.00    +0.018 A 
ATOM     10  C   LIG A   1      -7.584  -3.035 129.930  0.00  0.00    +0.018 A 
ATOM     11  C   LIG A   1      -6.851  -2.072 130.494  0.00  0.00    +0.092 A 
ENDROOT
BRANCH   5  12
ATOM     12  C   LIG A   1      -7.828  -0.181 125.811  0.00  0.00    +0.185 C 
ATOM     13  O   LIG A   1      -8.130   1.056 126.480  0.00  0.00    -0.363 OA
ATOM     14  C   LIG A   1      -8.893   0.787 125.301  0.00  0.00    +0.155 C 
BRANCH  14  15
ATOM     15  C   LIG A   1      -8.612   1.739 124.162  0.00  0.00    +0.014 C 
ATOM     16  C   LIG A   1      -9.664   1.599 123.061  0.00  0.00    +0.010 C 
ATOM     17  C   LIG A   1      -8.564   3.185 124.660  0.00  0.00    +0.010 C 
ENDBRANCH  14  15
ENDBRANCH   5  12
BRANCH   6  18
ATOM     18  O   LIG A   1      -9.524  -2.201 124.715  0.00  0.00    -0.495 OA
ATOM     19  C   LIG A   1      -9.287  -3.198 123.724  0.00  0.00    +0.277 C 
ENDBRANCH   6  18
TORSDOF 3
ENDMDL
MODEL 7
REMARK VINA RESULT:      -5.9      7.208      8.807
REMARK  Name = NuBBE_661
REMARK  6 active torsions:
REMARK  status: ('A' for Active; 'I' for Inactive)
REMARK    1  A    between atoms: C_5  and  C_14
REMARK    2  A    between atoms: C_6  and  O_7
REMARK    3  A    between atoms: O_7  and  C_8
REMARK    4  A    between atoms: C_17  and  C_18
REMARK    5  A    between atoms: C_18  and  C_19
REMARK    6  A    between atoms: C_18  and  C_20
REMARK                            x       y       z     vdW  Elec       q    Type
REMARK                         _______ _______ _______ _____ _____    ______ ____
ROOT
ATOM      1  O   LIG A   1      -3.495   2.725 127.033  0.00  0.00    -0.245 OA
ATOM      2  C   LIG A   1      -4.445   2.851 126.277  0.00  0.00    +0.337 A 
ATOM      3  O   LIG A   1      -5.220   1.774 125.870  0.00  0.00    -0.422 OA
ATOM      4  C   LIG A   1      -6.322   1.926 124.989  0.00  0.00    +0.148 A 
ATOM      5  C   LIG A   1      -7.031   0.762 124.627  0.00  0.00    +0.068 A 
ATOM      6  C   LIG A   1      -8.096   0.942 123.711  0.00  0.00    +0.129 A 
ATOM      7  C   LIG A   1      -8.421   2.220 123.226  0.00  0.00    +0.047 A 
ATOM      8  C   LIG A   1      -7.707   3.343 123.631  0.00  0.00    +0.015 A 
ATOM      9  C   LIG A   1      -6.644   3.200 124.512  0.00  0.00    +0.018 A 
ATOM     10  C   LIG A   1      -5.858   4.348 124.928  0.00  0.00    +0.018 A 
ATOM     11  C   LIG A   1      -4.825   4.175 125.756  0.00  0.00    +0.092 A 
ENDROOT
BRANCH   5  12
ATOM     12  C   LIG A   1      -6.641  -0.602 125.166  0.00  0.00    +0.185 C 
ATOM     13  O   LIG A   1      -5.234  -0.886 125.258  0.00  0.00    -0.363 OA
ATOM     14  C   LIG A   1      -5.958  -1.651 124.292  0.00  0.00    +0.155 C 
BRANCH  14  15
ATOM     15  C   LIG A   1      -6.041  -3.124 124.618  0.00  0.00    +0.014 C 
ATOM     16  C   LIG A   1      -7.418  -3.686 124.262  0.00  0.00    +0.010 C 
ATOM     17  C   LIG A   1      -4.951  -3.907 123.883  0.00  0.00    +0.010 C 
ENDBRANCH  14  15
ENDBRANCH   5  12
BRANCH   6  18
ATOM     18  O   LIG A   1      -8.738  -0.193 123.271  0.00  0.00    -0.495 OA
ATOM     19  C   LIG A   1      -9.952   0.019 122.554  0.00  0.00    +0.277 C 
ENDBRANCH   6  18
TORSDOF 3
ENDMDL
MODEL 8
REMARK VINA RESULT:      -5.8      3.003      5.472
REMARK  Name = NuBBE_661
REMARK  6 active torsions:
REMARK  status: ('A' for Active; 'I' for Inactive)
REMARK    1  A    between atoms: C_5  and  C_14
REMARK    2  A    between atoms: C_6  and  O_7
REMARK    3  A    between atoms: O_7  and  C_8
REMARK    4  A    between atoms: C_17  and  C_18
REMARK    5  A    between atoms: C_18  and  C_19
REMARK    6  A    between atoms: C_18  and  C_20
REMARK                            x       y       z     vdW  Elec       q    Type
REMARK                         _______ _______ _______ _____ _____    ______ ____
ROOT
ATOM      1  O   LIG A   1      -6.951   1.944 133.466  0.00  0.00    -0.245 OA
ATOM      2  C   LIG A   1      -7.849   2.416 132.787  0.00  0.00    +0.337 A 
ATOM      3  O   LIG A   1      -7.835   3.730 132.342  0.00  0.00    -0.422 OA
ATOM      4  C   LIG A   1      -8.883   4.274 131.556  0.00  0.00    +0.148 A 
ATOM      5  C   LIG A   1      -8.774   5.626 131.173  0.00  0.00    +0.068 A 
ATOM      6  C   LIG A   1      -9.859   6.151 130.428  0.00  0.00    +0.129 A 
ATOM      7  C   LIG A   1     -10.955   5.343 130.084  0.00  0.00    +0.047 A 
ATOM      8  C   LIG A   1     -11.006   4.005 130.466  0.00  0.00    +0.015 A 
ATOM      9  C   LIG A   1      -9.970   3.464 131.214  0.00  0.00    +0.018 A 
ATOM     10  C   LIG A   1     -10.009   2.082 131.656  0.00  0.00    +0.018 A 
ATOM     11  C   LIG A   1      -9.010   1.598 132.397  0.00  0.00    +0.092 A 
ENDROOT
BRANCH   5  12
ATOM     12  C   LIG A   1      -7.577   6.469 131.573  0.00  0.00    +0.185 C 
ATOM     13  O   LIG A   1      -7.082   7.400 130.595  0.00  0.00    -0.363 OA
ATOM     14  C   LIG A   1      -6.214   6.306 130.904  0.00  0.00    +0.155 C 
BRANCH  14  15
ATOM     15  C   LIG A   1      -4.939   6.718 131.603  0.00  0.00    +0.014 C 
ATOM     16  C   LIG A   1      -4.097   5.495 131.970  0.00  0.00    +0.010 C 
ATOM     17  C   LIG A   1      -4.123   7.672 130.728  0.00  0.00    +0.010 C 
ENDBRANCH  14  15
ENDBRANCH   5  12
BRANCH   6  18
ATOM     18  O   LIG A   1      -9.817   7.493 130.127  0.00  0.00    -0.495 OA
ATOM     19  C   LIG A   1     -10.387   7.867 128.875  0.00  0.00    +0.277 C 
ENDBRANCH   6  18
TORSDOF 3
ENDMDL
MODEL 9
REMARK VINA RESULT:      -5.6      5.595      8.624
REMARK  Name = NuBBE_661
REMARK  6 active torsions:
REMARK  status: ('A' for Active; 'I' for Inactive)
REMARK    1  A    between atoms: C_5  and  C_14
REMARK    2  A    between atoms: C_6  and  O_7
REMARK    3  A    between atoms: O_7  and  C_8
REMARK    4  A    between atoms: C_17  and  C_18
REMARK    5  A    between atoms: C_18  and  C_19
REMARK    6  A    between atoms: C_18  and  C_20
REMARK                            x       y       z     vdW  Elec       q    Type
REMARK                         _______ _______ _______ _____ _____    ______ ____
ROOT
ATOM      1  O   LIG A   1      -8.706  -1.598 122.516  0.00  0.00    -0.245 OA
ATOM      2  C   LIG A   1      -8.632  -1.918 123.692  0.00  0.00    +0.337 A 
ATOM      3  O   LIG A   1      -8.180  -1.046 124.673  0.00  0.00    -0.422 OA
ATOM      4  C   LIG A   1      -8.093  -1.424 126.038  0.00  0.00    +0.148 A 
ATOM      5  C   LIG A   1      -7.605  -0.464 126.948  0.00  0.00    +0.068 A 
ATOM      6  C   LIG A   1      -7.486  -0.888 128.295  0.00  0.00    +0.129 A 
ATOM      7  C   LIG A   1      -7.862  -2.186 128.677  0.00  0.00    +0.047 A 
ATOM      8  C   LIG A   1      -8.361  -3.092 127.745  0.00  0.00    +0.015 A 
ATOM      9  C   LIG A   1      -8.472  -2.716 126.414  0.00  0.00    +0.018 A 
ATOM     10  C   LIG A   1      -8.957  -3.648 125.411  0.00  0.00    +0.018 A 
ATOM     11  C   LIG A   1      -9.026  -3.266 124.135  0.00  0.00    +0.092 A 
ENDROOT
BRANCH   5  12
ATOM     12  C   LIG A   1      -7.200   0.925 126.492  0.00  0.00    +0.185 C 
ATOM     13  O   LIG A   1      -7.731   2.035 127.239  0.00  0.00    -0.363 OA
ATOM     14  C   LIG A   1      -8.207   1.907 125.896  0.00  0.00    +0.155 C 
BRANCH  14  15
ATOM     15  C   LIG A   1      -7.769   3.028 124.984  0.00  0.00    +0.014 C 
ATOM     16  C   LIG A   1      -8.459   2.928 123.623  0.00  0.00    +0.010 C 
ATOM     17  C   LIG A   1      -8.061   4.390 125.619  0.00  0.00    +0.010 C 
ENDBRANCH  14  15
ENDBRANCH   5  12
BRANCH   6  18
ATOM     18  O   LIG A   1      -6.922   0.001 129.180  0.00  0.00    -0.495 OA
ATOM     19  C   LIG A   1      -5.633  -0.351 129.678  0.00  0.00    +0.277 C 
ENDBRANCH   6  18
TORSDOF 3
ENDMDL
