MODEL 1
REMARK VINA RESULT:      -6.5      0.000      0.000
REMARK  Name = NuBBE_2204
REMARK  8 active torsions:
REMARK  status: ('A' for Active; 'I' for Inactive)
REMARK    1  A    between atoms: C_1  and  C_3
REMARK    2  A    between atoms: C_1  and  C_7
REMARK    3  A    between atoms: C_4  and  C_5
REMARK    4  A    between atoms: C_4  and  C_6
REMARK    5  A    between atoms: C_9  and  C_10
REMARK    6  A    between atoms: C_10  and  C_11
REMARK    7  A    between atoms: C_10  and  O_12
REMARK    8  A    between atoms: C_15  and  O_16
REMARK                            x       y       z     vdW  Elec       q    Type
REMARK                         _______ _______ _______ _____ _____    ______ ____
ROOT
ATOM      1  C   LIG A   1      -9.369   6.514 131.211  0.00  0.00    +0.063 A 
ATOM      2  C   LIG A   1      -9.487   7.299 130.049  0.00  0.00    +0.021 A 
ATOM      3  C   LIG A   1     -10.748   7.713 129.577  0.00  0.00    -0.018 A 
ATOM      4  C   LIG A   1     -11.889   7.354 130.312  0.00  0.00    +0.010 A 
ATOM      5  C   LIG A   1     -11.779   6.615 131.489  0.00  0.00    +0.046 A 
ATOM      6  C   LIG A   1     -10.526   6.197 131.937  0.00  0.00    +0.128 A 
ENDROOT
BRANCH   1   7
ATOM      7  C   LIG A   1      -8.006   6.039 131.595  0.00  0.00    +0.190 C 
ATOM      8  O   LIG A   1      -7.871   5.019 132.265  0.00  0.00    -0.287 OA
BRANCH   7   9
ATOM      9  C   LIG A   1      -6.859   6.927 131.218  0.00  0.00    +0.050 C 
ATOM     10  C   LIG A   1      -5.645   6.601 130.727  0.00  0.00    -0.072 C 
ATOM     11  C   LIG A   1      -5.120   5.224 130.451  0.00  0.00    +0.039 C 
ATOM     12  C   LIG A   1      -4.681   7.707 130.374  0.00  0.00    +0.039 C 
ENDBRANCH   7   9
ENDBRANCH   1   7
BRANCH   3  13
ATOM     13  C   LIG A   1     -10.871   8.484 128.277  0.00  0.00    +0.142 C 
ATOM     14  C   LIG A   1     -10.794   7.559 127.067  0.00  0.00    +0.043 C 
BRANCH  13  15
ATOM     15  O   LIG A   1     -12.113   9.183 128.242  0.00  0.00    -0.388 OA
ATOM     16  H   LIG A   1     -12.786   8.588 128.616  0.00  0.00    +0.210 HD
ENDBRANCH  13  15
ENDBRANCH   3  13
BRANCH   6  17
ATOM     17  O   LIG A   1     -10.448   5.483 133.101  0.00  0.00    -0.506 OA
ATOM     18  H   LIG A   1      -9.624   5.709 133.564  0.00  0.00    +0.292 HD
ENDBRANCH   6  17
TORSDOF 5
ENDMDL
MODEL 2
REMARK VINA RESULT:      -6.5      7.214      8.605
REMARK  Name = NuBBE_2204
REMARK  8 active torsions:
REMARK  status: ('A' for Active; 'I' for Inactive)
REMARK    1  A    between atoms: C_1  and  C_3
REMARK    2  A    between atoms: C_1  and  C_7
REMARK    3  A    between atoms: C_4  and  C_5
REMARK    4  A    between atoms: C_4  and  C_6
REMARK    5  A    between atoms: C_9  and  C_10
REMARK    6  A    between atoms: C_10  and  C_11
REMARK    7  A    between atoms: C_10  and  O_12
REMARK    8  A    between atoms: C_15  and  O_16
REMARK                            x       y       z     vdW  Elec       q    Type
REMARK                         _______ _______ _______ _____ _____    ______ ____
ROOT
ATOM      1  C   LIG A   1      -5.807   3.960 124.230  0.00  0.00    +0.063 A 
ATOM      2  C   LIG A   1      -5.158   4.599 123.157  0.00  0.00    +0.021 A 
ATOM      3  C   LIG A   1      -5.510   4.316 121.823  0.00  0.00    -0.018 A 
ATOM      4  C   LIG A   1      -6.551   3.406 121.583  0.00  0.00    +0.010 A 
ATOM      5  C   LIG A   1      -7.231   2.802 122.640  0.00  0.00    +0.046 A 
ATOM      6  C   LIG A   1      -6.862   3.078 123.957  0.00  0.00    +0.128 A 
ENDROOT
BRANCH   1   7
ATOM      7  C   LIG A   1      -5.315   4.244 125.611  0.00  0.00    +0.190 C 
ATOM      8  O   LIG A   1      -6.056   4.770 126.437  0.00  0.00    -0.287 OA
BRANCH   7   9
ATOM      9  C   LIG A   1      -3.867   3.961 125.875  0.00  0.00    +0.050 C 
ATOM     10  C   LIG A   1      -3.300   3.220 126.848  0.00  0.00    -0.072 C 
ATOM     11  C   LIG A   1      -4.001   2.490 127.956  0.00  0.00    +0.039 C 
ATOM     12  C   LIG A   1      -1.800   3.048 126.855  0.00  0.00    +0.039 C 
ENDBRANCH   7   9
ENDBRANCH   1   7
BRANCH   3  13
ATOM     13  C   LIG A   1      -4.745   4.942 120.673  0.00  0.00    +0.142 C 
ATOM     14  C   LIG A   1      -5.643   5.179 119.464  0.00  0.00    +0.043 C 
BRANCH  13  15
ATOM     15  O   LIG A   1      -4.187   6.189 121.082  0.00  0.00    -0.388 OA
ATOM     16  H   LIG A   1      -4.767   6.547 121.774  0.00  0.00    +0.210 HD
ENDBRANCH  13  15
ENDBRANCH   3  13
BRANCH   6  17
ATOM     17  O   LIG A   1      -7.556   2.479 124.973  0.00  0.00    -0.506 OA
ATOM     18  H   LIG A   1      -8.493   2.411 124.727  0.00  0.00    +0.292 HD
ENDBRANCH   6  17
TORSDOF 5
ENDMDL
MODEL 3
REMARK VINA RESULT:      -6.5      2.118      5.944
REMARK  Name = NuBBE_2204
REMARK  8 active torsions:
REMARK  status: ('A' for Active; 'I' for Inactive)
REMARK    1  A    between atoms: C_1  and  C_3
REMARK    2  A    between atoms: C_1  and  C_7
REMARK    3  A    between atoms: C_4  and  C_5
REMARK    4  A    between atoms: C_4  and  C_6
REMARK    5  A    between atoms: C_9  and  C_10
REMARK    6  A    between atoms: C_10  and  C_11
REMARK    7  A    between atoms: C_10  and  O_12
REMARK    8  A    between atoms: C_15  and  O_16
REMARK                            x       y       z     vdW  Elec       q    Type
REMARK                         _______ _______ _______ _____ _____    ______ ____
ROOT
ATOM      1  C   LIG A   1     -10.155   6.426 130.986  0.00  0.00    +0.063 A 
ATOM      2  C   LIG A   1     -10.013   5.598 132.115  0.00  0.00    +0.021 A 
ATOM      3  C   LIG A   1      -8.751   5.377 132.699  0.00  0.00    -0.018 A 
ATOM      4  C   LIG A   1      -7.635   6.029 132.152  0.00  0.00    +0.010 A 
ATOM      5  C   LIG A   1      -7.772   6.887 131.061  0.00  0.00    +0.046 A 
ATOM      6  C   LIG A   1      -9.025   7.085 130.481  0.00  0.00    +0.128 A 
ENDROOT
BRANCH   1   7
ATOM      7  C   LIG A   1     -11.510   6.537 130.369  0.00  0.00    +0.190 C 
ATOM      8  O   LIG A   1     -11.952   5.627 129.674  0.00  0.00    -0.287 OA
BRANCH   7   9
ATOM      9  C   LIG A   1     -12.223   7.843 130.556  0.00  0.00    +0.050 C 
ATOM     10  C   LIG A   1     -12.588   8.761 129.639  0.00  0.00    -0.072 C 
ATOM     11  C   LIG A   1     -12.344   8.711 128.160  0.00  0.00    +0.039 C 
ATOM     12  C   LIG A   1     -13.355   9.980 130.091  0.00  0.00    +0.039 C 
ENDBRANCH   7   9
ENDBRANCH   1   7
BRANCH   3  13
ATOM     13  C   LIG A   1      -8.595   4.413 133.860  0.00  0.00    +0.142 C 
ATOM     14  C   LIG A   1      -7.929   5.081 135.058  0.00  0.00    +0.043 C 
BRANCH  13  15
ATOM     15  O   LIG A   1      -9.873   3.923 134.259  0.00  0.00    -0.388 OA
ATOM     16  H   LIG A   1     -10.168   3.302 133.572  0.00  0.00    +0.210 HD
ENDBRANCH  13  15
ENDBRANCH   3  13
BRANCH   6  17
ATOM     17  O   LIG A   1      -9.130   7.942 129.420  0.00  0.00    -0.506 OA
ATOM     18  H   LIG A   1      -9.102   7.434 128.592  0.00  0.00    +0.292 HD
ENDBRANCH   6  17
TORSDOF 5
ENDMDL
MODEL 4
REMARK VINA RESULT:      -6.4      1.903      5.434
REMARK  Name = NuBBE_2204
REMARK  8 active torsions:
REMARK  status: ('A' for Active; 'I' for Inactive)
REMARK    1  A    between atoms: C_1  and  C_3
REMARK    2  A    between atoms: C_1  and  C_7
REMARK    3  A    between atoms: C_4  and  C_5
REMARK    4  A    between atoms: C_4  and  C_6
REMARK    5  A    between atoms: C_9  and  C_10
REMARK    6  A    between atoms: C_10  and  C_11
REMARK    7  A    between atoms: C_10  and  O_12
REMARK    8  A    between atoms: C_15  and  O_16
REMARK                            x       y       z     vdW  Elec       q    Type
REMARK                         _______ _______ _______ _____ _____    ______ ____
ROOT
ATOM      1  C   LIG A   1     -10.136   6.688 130.483  0.00  0.00    +0.063 A 
ATOM      2  C   LIG A   1      -8.736   6.819 130.428  0.00  0.00    +0.021 A 
ATOM      3  C   LIG A   1      -7.934   6.514 131.544  0.00  0.00    -0.018 A 
ATOM      4  C   LIG A   1      -8.558   6.039 132.708  0.00  0.00    +0.010 A 
ATOM      5  C   LIG A   1      -9.940   5.862 132.758  0.00  0.00    +0.046 A 
ATOM      6  C   LIG A   1     -10.726   6.184 131.651  0.00  0.00    +0.128 A 
ENDROOT
BRANCH   1   7
ATOM      7  C   LIG A   1     -10.924   7.119 129.289  0.00  0.00    +0.190 C 
ATOM      8  O   LIG A   1     -10.881   6.467 128.250  0.00  0.00    -0.287 OA
BRANCH   7   9
ATOM      9  C   LIG A   1     -11.654   8.423 129.406  0.00  0.00    +0.050 C 
ATOM     10  C   LIG A   1     -12.836   8.797 128.876  0.00  0.00    -0.072 C 
ATOM     11  C   LIG A   1     -13.730   7.981 127.991  0.00  0.00    +0.039 C 
ATOM     12  C   LIG A   1     -13.380  10.167 129.200  0.00  0.00    +0.039 C 
ENDBRANCH   7   9
ENDBRANCH   1   7
BRANCH   3  13
ATOM     13  C   LIG A   1      -6.435   6.744 131.504  0.00  0.00    +0.142 C 
ATOM     14  C   LIG A   1      -5.668   5.428 131.428  0.00  0.00    +0.043 C 
BRANCH  13  15
ATOM     15  O   LIG A   1      -6.096   7.540 130.371  0.00  0.00    -0.388 OA
ATOM     16  H   LIG A   1      -6.109   8.468 130.660  0.00  0.00    +0.210 HD
ENDBRANCH  13  15
ENDBRANCH   3  13
BRANCH   6  17
ATOM     17  O   LIG A   1     -12.078   5.989 131.725  0.00  0.00    -0.506 OA
ATOM     18  H   LIG A   1     -12.442   5.910 130.827  0.00  0.00    +0.292 HD
ENDBRANCH   6  17
TORSDOF 5
ENDMDL
MODEL 5
REMARK VINA RESULT:      -6.4      1.981      2.615
REMARK  Name = NuBBE_2204
REMARK  8 active torsions:
REMARK  status: ('A' for Active; 'I' for Inactive)
REMARK    1  A    between atoms: C_1  and  C_3
REMARK    2  A    between atoms: C_1  and  C_7
REMARK    3  A    between atoms: C_4  and  C_5
REMARK    4  A    between atoms: C_4  and  C_6
REMARK    5  A    between atoms: C_9  and  C_10
REMARK    6  A    between atoms: C_10  and  C_11
REMARK    7  A    between atoms: C_10  and  O_12
REMARK    8  A    between atoms: C_15  and  O_16
REMARK                            x       y       z     vdW  Elec       q    Type
REMARK                         _______ _______ _______ _____ _____    ______ ____
ROOT
ATOM      1  C   LIG A   1     -10.085   6.670 130.744  0.00  0.00    +0.063 A 
ATOM      2  C   LIG A   1     -10.555   7.408 129.643  0.00  0.00    +0.021 A 
ATOM      3  C   LIG A   1     -11.899   7.823 129.566  0.00  0.00    -0.018 A 
ATOM      4  C   LIG A   1     -12.757   7.514 130.633  0.00  0.00    +0.010 A 
ATOM      5  C   LIG A   1     -12.289   6.823 131.750  0.00  0.00    +0.046 A 
ATOM      6  C   LIG A   1     -10.960   6.404 131.806  0.00  0.00    +0.128 A 
ENDROOT
BRANCH   1   7
ATOM      7  C   LIG A   1      -8.671   6.189 130.709  0.00  0.00    +0.190 C 
ATOM      8  O   LIG A   1      -7.813   6.735 131.395  0.00  0.00    -0.287 OA
BRANCH   7   9
ATOM      9  C   LIG A   1      -8.360   5.104 129.722  0.00  0.00    +0.050 C 
ATOM     10  C   LIG A   1      -8.664   3.791 129.764  0.00  0.00    -0.072 C 
ATOM     11  C   LIG A   1      -9.392   3.065 130.856  0.00  0.00    +0.039 C 
ATOM     12  C   LIG A   1      -8.277   2.915 128.598  0.00  0.00    +0.039 C 
ENDBRANCH   7   9
ENDBRANCH   1   7
BRANCH   3  13
ATOM     13  C   LIG A   1     -12.417   8.540 128.335  0.00  0.00    +0.142 C 
ATOM     14  C   LIG A   1     -13.536   7.755 127.658  0.00  0.00    +0.043 C 
BRANCH  13  15
ATOM     15  O   LIG A   1     -12.913   9.828 128.695  0.00  0.00    -0.388 OA
ATOM     16  H   LIG A   1     -13.316  10.211 127.898  0.00  0.00    +0.210 HD
ENDBRANCH  13  15
ENDBRANCH   3  13
BRANCH   6  17
ATOM     17  O   LIG A   1     -10.527   5.738 132.920  0.00  0.00    -0.506 OA
ATOM     18  H   LIG A   1      -9.751   5.199 132.693  0.00  0.00    +0.292 HD
ENDBRANCH   6  17
TORSDOF 5
ENDMDL
MODEL 6
REMARK VINA RESULT:      -6.2      9.055     10.145
REMARK  Name = NuBBE_2204
REMARK  8 active torsions:
REMARK  status: ('A' for Active; 'I' for Inactive)
REMARK    1  A    between atoms: C_1  and  C_3
REMARK    2  A    between atoms: C_1  and  C_7
REMARK    3  A    between atoms: C_4  and  C_5
REMARK    4  A    between atoms: C_4  and  C_6
REMARK    5  A    between atoms: C_9  and  C_10
REMARK    6  A    between atoms: C_10  and  C_11
REMARK    7  A    between atoms: C_10  and  O_12
REMARK    8  A    between atoms: C_15  and  O_16
REMARK                            x       y       z     vdW  Elec       q    Type
REMARK                         _______ _______ _______ _____ _____    ______ ____
ROOT
ATOM      1  C   LIG A   1      -8.468   0.491 123.312  0.00  0.00    +0.063 A 
ATOM      2  C   LIG A   1      -7.332   1.312 123.438  0.00  0.00    +0.021 A 
ATOM      3  C   LIG A   1      -7.300   2.601 122.872  0.00  0.00    -0.018 A 
ATOM      4  C   LIG A   1      -8.443   3.069 122.206  0.00  0.00    +0.010 A 
ATOM      5  C   LIG A   1      -9.591   2.281 122.115  0.00  0.00    +0.046 A 
ATOM      6  C   LIG A   1      -9.603   0.999 122.665  0.00  0.00    +0.128 A 
ENDROOT
BRANCH   1   7
ATOM      7  C   LIG A   1      -8.390  -0.896 123.860  0.00  0.00    +0.190 C 
ATOM      8  O   LIG A   1      -9.189  -1.271 124.712  0.00  0.00    -0.287 OA
BRANCH   7   9
ATOM      9  C   LIG A   1      -7.235  -1.732 123.398  0.00  0.00    +0.050 C 
ATOM     10  C   LIG A   1      -6.070  -2.006 124.018  0.00  0.00    -0.072 C 
ATOM     11  C   LIG A   1      -5.619  -1.507 125.359  0.00  0.00    +0.039 C 
ATOM     12  C   LIG A   1      -5.086  -2.935 123.348  0.00  0.00    +0.039 C 
ENDBRANCH   7   9
ENDBRANCH   1   7
BRANCH   3  13
ATOM     13  C   LIG A   1      -6.040   3.442 122.936  0.00  0.00    +0.142 C 
ATOM     14  C   LIG A   1      -5.561   3.844 121.545  0.00  0.00    +0.043 C 
BRANCH  13  15
ATOM     15  O   LIG A   1      -6.283   4.624 123.697  0.00  0.00    -0.388 OA
ATOM     16  H   LIG A   1      -6.252   5.373 123.079  0.00  0.00    +0.210 HD
ENDBRANCH  13  15
ENDBRANCH   3  13
BRANCH   6  17
ATOM     17  O   LIG A   1     -10.747   0.255 122.571  0.00  0.00    -0.506 OA
ATOM     18  H   LIG A   1     -11.167   0.416 121.709  0.00  0.00    +0.292 HD
ENDBRANCH   6  17
TORSDOF 5
ENDMDL
MODEL 7
REMARK VINA RESULT:      -6.2      1.605      5.215
REMARK  Name = NuBBE_2204
REMARK  8 active torsions:
REMARK  status: ('A' for Active; 'I' for Inactive)
REMARK    1  A    between atoms: C_1  and  C_3
REMARK    2  A    between atoms: C_1  and  C_7
REMARK    3  A    between atoms: C_4  and  C_5
REMARK    4  A    between atoms: C_4  and  C_6
REMARK    5  A    between atoms: C_9  and  C_10
REMARK    6  A    between atoms: C_10  and  C_11
REMARK    7  A    between atoms: C_10  and  O_12
REMARK    8  A    between atoms: C_15  and  O_16
REMARK                            x       y       z     vdW  Elec       q    Type
REMARK                         _______ _______ _______ _____ _____    ______ ____
ROOT
ATOM      1  C   LIG A   1      -9.073   6.377 131.575  0.00  0.00    +0.063 A 
ATOM      2  C   LIG A   1      -7.912   6.842 130.930  0.00  0.00    +0.021 A 
ATOM      3  C   LIG A   1      -6.636   6.621 131.483  0.00  0.00    -0.018 A 
ATOM      4  C   LIG A   1      -6.541   5.894 132.679  0.00  0.00    +0.010 A 
ATOM      5  C   LIG A   1      -7.682   5.389 133.302  0.00  0.00    +0.046 A 
ATOM      6  C   LIG A   1      -8.941   5.629 132.753  0.00  0.00    +0.128 A 
ENDROOT
BRANCH   1   7
ATOM      7  C   LIG A   1     -10.394   6.730 130.973  0.00  0.00    +0.190 C 
ATOM      8  O   LIG A   1     -11.424   6.615 131.630  0.00  0.00    -0.287 OA
BRANCH   7   9
ATOM      9  C   LIG A   1     -10.387   7.110 129.523  0.00  0.00    +0.050 C 
ATOM     10  C   LIG A   1     -11.176   7.977 128.858  0.00  0.00    -0.072 C 
ATOM     11  C   LIG A   1     -12.308   8.785 129.419  0.00  0.00    +0.039 C 
ATOM     12  C   LIG A   1     -10.918   8.221 127.391  0.00  0.00    +0.039 C 
ENDBRANCH   7   9
ENDBRANCH   1   7
BRANCH   3  13
ATOM     13  C   LIG A   1      -5.399   7.203 130.826  0.00  0.00    +0.142 C 
ATOM     14  C   LIG A   1      -4.168   7.050 131.714  0.00  0.00    +0.043 C 
BRANCH  13  15
ATOM     15  O   LIG A   1      -5.154   6.548 129.584  0.00  0.00    -0.388 OA
ATOM     16  H   LIG A   1      -5.756   5.786 129.540  0.00  0.00    +0.210 HD
ENDBRANCH  13  15
ENDBRANCH   3  13
BRANCH   6  17
ATOM     17  O   LIG A   1     -10.041   5.111 133.381  0.00  0.00    -0.506 OA
ATOM     18  H   LIG A   1     -10.341   5.729 134.069  0.00  0.00    +0.292 HD
ENDBRANCH   6  17
TORSDOF 5
ENDMDL
MODEL 8
REMARK VINA RESULT:      -6.0      9.201     11.119
REMARK  Name = NuBBE_2204
REMARK  8 active torsions:
REMARK  status: ('A' for Active; 'I' for Inactive)
REMARK    1  A    between atoms: C_1  and  C_3
REMARK    2  A    between atoms: C_1  and  C_7
REMARK    3  A    between atoms: C_4  and  C_5
REMARK    4  A    between atoms: C_4  and  C_6
REMARK    5  A    between atoms: C_9  and  C_10
REMARK    6  A    between atoms: C_10  and  C_11
REMARK    7  A    between atoms: C_10  and  O_12
REMARK    8  A    between atoms: C_15  and  O_16
REMARK                            x       y       z     vdW  Elec       q    Type
REMARK                         _______ _______ _______ _____ _____    ______ ____
ROOT
ATOM      1  C   LIG A   1      -8.293   0.414 123.341  0.00  0.00    +0.063 A 
ATOM      2  C   LIG A   1      -7.119  -0.243 123.753  0.00  0.00    +0.021 A 
ATOM      3  C   LIG A   1      -7.047  -1.649 123.788  0.00  0.00    -0.018 A 
ATOM      4  C   LIG A   1      -8.165  -2.388 123.368  0.00  0.00    +0.010 A 
ATOM      5  C   LIG A   1      -9.317  -1.746 122.915  0.00  0.00    +0.046 A 
ATOM      6  C   LIG A   1      -9.381  -0.353 122.901  0.00  0.00    +0.128 A 
ENDROOT
BRANCH   1   7
ATOM      7  C   LIG A   1      -8.321   1.905 123.419  0.00  0.00    +0.190 C 
ATOM      8  O   LIG A   1      -9.220   2.477 124.028  0.00  0.00    -0.287 OA
BRANCH   7   9
ATOM      9  C   LIG A   1      -7.276   2.634 122.630  0.00  0.00    +0.050 C 
ATOM     10  C   LIG A   1      -7.409   3.400 121.528  0.00  0.00    -0.072 C 
ATOM     11  C   LIG A   1      -8.675   3.703 120.784  0.00  0.00    +0.039 C 
ATOM     12  C   LIG A   1      -6.186   4.074 120.955  0.00  0.00    +0.039 C 
ENDBRANCH   7   9
ENDBRANCH   1   7
BRANCH   3  13
ATOM     13  C   LIG A   1      -5.809  -2.347 124.317  0.00  0.00    +0.142 C 
ATOM     14  C   LIG A   1      -5.655  -2.152 125.821  0.00  0.00    +0.043 C 
BRANCH  13  15
ATOM     15  O   LIG A   1      -5.883  -3.744 124.040  0.00  0.00    -0.388 OA
ATOM     16  H   LIG A   1      -5.206  -3.939 123.371  0.00  0.00    +0.210 HD
ENDBRANCH  13  15
ENDBRANCH   3  13
BRANCH   6  17
ATOM     17  O   LIG A   1     -10.521   0.248 122.440  0.00  0.00    -0.506 OA
ATOM     18  H   LIG A   1     -10.517   0.243 121.468  0.00  0.00    +0.292 HD
ENDBRANCH   6  17
TORSDOF 5
ENDMDL
MODEL 9
REMARK VINA RESULT:      -5.9      9.105     10.332
REMARK  Name = NuBBE_2204
REMARK  8 active torsions:
REMARK  status: ('A' for Active; 'I' for Inactive)
REMARK    1  A    between atoms: C_1  and  C_3
REMARK    2  A    between atoms: C_1  and  C_7
REMARK    3  A    between atoms: C_4  and  C_5
REMARK    4  A    between atoms: C_4  and  C_6
REMARK    5  A    between atoms: C_9  and  C_10
REMARK    6  A    between atoms: C_10  and  C_11
REMARK    7  A    between atoms: C_10  and  O_12
REMARK    8  A    between atoms: C_15  and  O_16
REMARK                            x       y       z     vdW  Elec       q    Type
REMARK                         _______ _______ _______ _____ _____    ______ ____
ROOT
ATOM      1  C   LIG A   1      -7.769   0.328 123.341  0.00  0.00    +0.063 A 
ATOM      2  C   LIG A   1      -6.782   1.315 123.517  0.00  0.00    +0.021 A 
ATOM      3  C   LIG A   1      -7.072   2.677 123.310  0.00  0.00    -0.018 A 
ATOM      4  C   LIG A   1      -8.382   3.038 122.957  0.00  0.00    +0.010 A 
ATOM      5  C   LIG A   1      -9.379   2.071 122.825  0.00  0.00    +0.046 A 
ATOM      6  C   LIG A   1      -9.075   0.723 123.017  0.00  0.00    +0.128 A 
ENDROOT
BRANCH   1   7
ATOM      7  C   LIG A   1      -7.360  -1.101 123.489  0.00  0.00    +0.190 C 
ATOM      8  O   LIG A   1      -6.770  -1.675 122.579  0.00  0.00    -0.287 OA
BRANCH   7   9
ATOM      9  C   LIG A   1      -7.810  -1.797 124.739  0.00  0.00    +0.050 C 
ATOM     10  C   LIG A   1      -8.702  -2.796 124.893  0.00  0.00    -0.072 C 
ATOM     11  C   LIG A   1      -9.507  -3.464 123.818  0.00  0.00    +0.039 C 
ATOM     12  C   LIG A   1      -8.933  -3.362 126.273  0.00  0.00    +0.039 C 
ENDBRANCH   7   9
ENDBRANCH   1   7
BRANCH   3  13
ATOM     13  C   LIG A   1      -5.980   3.724 123.415  0.00  0.00    +0.142 C 
ATOM     14  C   LIG A   1      -5.481   4.154 122.039  0.00  0.00    +0.043 C 
BRANCH  13  15
ATOM     15  O   LIG A   1      -6.471   4.872 124.104  0.00  0.00    -0.388 OA
ATOM     16  H   LIG A   1      -6.835   5.474 123.434  0.00  0.00    +0.210 HD
ENDBRANCH  13  15
ENDBRANCH   3  13
BRANCH   6  17
ATOM     17  O   LIG A   1     -10.076  -0.201 122.892  0.00  0.00    -0.506 OA
ATOM     18  H   LIG A   1      -9.823  -0.862 122.227  0.00  0.00    +0.292 HD
ENDBRANCH   6  17
TORSDOF 5
ENDMDL
