MODEL 1
REMARK VINA RESULT:      -7.5      0.000      0.000
REMARK  Name = NuBBE_1912
REMARK  5 active torsions:
REMARK  status: ('A' for Active; 'I' for Inactive)
REMARK    1  A    between atoms: C_5  and  O_6
REMARK    2  A    between atoms: O_6  and  C_7
REMARK    3  A    between atoms: C_8  and  O_9
REMARK    4  A    between atoms: O_9  and  C_10
REMARK    5  A    between atoms: C_11  and  O_12
REMARK                            x       y       z     vdW  Elec       q    Type
REMARK                         _______ _______ _______ _____ _____    ______ ____
ROOT
ATOM      1  O   LIG A   1     -12.005   6.106 132.049  0.00  0.00    -0.286 OA
ATOM      2  C   LIG A   1     -11.109   6.547 131.349  0.00  0.00    +0.200 A 
ATOM      3  C   LIG A   1      -9.699   6.440 131.748  0.00  0.00    +0.072 A 
ATOM      4  C   LIG A   1      -9.362   5.767 132.929  0.00  0.00    +0.065 A 
ATOM      5  C   LIG A   1      -8.022   5.572 133.279  0.00  0.00    +0.166 A 
ATOM      6  C   LIG A   1      -7.019   6.069 132.432  0.00  0.00    +0.207 A 
ATOM      7  C   LIG A   1      -7.382   6.735 131.244  0.00  0.00    +0.206 A 
ATOM      8  C   LIG A   1      -8.719   6.945 130.903  0.00  0.00    +0.184 A 
ATOM      9  O   LIG A   1      -9.000   7.614 129.734  0.00  0.00    -0.451 OA
ATOM     10  C   LIG A   1     -10.312   7.708 129.333  0.00  0.00    +0.139 A 
ATOM     11  C   LIG A   1     -10.556   8.352 128.120  0.00  0.00    +0.047 A 
ATOM     12  C   LIG A   1     -11.863   8.457 127.632  0.00  0.00    +0.004 A 
ATOM     13  C   LIG A   1     -12.929   7.915 128.354  0.00  0.00    +0.001 A 
ATOM     14  C   LIG A   1     -12.690   7.284 129.574  0.00  0.00    +0.015 A 
ATOM     15  C   LIG A   1     -11.382   7.193 130.059  0.00  0.00    +0.065 A 
ENDROOT
BRANCH   5  16
ATOM     16  O   LIG A   1      -7.648   4.812 134.354  0.00  0.00    -0.491 OA
ATOM     17  C   LIG A   1      -7.529   5.484 135.604  0.00  0.00    +0.277 C 
ENDBRANCH   5  16
BRANCH   6  18
ATOM     18  O   LIG A   1      -5.669   5.850 132.590  0.00  0.00    -0.488 OA
ATOM     19  C   LIG A   1      -5.191   4.580 132.145  0.00  0.00    +0.277 C 
ENDBRANCH   6  18
BRANCH   7  20
ATOM     20  O   LIG A   1      -6.395   7.148 130.381  0.00  0.00    -0.501 OA
ATOM     21  H   LIG A   1      -5.983   6.328 130.045  0.00  0.00    +0.292 HD
ENDBRANCH   7  20
TORSDOF 3
ENDMDL
MODEL 2
REMARK VINA RESULT:      -7.4      8.106      9.455
REMARK  Name = NuBBE_1912
REMARK  5 active torsions:
REMARK  status: ('A' for Active; 'I' for Inactive)
REMARK    1  A    between atoms: C_5  and  O_6
REMARK    2  A    between atoms: O_6  and  C_7
REMARK    3  A    between atoms: C_8  and  O_9
REMARK    4  A    between atoms: O_9  and  C_10
REMARK    5  A    between atoms: C_11  and  O_12
REMARK                            x       y       z     vdW  Elec       q    Type
REMARK                         _______ _______ _______ _____ _____    ______ ____
ROOT
ATOM      1  O   LIG A   1      -4.784   4.171 121.907  0.00  0.00    -0.286 OA
ATOM      2  C   LIG A   1      -5.973   3.921 122.013  0.00  0.00    +0.200 A 
ATOM      3  C   LIG A   1      -6.555   3.483 123.289  0.00  0.00    +0.072 A 
ATOM      4  C   LIG A   1      -5.745   3.406 124.430  0.00  0.00    +0.065 A 
ATOM      5  C   LIG A   1      -6.298   3.083 125.674  0.00  0.00    +0.166 A 
ATOM      6  C   LIG A   1      -7.677   2.830 125.760  0.00  0.00    +0.207 A 
ATOM      7  C   LIG A   1      -8.473   2.923 124.601  0.00  0.00    +0.206 A 
ATOM      8  C   LIG A   1      -7.919   3.228 123.356  0.00  0.00    +0.184 A 
ATOM      9  O   LIG A   1      -8.754   3.289 122.265  0.00  0.00    -0.451 OA
ATOM     10  C   LIG A   1      -8.232   3.715 121.065  0.00  0.00    +0.139 A 
ATOM     11  C   LIG A   1      -9.117   3.810 119.991  0.00  0.00    +0.047 A 
ATOM     12  C   LIG A   1      -8.666   4.267 118.748  0.00  0.00    +0.004 A 
ATOM     13  C   LIG A   1      -7.328   4.632 118.577  0.00  0.00    +0.001 A 
ATOM     14  C   LIG A   1      -6.438   4.525 119.644  0.00  0.00    +0.015 A 
ATOM     15  C   LIG A   1      -6.896   4.057 120.880  0.00  0.00    +0.065 A 
ENDROOT
BRANCH   5  16
ATOM     16  O   LIG A   1      -5.570   3.122 126.832  0.00  0.00    -0.491 OA
ATOM     17  C   LIG A   1      -4.255   2.577 126.781  0.00  0.00    +0.277 C 
ENDBRANCH   5  16
BRANCH   6  18
ATOM     18  O   LIG A   1      -8.371   2.618 126.930  0.00  0.00    -0.488 OA
ATOM     19  C   LIG A   1      -8.434   1.264 127.376  0.00  0.00    +0.277 C 
ENDBRANCH   6  18
BRANCH   7  20
ATOM     20  O   LIG A   1      -9.832   2.753 124.708  0.00  0.00    -0.501 OA
ATOM     21  H   LIG A   1     -10.058   3.028 125.618  0.00  0.00    +0.292 HD
ENDBRANCH   7  20
TORSDOF 3
ENDMDL
MODEL 3
REMARK VINA RESULT:      -6.9      1.463      6.465
REMARK  Name = NuBBE_1912
REMARK  5 active torsions:
REMARK  status: ('A' for Active; 'I' for Inactive)
REMARK    1  A    between atoms: C_5  and  O_6
REMARK    2  A    between atoms: O_6  and  C_7
REMARK    3  A    between atoms: C_8  and  O_9
REMARK    4  A    between atoms: O_9  and  C_10
REMARK    5  A    between atoms: C_11  and  O_12
REMARK                            x       y       z     vdW  Elec       q    Type
REMARK                         _______ _______ _______ _____ _____    ______ ____
ROOT
ATOM      1  O   LIG A   1      -6.644   6.582 130.540  0.00  0.00    -0.286 OA
ATOM      2  C   LIG A   1      -7.631   6.286 131.193  0.00  0.00    +0.200 A 
ATOM      3  C   LIG A   1      -8.968   6.774 130.828  0.00  0.00    +0.072 A 
ATOM      4  C   LIG A   1      -9.132   7.548 129.672  0.00  0.00    +0.065 A 
ATOM      5  C   LIG A   1     -10.407   7.943 129.255  0.00  0.00    +0.166 A 
ATOM      6  C   LIG A   1     -11.522   7.558 130.018  0.00  0.00    +0.207 A 
ATOM      7  C   LIG A   1     -11.333   6.771 131.172  0.00  0.00    +0.206 A 
ATOM      8  C   LIG A   1     -10.059   6.392 131.599  0.00  0.00    +0.184 A 
ATOM      9  O   LIG A   1      -9.949   5.635 132.742  0.00  0.00    -0.451 OA
ATOM     10  C   LIG A   1      -8.709   5.153 133.090  0.00  0.00    +0.139 A 
ATOM     11  C   LIG A   1      -8.641   4.350 134.229  0.00  0.00    +0.047 A 
ATOM     12  C   LIG A   1      -7.419   3.797 134.626  0.00  0.00    +0.004 A 
ATOM     13  C   LIG A   1      -6.262   4.043 133.884  0.00  0.00    +0.001 A 
ATOM     14  C   LIG A   1      -6.323   4.857 132.754  0.00  0.00    +0.015 A 
ATOM     15  C   LIG A   1      -7.546   5.413 132.370  0.00  0.00    +0.065 A 
ENDROOT
BRANCH   5  16
ATOM     16  O   LIG A   1     -10.624   8.588 128.067  0.00  0.00    -0.491 OA
ATOM     17  C   LIG A   1     -10.777   7.770 126.912  0.00  0.00    +0.277 C 
ENDBRANCH   5  16
BRANCH   6  18
ATOM     18  O   LIG A   1     -12.835   7.774 129.666  0.00  0.00    -0.488 OA
ATOM     19  C   LIG A   1     -13.256   9.138 129.650  0.00  0.00    +0.277 C 
ENDBRANCH   6  18
BRANCH   7  20
ATOM     20  O   LIG A   1     -12.433   6.332 131.869  0.00  0.00    -0.501 OA
ATOM     21  H   LIG A   1     -13.047   5.984 131.193  0.00  0.00    +0.292 HD
ENDBRANCH   7  20
TORSDOF 3
ENDMDL
MODEL 4
REMARK VINA RESULT:      -6.8      2.231      3.380
REMARK  Name = NuBBE_1912
REMARK  5 active torsions:
REMARK  status: ('A' for Active; 'I' for Inactive)
REMARK    1  A    between atoms: C_5  and  O_6
REMARK    2  A    between atoms: O_6  and  C_7
REMARK    3  A    between atoms: C_8  and  O_9
REMARK    4  A    between atoms: O_9  and  C_10
REMARK    5  A    between atoms: C_11  and  O_12
REMARK                            x       y       z     vdW  Elec       q    Type
REMARK                         _______ _______ _______ _____ _____    ______ ____
ROOT
ATOM      1  O   LIG A   1      -8.799   7.962 129.972  0.00  0.00    -0.286 OA
ATOM      2  C   LIG A   1      -9.654   7.093 129.934  0.00  0.00    +0.200 A 
ATOM      3  C   LIG A   1      -9.415   5.754 130.490  0.00  0.00    +0.072 A 
ATOM      4  C   LIG A   1      -8.201   5.478 131.134  0.00  0.00    +0.065 A 
ATOM      5  C   LIG A   1      -7.990   4.241 131.752  0.00  0.00    +0.166 A 
ATOM      6  C   LIG A   1      -9.010   3.277 131.711  0.00  0.00    +0.207 A 
ATOM      7  C   LIG A   1     -10.226   3.581 131.065  0.00  0.00    +0.206 A 
ATOM      8  C   LIG A   1     -10.431   4.808 130.433  0.00  0.00    +0.184 A 
ATOM      9  O   LIG A   1     -11.637   5.032 129.811  0.00  0.00    -0.451 OA
ATOM     10  C   LIG A   1     -11.888   6.284 129.301  0.00  0.00    +0.139 A 
ATOM     11  C   LIG A   1     -13.140   6.490 128.719  0.00  0.00    +0.047 A 
ATOM     12  C   LIG A   1     -13.479   7.747 128.208  0.00  0.00    +0.004 A 
ATOM     13  C   LIG A   1     -12.568   8.804 128.280  0.00  0.00    +0.001 A 
ATOM     14  C   LIG A   1     -11.312   8.599 128.848  0.00  0.00    +0.015 A 
ATOM     15  C   LIG A   1     -10.978   7.336 129.347  0.00  0.00    +0.065 A 
ENDROOT
BRANCH   5  16
ATOM     16  O   LIG A   1      -6.875   3.976 132.500  0.00  0.00    -0.491 OA
ATOM     17  C   LIG A   1      -5.694   3.623 131.785  0.00  0.00    +0.277 C 
ENDBRANCH   5  16
BRANCH   6  18
ATOM     18  O   LIG A   1      -8.986   2.070 132.372  0.00  0.00    -0.488 OA
ATOM     19  C   LIG A   1      -8.407   0.981 131.653  0.00  0.00    +0.277 C 
ENDBRANCH   6  18
BRANCH   7  20
ATOM     20  O   LIG A   1     -11.248   2.663 131.098  0.00  0.00    -0.501 OA
ATOM     21  H   LIG A   1     -11.324   2.326 130.183  0.00  0.00    +0.292 HD
ENDBRANCH   7  20
TORSDOF 3
ENDMDL
MODEL 5
REMARK VINA RESULT:      -6.7      1.718      2.539
REMARK  Name = NuBBE_1912
REMARK  5 active torsions:
REMARK  status: ('A' for Active; 'I' for Inactive)
REMARK    1  A    between atoms: C_5  and  O_6
REMARK    2  A    between atoms: O_6  and  C_7
REMARK    3  A    between atoms: C_8  and  O_9
REMARK    4  A    between atoms: O_9  and  C_10
REMARK    5  A    between atoms: C_11  and  O_12
REMARK                            x       y       z     vdW  Elec       q    Type
REMARK                         _______ _______ _______ _____ _____    ______ ____
ROOT
ATOM      1  O   LIG A   1      -9.320   5.160 133.320  0.00  0.00    -0.286 OA
ATOM      2  C   LIG A   1      -8.916   5.846 132.397  0.00  0.00    +0.200 A 
ATOM      3  C   LIG A   1      -7.488   6.153 132.234  0.00  0.00    +0.072 A 
ATOM      4  C   LIG A   1      -6.556   5.600 133.122  0.00  0.00    +0.065 A 
ATOM      5  C   LIG A   1      -5.185   5.802 132.930  0.00  0.00    +0.166 A 
ATOM      6  C   LIG A   1      -4.757   6.574 131.838  0.00  0.00    +0.207 A 
ATOM      7  C   LIG A   1      -5.714   7.112 130.953  0.00  0.00    +0.206 A 
ATOM      8  C   LIG A   1      -7.082   6.925 131.153  0.00  0.00    +0.184 A 
ATOM      9  O   LIG A   1      -7.959   7.490 130.257  0.00  0.00    -0.451 OA
ATOM     10  C   LIG A   1      -9.298   7.200 130.380  0.00  0.00    +0.139 A 
ATOM     11  C   LIG A   1     -10.154   7.751 129.425  0.00  0.00    +0.047 A 
ATOM     12  C   LIG A   1     -11.524   7.473 129.467  0.00  0.00    +0.004 A 
ATOM     13  C   LIG A   1     -12.042   6.641 130.462  0.00  0.00    +0.001 A 
ATOM     14  C   LIG A   1     -11.193   6.100 131.426  0.00  0.00    +0.015 A 
ATOM     15  C   LIG A   1      -9.827   6.392 131.382  0.00  0.00    +0.065 A 
ENDROOT
BRANCH   5  16
ATOM     16  O   LIG A   1      -4.237   5.178 133.696  0.00  0.00    -0.491 OA
ATOM     17  C   LIG A   1      -3.977   5.741 134.978  0.00  0.00    +0.277 C 
ENDBRANCH   5  16
BRANCH   6  18
ATOM     18  O   LIG A   1      -3.446   6.757 131.462  0.00  0.00    -0.488 OA
ATOM     19  C   LIG A   1      -2.769   7.848 132.086  0.00  0.00    +0.277 C 
ENDBRANCH   6  18
BRANCH   7  20
ATOM     20  O   LIG A   1      -5.285   7.799 129.842  0.00  0.00    -0.501 OA
ATOM     21  H   LIG A   1      -4.516   7.297 129.507  0.00  0.00    +0.292 HD
ENDBRANCH   7  20
TORSDOF 3
ENDMDL
MODEL 6
REMARK VINA RESULT:      -6.7      2.230      3.454
REMARK  Name = NuBBE_1912
REMARK  5 active torsions:
REMARK  status: ('A' for Active; 'I' for Inactive)
REMARK    1  A    between atoms: C_5  and  O_6
REMARK    2  A    between atoms: O_6  and  C_7
REMARK    3  A    between atoms: C_8  and  O_9
REMARK    4  A    between atoms: O_9  and  C_10
REMARK    5  A    between atoms: C_11  and  O_12
REMARK                            x       y       z     vdW  Elec       q    Type
REMARK                         _______ _______ _______ _____ _____    ______ ____
ROOT
ATOM      1  O   LIG A   1      -9.763   6.463 127.712  0.00  0.00    -0.286 OA
ATOM      2  C   LIG A   1     -10.205   6.417 128.847  0.00  0.00    +0.200 A 
ATOM      3  C   LIG A   1      -9.716   5.434 129.824  0.00  0.00    +0.072 A 
ATOM      4  C   LIG A   1      -8.677   4.564 129.470  0.00  0.00    +0.065 A 
ATOM      5  C   LIG A   1      -8.133   3.686 130.414  0.00  0.00    +0.166 A 
ATOM      6  C   LIG A   1      -8.651   3.684 131.719  0.00  0.00    +0.207 A 
ATOM      7  C   LIG A   1      -9.690   4.575 132.054  0.00  0.00    +0.206 A 
ATOM      8  C   LIG A   1     -10.246   5.439 131.109  0.00  0.00    +0.184 A 
ATOM      9  O   LIG A   1     -11.266   6.273 131.502  0.00  0.00    -0.451 OA
ATOM     10  C   LIG A   1     -11.725   7.213 130.609  0.00  0.00    +0.139 A 
ATOM     11  C   LIG A   1     -12.729   8.072 131.057  0.00  0.00    +0.047 A 
ATOM     12  C   LIG A   1     -13.221   9.075 130.215  0.00  0.00    +0.004 A 
ATOM     13  C   LIG A   1     -12.710   9.222 128.924  0.00  0.00    +0.001 A 
ATOM     14  C   LIG A   1     -11.718   8.356 128.468  0.00  0.00    +0.015 A 
ATOM     15  C   LIG A   1     -11.238   7.351 129.312  0.00  0.00    +0.065 A 
ENDROOT
BRANCH   5  16
ATOM     16  O   LIG A   1      -7.036   2.911 130.149  0.00  0.00    -0.491 OA
ATOM     17  C   LIG A   1      -5.818   3.598 129.881  0.00  0.00    +0.277 C 
ENDBRANCH   5  16
BRANCH   6  18
ATOM     18  O   LIG A   1      -8.139   2.962 132.774  0.00  0.00    -0.488 OA
ATOM     19  C   LIG A   1      -7.023   3.550 133.443  0.00  0.00    +0.277 C 
ENDBRANCH   6  18
BRANCH   7  20
ATOM     20  O   LIG A   1     -10.137   4.623 133.353  0.00  0.00    -0.501 OA
ATOM     21  H   LIG A   1     -10.424   3.713 133.563  0.00  0.00    +0.292 HD
ENDBRANCH   7  20
TORSDOF 3
ENDMDL
MODEL 7
REMARK VINA RESULT:      -6.6      2.276      2.345
REMARK  Name = NuBBE_1912
REMARK  5 active torsions:
REMARK  status: ('A' for Active; 'I' for Inactive)
REMARK    1  A    between atoms: C_5  and  O_6
REMARK    2  A    between atoms: O_6  and  C_7
REMARK    3  A    between atoms: C_8  and  O_9
REMARK    4  A    between atoms: O_9  and  C_10
REMARK    5  A    between atoms: C_11  and  O_12
REMARK                            x       y       z     vdW  Elec       q    Type
REMARK                         _______ _______ _______ _____ _____    ______ ____
ROOT
ATOM      1  O   LIG A   1     -10.920   6.519 132.388  0.00  0.00    -0.286 OA
ATOM      2  C   LIG A   1     -10.558   6.444 131.226  0.00  0.00    +0.200 A 
ATOM      3  C   LIG A   1      -9.444   5.574 130.822  0.00  0.00    +0.072 A 
ATOM      4  C   LIG A   1      -8.818   4.763 131.777  0.00  0.00    +0.065 A 
ATOM      5  C   LIG A   1      -7.821   3.858 131.398  0.00  0.00    +0.166 A 
ATOM      6  C   LIG A   1      -7.451   3.781 130.045  0.00  0.00    +0.207 A 
ATOM      7  C   LIG A   1      -8.103   4.600 129.101  0.00  0.00    +0.206 A 
ATOM      8  C   LIG A   1      -9.085   5.516 129.481  0.00  0.00    +0.184 A 
ATOM      9  O   LIG A   1      -9.670   6.293 128.509  0.00  0.00    -0.451 OA
ATOM     10  C   LIG A   1     -10.725   7.100 128.862  0.00  0.00    +0.139 A 
ATOM     11  C   LIG A   1     -11.325   7.839 127.841  0.00  0.00    +0.047 A 
ATOM     12  C   LIG A   1     -12.425   8.657 128.120  0.00  0.00    +0.004 A 
ATOM     13  C   LIG A   1     -12.930   8.736 129.419  0.00  0.00    +0.001 A 
ATOM     14  C   LIG A   1     -12.326   8.011 130.444  0.00  0.00    +0.015 A 
ATOM     15  C   LIG A   1     -11.220   7.204 130.159  0.00  0.00    +0.065 A 
ENDROOT
BRANCH   5  16
ATOM     16  O   LIG A   1      -7.274   2.959 132.273  0.00  0.00    -0.491 OA
ATOM     17  C   LIG A   1      -7.930   2.806 133.527  0.00  0.00    +0.277 C 
ENDBRANCH   5  16
BRANCH   6  18
ATOM     18  O   LIG A   1      -6.575   2.861 129.514  0.00  0.00    -0.488 OA
ATOM     19  C   LIG A   1      -5.193   3.209 129.587  0.00  0.00    +0.277 C 
ENDBRANCH   6  18
BRANCH   7  20
ATOM     20  O   LIG A   1      -7.792   4.463 127.769  0.00  0.00    -0.501 OA
ATOM     21  H   LIG A   1      -6.936   3.993 127.749  0.00  0.00    +0.292 HD
ENDBRANCH   7  20
TORSDOF 3
ENDMDL
MODEL 8
REMARK VINA RESULT:      -6.5      9.821     10.278
REMARK  Name = NuBBE_1912
REMARK  5 active torsions:
REMARK  status: ('A' for Active; 'I' for Inactive)
REMARK    1  A    between atoms: C_5  and  O_6
REMARK    2  A    between atoms: O_6  and  C_7
REMARK    3  A    between atoms: C_8  and  O_9
REMARK    4  A    between atoms: O_9  and  C_10
REMARK    5  A    between atoms: C_11  and  O_12
REMARK                            x       y       z     vdW  Elec       q    Type
REMARK                         _______ _______ _______ _____ _____    ______ ____
ROOT
ATOM      1  O   LIG A   1      -9.616  -4.013 127.640  0.00  0.00    -0.286 OA
ATOM      2  C   LIG A   1      -8.597  -3.402 127.365  0.00  0.00    +0.200 A 
ATOM      3  C   LIG A   1      -7.642  -2.991 128.405  0.00  0.00    +0.072 A 
ATOM      4  C   LIG A   1      -7.871  -3.355 129.738  0.00  0.00    +0.065 A 
ATOM      5  C   LIG A   1      -6.929  -3.056 130.728  0.00  0.00    +0.166 A 
ATOM      6  C   LIG A   1      -5.754  -2.378 130.366  0.00  0.00    +0.207 A 
ATOM      7  C   LIG A   1      -5.542  -2.029 129.017  0.00  0.00    +0.206 A 
ATOM      8  C   LIG A   1      -6.489  -2.312 128.031  0.00  0.00    +0.184 A 
ATOM      9  O   LIG A   1      -6.222  -1.931 126.737  0.00  0.00    -0.451 OA
ATOM     10  C   LIG A   1      -7.092  -2.322 125.747  0.00  0.00    +0.139 A 
ATOM     11  C   LIG A   1      -6.765  -1.959 124.440  0.00  0.00    +0.047 A 
ATOM     12  C   LIG A   1      -7.586  -2.350 123.377  0.00  0.00    +0.004 A 
ATOM     13  C   LIG A   1      -8.735  -3.107 123.617  0.00  0.00    +0.001 A 
ATOM     14  C   LIG A   1      -9.073  -3.460 124.923  0.00  0.00    +0.015 A 
ATOM     15  C   LIG A   1      -8.252  -3.056 125.980  0.00  0.00    +0.065 A 
ENDROOT
BRANCH   5  16
ATOM     16  O   LIG A   1      -7.051  -3.504 132.016  0.00  0.00    -0.491 OA
ATOM     17  C   LIG A   1      -7.687  -2.628 132.941  0.00  0.00    +0.277 C 
ENDBRANCH   5  16
BRANCH   6  18
ATOM     18  O   LIG A   1      -4.695  -2.124 131.209  0.00  0.00    -0.488 OA
ATOM     19  C   LIG A   1      -3.829  -3.229 131.465  0.00  0.00    +0.277 C 
ENDBRANCH   6  18
BRANCH   7  20
ATOM     20  O   LIG A   1      -4.355  -1.437 128.658  0.00  0.00    -0.501 OA
ATOM     21  H   LIG A   1      -3.789  -1.486 129.453  0.00  0.00    +0.292 HD
ENDBRANCH   7  20
TORSDOF 3
ENDMDL
MODEL 9
REMARK VINA RESULT:      -6.4      8.273      9.914
REMARK  Name = NuBBE_1912
REMARK  5 active torsions:
REMARK  status: ('A' for Active; 'I' for Inactive)
REMARK    1  A    between atoms: C_5  and  O_6
REMARK    2  A    between atoms: O_6  and  C_7
REMARK    3  A    between atoms: C_8  and  O_9
REMARK    4  A    between atoms: O_9  and  C_10
REMARK    5  A    between atoms: C_11  and  O_12
REMARK                            x       y       z     vdW  Elec       q    Type
REMARK                         _______ _______ _______ _____ _____    ______ ____
ROOT
ATOM      1  O   LIG A   1      -9.386  -1.836 124.303  0.00  0.00    -0.286 OA
ATOM      2  C   LIG A   1      -8.903  -1.294 125.282  0.00  0.00    +0.200 A 
ATOM      3  C   LIG A   1      -8.553   0.133 125.277  0.00  0.00    +0.072 A 
ATOM      4  C   LIG A   1      -8.831   0.910 124.144  0.00  0.00    +0.065 A 
ATOM      5  C   LIG A   1      -8.593   2.289 124.152  0.00  0.00    +0.166 A 
ATOM      6  C   LIG A   1      -8.063   2.881 125.310  0.00  0.00    +0.207 A 
ATOM      7  C   LIG A   1      -7.800   2.080 126.440  0.00  0.00    +0.206 A 
ATOM      8  C   LIG A   1      -8.021   0.702 126.427  0.00  0.00    +0.184 A 
ATOM      9  O   LIG A   1      -7.729  -0.020 127.561  0.00  0.00    -0.451 OA
ATOM     10  C   LIG A   1      -8.066  -1.352 127.594  0.00  0.00    +0.139 A 
ATOM     11  C   LIG A   1      -7.799  -2.042 128.777  0.00  0.00    +0.047 A 
ATOM     12  C   LIG A   1      -8.145  -3.393 128.895  0.00  0.00    +0.004 A 
ATOM     13  C   LIG A   1      -8.761  -4.056 127.832  0.00  0.00    +0.001 A 
ATOM     14  C   LIG A   1      -9.017  -3.374 126.643  0.00  0.00    +0.015 A 
ATOM     15  C   LIG A   1      -8.659  -2.028 126.530  0.00  0.00    +0.065 A 
ENDROOT
BRANCH   5  16
ATOM     16  O   LIG A   1      -8.968   3.104 123.119  0.00  0.00    -0.491 OA
ATOM     17  C   LIG A   1      -8.083   3.174 122.005  0.00  0.00    +0.277 C 
ENDBRANCH   5  16
BRANCH   6  18
ATOM     18  O   LIG A   1      -7.889   4.233 125.499  0.00  0.00    -0.488 OA
ATOM     19  C   LIG A   1      -6.626   4.758 125.093  0.00  0.00    +0.277 C 
ENDBRANCH   6  18
BRANCH   7  20
ATOM     20  O   LIG A   1      -7.356   2.679 127.595  0.00  0.00    -0.501 OA
ATOM     21  H   LIG A   1      -6.924   3.507 127.309  0.00  0.00    +0.292 HD
ENDBRANCH   7  20
TORSDOF 3
ENDMDL
