MODEL 1
REMARK VINA RESULT:      -6.1      0.000      0.000
REMARK  Name = NuBBE_950
REMARK  8 active torsions:
REMARK  status: ('A' for Active; 'I' for Inactive)
REMARK    1  A    between atoms: O_1  and  C_2
REMARK    2  A    between atoms: C_2  and  C_3
REMARK    3  A    between atoms: C_3  and  C_4
REMARK    4  A    between atoms: C_4  and  C_5
REMARK    5  A    between atoms: C_6  and  C_7
REMARK    6  A    between atoms: C_7  and  C_8
REMARK    7  A    between atoms: C_8  and  C_9
REMARK    8  A    between atoms: C_9  and  C_10
REMARK                            x       y       z     vdW  Elec       q    Type
REMARK                         _______ _______ _______ _____ _____    ______ ____
ROOT
ATOM      1  C   LIG A   1      -8.563  -2.103 122.995  0.00  0.00    +0.027 C 
ENDROOT
BRANCH   1   3
ATOM      2  C   LIG A   1      -6.105  -1.525 123.417  0.00  0.00    -0.031 C 
ATOM      3  C   LIG A   1      -7.417  -1.232 123.450  0.00  0.00    -0.031 C 
BRANCH   2   4
ATOM      4  C   LIG A   1      -5.492  -2.802 122.906  0.00  0.00    +0.038 C 
BRANCH   4   5
ATOM      5  C   LIG A   1      -4.975  -3.694 124.033  0.00  0.00    +0.124 C 
BRANCH   5   6
ATOM      6  C   LIG A   1      -3.953  -4.670 123.509  0.00  0.00    +0.305 C 
ATOM      7  O   LIG A   1      -2.755  -4.514 123.417  0.00  0.00    -0.251 OA
BRANCH   6   8
ATOM      8  O   LIG A   1      -4.529  -5.826 123.113  0.00  0.00    -0.481 OA
ATOM      9  H   LIG A   1      -5.464  -5.728 123.392  0.00  0.00    +0.295 HD
ENDBRANCH   6   8
ENDBRANCH   5   6
ENDBRANCH   4   5
ENDBRANCH   2   4
ENDBRANCH   1   3
BRANCH   1  10
ATOM     10  C   LIG A   1      -9.369  -2.628 124.194  0.00  0.00    +0.009 C 
BRANCH  10  11
ATOM     11  C   LIG A   1      -8.588  -3.644 125.040  0.00  0.00    +0.035 C 
BRANCH  11  12
ATOM     12  C   LIG A   1      -8.397  -3.209 126.482  0.00  0.00    -0.047 A 
ATOM     13  C   LIG A   1      -8.903  -3.983 127.537  0.00  0.00    +0.003 A 
ATOM     14  C   LIG A   1      -8.709  -3.595 128.868  0.00  0.00    +0.000 A 
ATOM     15  C   LIG A   1      -8.014  -2.425 129.163  0.00  0.00    +0.000 A 
ATOM     16  C   LIG A   1      -7.509  -1.644 128.125  0.00  0.00    +0.000 A 
ATOM     17  C   LIG A   1      -7.699  -2.033 126.793  0.00  0.00    +0.003 A 
ENDBRANCH  11  12
ENDBRANCH  10  11
ENDBRANCH   1  10
TORSDOF 8
ENDMDL
MODEL 2
REMARK VINA RESULT:      -5.9     10.500     12.288
REMARK  Name = NuBBE_950
REMARK  8 active torsions:
REMARK  status: ('A' for Active; 'I' for Inactive)
REMARK    1  A    between atoms: O_1  and  C_2
REMARK    2  A    between atoms: C_2  and  C_3
REMARK    3  A    between atoms: C_3  and  C_4
REMARK    4  A    between atoms: C_4  and  C_5
REMARK    5  A    between atoms: C_6  and  C_7
REMARK    6  A    between atoms: C_7  and  C_8
REMARK    7  A    between atoms: C_8  and  C_9
REMARK    8  A    between atoms: C_9  and  C_10
REMARK                            x       y       z     vdW  Elec       q    Type
REMARK                         _______ _______ _______ _____ _____    ______ ____
ROOT
ATOM      1  C   LIG A   1     -11.432   6.659 131.562  0.00  0.00    +0.027 C 
ENDROOT
BRANCH   1   3
ATOM      2  C   LIG A   1     -10.493   4.835 130.030  0.00  0.00    -0.031 C 
ATOM      3  C   LIG A   1     -11.403   5.300 130.904  0.00  0.00    -0.031 C 
BRANCH   2   4
ATOM      4  C   LIG A   1      -9.289   5.581 129.520  0.00  0.00    +0.038 C 
BRANCH   4   5
ATOM      5  C   LIG A   1      -8.016   5.231 130.290  0.00  0.00    +0.124 C 
BRANCH   5   6
ATOM      6  C   LIG A   1      -7.568   6.398 131.131  0.00  0.00    +0.305 C 
ATOM      7  O   LIG A   1      -6.989   7.398 130.767  0.00  0.00    -0.251 OA
BRANCH   6   8
ATOM      8  O   LIG A   1      -7.888   6.224 132.432  0.00  0.00    -0.481 OA
ATOM      9  H   LIG A   1      -8.069   5.262 132.500  0.00  0.00    +0.295 HD
ENDBRANCH   6   8
ENDBRANCH   5   6
ENDBRANCH   4   5
ENDBRANCH   2   4
ENDBRANCH   1   3
BRANCH   1  10
ATOM     10  C   LIG A   1     -12.792   7.345 131.354  0.00  0.00    +0.009 C 
BRANCH  10  11
ATOM     11  C   LIG A   1     -12.725   8.517 130.363  0.00  0.00    +0.035 C 
BRANCH  11  12
ATOM     12  C   LIG A   1     -12.334   8.097 128.957  0.00  0.00    -0.047 A 
ATOM     13  C   LIG A   1     -13.199   7.318 128.176  0.00  0.00    +0.003 A 
ATOM     14  C   LIG A   1     -12.850   6.948 126.871  0.00  0.00    +0.000 A 
ATOM     15  C   LIG A   1     -11.628   7.346 126.333  0.00  0.00    +0.000 A 
ATOM     16  C   LIG A   1     -10.757   8.117 127.100  0.00  0.00    +0.000 A 
ATOM     17  C   LIG A   1     -11.107   8.490 128.403  0.00  0.00    +0.003 A 
ENDBRANCH  11  12
ENDBRANCH  10  11
ENDBRANCH   1  10
TORSDOF 8
ENDMDL
MODEL 3
REMARK VINA RESULT:      -5.9     10.892     12.073
REMARK  Name = NuBBE_950
REMARK  8 active torsions:
REMARK  status: ('A' for Active; 'I' for Inactive)
REMARK    1  A    between atoms: O_1  and  C_2
REMARK    2  A    between atoms: C_2  and  C_3
REMARK    3  A    between atoms: C_3  and  C_4
REMARK    4  A    between atoms: C_4  and  C_5
REMARK    5  A    between atoms: C_6  and  C_7
REMARK    6  A    between atoms: C_7  and  C_8
REMARK    7  A    between atoms: C_8  and  C_9
REMARK    8  A    between atoms: C_9  and  C_10
REMARK                            x       y       z     vdW  Elec       q    Type
REMARK                         _______ _______ _______ _____ _____    ______ ____
ROOT
ATOM      1  C   LIG A   1     -12.004   5.915 130.006  0.00  0.00    +0.027 C 
ENDROOT
BRANCH   1   3
ATOM      2  C   LIG A   1     -12.594   8.368 129.567  0.00  0.00    -0.031 C 
ATOM      3  C   LIG A   1     -12.414   7.318 130.387  0.00  0.00    -0.031 C 
BRANCH   2   4
ATOM      4  C   LIG A   1     -12.428   8.365 128.071  0.00  0.00    +0.038 C 
BRANCH   4   5
ATOM      5  C   LIG A   1     -10.965   8.248 127.645  0.00  0.00    +0.124 C 
BRANCH   5   6
ATOM      6  C   LIG A   1     -10.780   7.086 126.704  0.00  0.00    +0.305 C 
ATOM      7  O   LIG A   1      -9.756   6.488 126.454  0.00  0.00    -0.251 OA
BRANCH   6   8
ATOM      8  O   LIG A   1     -11.942   6.740 126.108  0.00  0.00    -0.481 OA
ATOM      9  H   LIG A   1     -12.213   5.924 126.582  0.00  0.00    +0.295 HD
ENDBRANCH   6   8
ENDBRANCH   5   6
ENDBRANCH   4   5
ENDBRANCH   2   4
ENDBRANCH   1   3
BRANCH   1  10
ATOM     10  C   LIG A   1     -10.594   5.591 130.526  0.00  0.00    +0.009 C 
BRANCH  10  11
ATOM     11  C   LIG A   1      -9.929   6.780 131.233  0.00  0.00    +0.035 C 
BRANCH  11  12
ATOM     12  C   LIG A   1      -8.495   6.511 131.649  0.00  0.00    -0.047 A 
ATOM     13  C   LIG A   1      -7.424   6.969 130.868  0.00  0.00    +0.003 A 
ATOM     14  C   LIG A   1      -6.099   6.741 131.262  0.00  0.00    +0.000 A 
ATOM     15  C   LIG A   1      -5.828   6.044 132.437  0.00  0.00    +0.000 A 
ATOM     16  C   LIG A   1      -6.882   5.579 133.220  0.00  0.00    +0.000 A 
ATOM     17  C   LIG A   1      -8.207   5.811 132.830  0.00  0.00    +0.003 A 
ENDBRANCH  11  12
ENDBRANCH  10  11
ENDBRANCH   1  10
TORSDOF 8
ENDMDL
MODEL 4
REMARK VINA RESULT:      -5.9      3.440      4.759
REMARK  Name = NuBBE_950
REMARK  8 active torsions:
REMARK  status: ('A' for Active; 'I' for Inactive)
REMARK    1  A    between atoms: O_1  and  C_2
REMARK    2  A    between atoms: C_2  and  C_3
REMARK    3  A    between atoms: C_3  and  C_4
REMARK    4  A    between atoms: C_4  and  C_5
REMARK    5  A    between atoms: C_6  and  C_7
REMARK    6  A    between atoms: C_7  and  C_8
REMARK    7  A    between atoms: C_8  and  C_9
REMARK    8  A    between atoms: C_9  and  C_10
REMARK                            x       y       z     vdW  Elec       q    Type
REMARK                         _______ _______ _______ _____ _____    ______ ____
ROOT
ATOM      1  C   LIG A   1      -9.118  -3.194 126.609  0.00  0.00    +0.027 C 
ENDROOT
BRANCH   1   3
ATOM      2  C   LIG A   1      -8.143  -3.508 124.263  0.00  0.00    -0.031 C 
ATOM      3  C   LIG A   1      -8.057  -3.571 125.603  0.00  0.00    -0.031 C 
BRANCH   2   4
ATOM      4  C   LIG A   1      -9.333  -3.035 123.470  0.00  0.00    +0.038 C 
BRANCH   4   5
ATOM      5  C   LIG A   1      -9.020  -1.801 122.625  0.00  0.00    +0.124 C 
BRANCH   5   6
ATOM      6  C   LIG A   1      -9.672  -0.577 123.214  0.00  0.00    +0.305 C 
ATOM      7  O   LIG A   1      -9.565  -0.148 124.342  0.00  0.00    -0.251 OA
BRANCH   6   8
ATOM      8  O   LIG A   1     -10.455   0.051 122.311  0.00  0.00    -0.481 OA
ATOM      9  H   LIG A   1     -10.171  -0.329 121.452  0.00  0.00    +0.295 HD
ENDBRANCH   6   8
ENDBRANCH   5   6
ENDBRANCH   4   5
ENDBRANCH   2   4
ENDBRANCH   1   3
BRANCH   1  10
ATOM     10  C   LIG A   1      -8.928  -3.962 127.927  0.00  0.00    +0.009 C 
BRANCH  10  11
ATOM     11  C   LIG A   1      -8.366  -3.084 129.055  0.00  0.00    +0.035 C 
BRANCH  11  12
ATOM     12  C   LIG A   1      -6.867  -3.228 129.244  0.00  0.00    -0.047 A 
ATOM     13  C   LIG A   1      -6.347  -4.128 130.185  0.00  0.00    +0.003 A 
ATOM     14  C   LIG A   1      -4.963  -4.279 130.345  0.00  0.00    +0.000 A 
ATOM     15  C   LIG A   1      -4.082  -3.526 129.572  0.00  0.00    +0.000 A 
ATOM     16  C   LIG A   1      -4.586  -2.626 128.635  0.00  0.00    +0.000 A 
ATOM     17  C   LIG A   1      -5.968  -2.477 128.472  0.00  0.00    +0.003 A 
ENDBRANCH  11  12
ENDBRANCH  10  11
ENDBRANCH   1  10
TORSDOF 8
ENDMDL
MODEL 5
REMARK VINA RESULT:      -5.8      3.507      4.439
REMARK  Name = NuBBE_950
REMARK  8 active torsions:
REMARK  status: ('A' for Active; 'I' for Inactive)
REMARK    1  A    between atoms: O_1  and  C_2
REMARK    2  A    between atoms: C_2  and  C_3
REMARK    3  A    between atoms: C_3  and  C_4
REMARK    4  A    between atoms: C_4  and  C_5
REMARK    5  A    between atoms: C_6  and  C_7
REMARK    6  A    between atoms: C_7  and  C_8
REMARK    7  A    between atoms: C_8  and  C_9
REMARK    8  A    between atoms: C_9  and  C_10
REMARK                            x       y       z     vdW  Elec       q    Type
REMARK                         _______ _______ _______ _____ _____    ______ ____
ROOT
ATOM      1  C   LIG A   1      -8.885  -2.274 122.914  0.00  0.00    +0.027 C 
ENDROOT
BRANCH   1   3
ATOM      2  C   LIG A   1      -6.890  -0.702 123.237  0.00  0.00    -0.031 C 
ATOM      3  C   LIG A   1      -7.421  -1.916 123.008  0.00  0.00    -0.031 C 
BRANCH   2   4
ATOM      4  C   LIG A   1      -7.655   0.575 123.459  0.00  0.00    +0.038 C 
BRANCH   4   5
ATOM      5  C   LIG A   1      -8.022   0.790 124.927  0.00  0.00    +0.124 C 
BRANCH   5   6
ATOM      6  C   LIG A   1      -9.512   0.949 125.082  0.00  0.00    +0.305 C 
ATOM      7  O   LIG A   1     -10.290   0.183 125.608  0.00  0.00    -0.251 OA
BRANCH   6   8
ATOM      8  O   LIG A   1      -9.947   2.106 124.539  0.00  0.00    -0.481 OA
ATOM      9  H   LIG A   1     -10.693   1.829 123.965  0.00  0.00    +0.295 HD
ENDBRANCH   6   8
ENDBRANCH   5   6
ENDBRANCH   4   5
ENDBRANCH   2   4
ENDBRANCH   1   3
BRANCH   1  10
ATOM     10  C   LIG A   1      -9.360  -2.995 124.186  0.00  0.00    +0.009 C 
BRANCH  10  11
ATOM     11  C   LIG A   1      -8.219  -3.695 124.938  0.00  0.00    +0.035 C 
BRANCH  11  12
ATOM     12  C   LIG A   1      -8.082  -3.245 126.381  0.00  0.00    -0.047 A 
ATOM     13  C   LIG A   1      -7.210  -2.203 126.728  0.00  0.00    +0.003 A 
ATOM     14  C   LIG A   1      -7.098  -1.772 128.055  0.00  0.00    +0.000 A 
ATOM     15  C   LIG A   1      -7.852  -2.382 129.056  0.00  0.00    +0.000 A 
ATOM     16  C   LIG A   1      -8.720  -3.421 128.726  0.00  0.00    +0.000 A 
ATOM     17  C   LIG A   1      -8.835  -3.850 127.399  0.00  0.00    +0.003 A 
ENDBRANCH  11  12
ENDBRANCH  10  11
ENDBRANCH   1  10
TORSDOF 8
ENDMDL
MODEL 6
REMARK VINA RESULT:      -5.8      4.643      7.254
REMARK  Name = NuBBE_950
REMARK  8 active torsions:
REMARK  status: ('A' for Active; 'I' for Inactive)
REMARK    1  A    between atoms: O_1  and  C_2
REMARK    2  A    between atoms: C_2  and  C_3
REMARK    3  A    between atoms: C_3  and  C_4
REMARK    4  A    between atoms: C_4  and  C_5
REMARK    5  A    between atoms: C_6  and  C_7
REMARK    6  A    between atoms: C_7  and  C_8
REMARK    7  A    between atoms: C_8  and  C_9
REMARK    8  A    between atoms: C_9  and  C_10
REMARK                            x       y       z     vdW  Elec       q    Type
REMARK                         _______ _______ _______ _____ _____    ______ ____
ROOT
ATOM      1  C   LIG A   1      -7.647   0.618 124.344  0.00  0.00    +0.027 C 
ENDROOT
BRANCH   1   3
ATOM      2  C   LIG A   1      -6.221  -1.503 124.197  0.00  0.00    -0.031 C 
ATOM      3  C   LIG A   1      -6.440  -0.246 124.621  0.00  0.00    -0.031 C 
BRANCH   2   4
ATOM      4  C   LIG A   1      -7.144  -2.325 123.337  0.00  0.00    +0.038 C 
BRANCH   4   5
ATOM      5  C   LIG A   1      -7.868  -3.411 124.131  0.00  0.00    +0.124 C 
BRANCH   5   6
ATOM      6  C   LIG A   1      -9.298  -3.014 124.390  0.00  0.00    +0.305 C 
ATOM      7  O   LIG A   1      -9.731  -2.354 125.308  0.00  0.00    -0.251 OA
BRANCH   6   8
ATOM      8  O   LIG A   1     -10.127  -3.497 123.439  0.00  0.00    -0.481 OA
ATOM      9  H   LIG A   1     -10.992  -3.085 123.653  0.00  0.00    +0.295 HD
ENDBRANCH   6   8
ENDBRANCH   5   6
ENDBRANCH   4   5
ENDBRANCH   2   4
ENDBRANCH   1   3
BRANCH   1  10
ATOM     10  C   LIG A   1      -7.232   2.067 124.041  0.00  0.00    +0.009 C 
BRANCH  10  11
ATOM     11  C   LIG A   1      -7.986   2.668 122.846  0.00  0.00    +0.035 C 
BRANCH  11  12
ATOM     12  C   LIG A   1      -7.085   3.401 121.869  0.00  0.00    -0.047 A 
ATOM     13  C   LIG A   1      -7.546   3.745 120.590  0.00  0.00    +0.003 A 
ATOM     14  C   LIG A   1      -6.723   4.441 119.695  0.00  0.00    +0.000 A 
ATOM     15  C   LIG A   1      -5.427   4.795 120.064  0.00  0.00    +0.000 A 
ATOM     16  C   LIG A   1      -4.956   4.455 121.330  0.00  0.00    +0.000 A 
ATOM     17  C   LIG A   1      -5.778   3.763 122.227  0.00  0.00    +0.003 A 
ENDBRANCH  11  12
ENDBRANCH  10  11
ENDBRANCH   1  10
TORSDOF 8
ENDMDL
MODEL 7
REMARK VINA RESULT:      -5.7      3.873      5.969
REMARK  Name = NuBBE_950
REMARK  8 active torsions:
REMARK  status: ('A' for Active; 'I' for Inactive)
REMARK    1  A    between atoms: O_1  and  C_2
REMARK    2  A    between atoms: C_2  and  C_3
REMARK    3  A    between atoms: C_3  and  C_4
REMARK    4  A    between atoms: C_4  and  C_5
REMARK    5  A    between atoms: C_6  and  C_7
REMARK    6  A    between atoms: C_7  and  C_8
REMARK    7  A    between atoms: C_8  and  C_9
REMARK    8  A    between atoms: C_9  and  C_10
REMARK                            x       y       z     vdW  Elec       q    Type
REMARK                         _______ _______ _______ _____ _____    ______ ____
ROOT
ATOM      1  C   LIG A   1      -5.609  -0.749 127.186  0.00  0.00    +0.027 C 
ENDROOT
BRANCH   1   3
ATOM      2  C   LIG A   1      -7.959   0.237 127.429  0.00  0.00    -0.031 C 
ATOM      3  C   LIG A   1      -6.860  -0.352 127.932  0.00  0.00    -0.031 C 
BRANCH   2   4
ATOM      4  C   LIG A   1      -8.180   0.626 125.992  0.00  0.00    +0.038 C 
BRANCH   4   5
ATOM      5  C   LIG A   1      -9.562   0.222 125.482  0.00  0.00    +0.124 C 
BRANCH   5   6
ATOM      6  C   LIG A   1     -10.062   1.215 124.465  0.00  0.00    +0.305 C 
ATOM      7  O   LIG A   1     -10.732   0.995 123.479  0.00  0.00    -0.251 OA
BRANCH   6   8
ATOM      8  O   LIG A   1      -9.667   2.471 124.762  0.00  0.00    -0.481 OA
ATOM      9  H   LIG A   1     -10.435   2.849 125.243  0.00  0.00    +0.295 HD
ENDBRANCH   6   8
ENDBRANCH   5   6
ENDBRANCH   4   5
ENDBRANCH   2   4
ENDBRANCH   1   3
BRANCH   1  10
ATOM     10  C   LIG A   1      -5.667  -2.223 126.753  0.00  0.00    +0.009 C 
BRANCH  10  11
ATOM     11  C   LIG A   1      -5.544  -2.405 125.233  0.00  0.00    +0.035 C 
BRANCH  11  12
ATOM     12  C   LIG A   1      -6.883  -2.526 124.529  0.00  0.00    -0.047 A 
ATOM     13  C   LIG A   1      -7.101  -1.900 123.293  0.00  0.00    +0.003 A 
ATOM     14  C   LIG A   1      -8.328  -2.029 122.630  0.00  0.00    +0.000 A 
ATOM     15  C   LIG A   1      -9.356  -2.777 123.199  0.00  0.00    +0.000 A 
ATOM     16  C   LIG A   1      -9.154  -3.401 124.428  0.00  0.00    +0.000 A 
ATOM     17  C   LIG A   1      -7.926  -3.277 125.089  0.00  0.00    +0.003 A 
ENDBRANCH  11  12
ENDBRANCH  10  11
ENDBRANCH   1  10
TORSDOF 8
ENDMDL
MODEL 8
REMARK VINA RESULT:      -5.6      5.122      7.881
REMARK  Name = NuBBE_950
REMARK  8 active torsions:
REMARK  status: ('A' for Active; 'I' for Inactive)
REMARK    1  A    between atoms: O_1  and  C_2
REMARK    2  A    between atoms: C_2  and  C_3
REMARK    3  A    between atoms: C_3  and  C_4
REMARK    4  A    between atoms: C_4  and  C_5
REMARK    5  A    between atoms: C_6  and  C_7
REMARK    6  A    between atoms: C_7  and  C_8
REMARK    7  A    between atoms: C_8  and  C_9
REMARK    8  A    between atoms: C_9  and  C_10
REMARK                            x       y       z     vdW  Elec       q    Type
REMARK                         _______ _______ _______ _____ _____    ______ ____
ROOT
ATOM      1  C   LIG A   1      -7.945   1.868 124.371  0.00  0.00    +0.027 C 
ENDROOT
BRANCH   1   3
ATOM      2  C   LIG A   1      -8.724  -0.380 123.424  0.00  0.00    -0.031 C 
ATOM      3  C   LIG A   1      -8.840   0.951 123.571  0.00  0.00    -0.031 C 
BRANCH   2   4
ATOM      4  C   LIG A   1      -7.663  -1.253 124.041  0.00  0.00    +0.038 C 
BRANCH   4   5
ATOM      5  C   LIG A   1      -7.976  -2.742 123.898  0.00  0.00    +0.124 C 
BRANCH   5   6
ATOM      6  C   LIG A   1      -9.376  -3.037 124.372  0.00  0.00    +0.305 C 
ATOM      7  O   LIG A   1      -9.833  -2.879 125.483  0.00  0.00    -0.251 OA
BRANCH   6   8
ATOM      8  O   LIG A   1     -10.141  -3.537 123.378  0.00  0.00    -0.481 OA
ATOM      9  H   LIG A   1      -9.729  -3.176 122.563  0.00  0.00    +0.295 HD
ENDBRANCH   6   8
ENDBRANCH   5   6
ENDBRANCH   4   5
ENDBRANCH   2   4
ENDBRANCH   1   3
BRANCH   1  10
ATOM     10  C   LIG A   1      -7.402   3.011 123.498  0.00  0.00    +0.009 C 
BRANCH  10  11
ATOM     11  C   LIG A   1      -7.959   2.987 122.068  0.00  0.00    +0.035 C 
BRANCH  11  12
ATOM     12  C   LIG A   1      -7.123   3.781 121.080  0.00  0.00    -0.047 A 
ATOM     13  C   LIG A   1      -5.817   4.178 121.404  0.00  0.00    +0.003 A 
ATOM     14  C   LIG A   1      -5.036   4.891 120.486  0.00  0.00    +0.000 A 
ATOM     15  C   LIG A   1      -5.553   5.224 119.236  0.00  0.00    +0.000 A 
ATOM     16  C   LIG A   1      -6.850   4.840 118.903  0.00  0.00    +0.000 A 
ATOM     17  C   LIG A   1      -7.630   4.123 119.818  0.00  0.00    +0.003 A 
ENDBRANCH  11  12
ENDBRANCH  10  11
ENDBRANCH   1  10
TORSDOF 8
ENDMDL
MODEL 9
REMARK VINA RESULT:      -5.6      2.724      5.468
REMARK  Name = NuBBE_950
REMARK  8 active torsions:
REMARK  status: ('A' for Active; 'I' for Inactive)
REMARK    1  A    between atoms: O_1  and  C_2
REMARK    2  A    between atoms: C_2  and  C_3
REMARK    3  A    between atoms: C_3  and  C_4
REMARK    4  A    between atoms: C_4  and  C_5
REMARK    5  A    between atoms: C_6  and  C_7
REMARK    6  A    between atoms: C_7  and  C_8
REMARK    7  A    between atoms: C_8  and  C_9
REMARK    8  A    between atoms: C_9  and  C_10
REMARK                            x       y       z     vdW  Elec       q    Type
REMARK                         _______ _______ _______ _____ _____    ______ ____
ROOT
ATOM      1  C   LIG A   1      -7.889  -2.673 127.470  0.00  0.00    +0.027 C 
ENDROOT
BRANCH   1   3
ATOM      2  C   LIG A   1      -7.429  -3.594 129.814  0.00  0.00    -0.031 C 
ATOM      3  C   LIG A   1      -8.185  -3.485 128.708  0.00  0.00    -0.031 C 
BRANCH   2   4
ATOM      4  C   LIG A   1      -6.108  -2.913 130.058  0.00  0.00    +0.038 C 
BRANCH   4   5
ATOM      5  C   LIG A   1      -4.926  -3.875 129.954  0.00  0.00    +0.124 C 
BRANCH   5   6
ATOM      6  C   LIG A   1      -3.730  -3.180 129.357  0.00  0.00    +0.305 C 
ATOM      7  O   LIG A   1      -2.598  -3.602 129.260  0.00  0.00    -0.251 OA
BRANCH   6   8
ATOM      8  O   LIG A   1      -4.046  -1.947 128.905  0.00  0.00    -0.481 OA
ATOM      9  H   LIG A   1      -4.522  -2.122 128.065  0.00  0.00    +0.295 HD
ENDBRANCH   6   8
ENDBRANCH   5   6
ENDBRANCH   4   5
ENDBRANCH   2   4
ENDBRANCH   1   3
BRANCH   1  10
ATOM     10  C   LIG A   1      -8.924  -2.948 126.367  0.00  0.00    +0.009 C 
BRANCH  10  11
ATOM     11  C   LIG A   1      -8.418  -3.935 125.305  0.00  0.00    +0.035 C 
BRANCH  11  12
ATOM     12  C   LIG A   1      -7.467  -3.307 124.303  0.00  0.00    -0.047 A 
ATOM     13  C   LIG A   1      -7.928  -2.369 123.367  0.00  0.00    +0.003 A 
ATOM     14  C   LIG A   1      -7.048  -1.773 122.456  0.00  0.00    +0.000 A 
ATOM     15  C   LIG A   1      -5.696  -2.112 122.462  0.00  0.00    +0.000 A 
ATOM     16  C   LIG A   1      -5.225  -3.045 123.383  0.00  0.00    +0.000 A 
ATOM     17  C   LIG A   1      -6.104  -3.639 124.298  0.00  0.00    +0.003 A 
ENDBRANCH  11  12
ENDBRANCH  10  11
ENDBRANCH   1  10
TORSDOF 8
ENDMDL
