MODEL 1
REMARK VINA RESULT:      -8.2      0.000      0.000
REMARK  Name = NuBBE_137
REMARK  11 active torsions:
REMARK  status: ('A' for Active; 'I' for Inactive)
REMARK    1  A    between atoms: O_1  and  C_2
REMARK    2  A    between atoms: C_5  and  C_6
REMARK    3  A    between atoms: C_7  and  C_8
REMARK    4  A    between atoms: C_8  and  O_9
REMARK    5  A    between atoms: O_9  and  C_10
REMARK    6  A    between atoms: C_12  and  O_14
REMARK    7  A    between atoms: C_15  and  O_17
REMARK    8  A    between atoms: C_19  and  C_20
REMARK    9  A    between atoms: C_19  and  O_23
REMARK   10  A    between atoms: C_20  and  O_21
REMARK   11  A    between atoms: C_27  and  O_28
REMARK                            x       y       z     vdW  Elec       q    Type
REMARK                         _______ _______ _______ _____ _____    ______ ____
ROOT
ATOM      1  C   LIG A   1      -7.347  -0.743 123.411  0.00  0.00    +0.211 C 
ATOM      2  C   LIG A   1      -6.191  -1.751 123.307  0.00  0.00    +0.184 C 
ATOM      3  C   LIG A   1      -6.341  -2.865 124.355  0.00  0.00    +0.150 C 
ATOM      4  C   LIG A   1      -7.666  -3.608 124.186  0.00  0.00    +0.080 C 
ATOM      5  C   LIG A   1      -8.878  -2.674 124.173  0.00  0.00    +0.168 C 
ATOM      6  C   LIG A   1      -8.697  -1.460 123.251  0.00  0.00    +0.093 C 
ENDROOT
BRANCH   2   7
ATOM      7  O   LIG A   1      -6.166  -2.331 121.996  0.00  0.00    -0.386 OA
ATOM      8  H   LIG A   1      -5.414  -1.913 121.526  0.00  0.00    +0.210 HD
ENDBRANCH   2   7
BRANCH   3   9
ATOM      9  O   LIG A   1      -5.277  -3.809 124.176  0.00  0.00    -0.389 OA
ATOM     10  H   LIG A   1      -4.721  -3.773 124.975  0.00  0.00    +0.210 HD
ENDBRANCH   3   9
BRANCH   5  11
ATOM     11  C   LIG A   1      -9.243  -2.243 125.607  0.00  0.00    +0.337 C 
ATOM     12  O   LIG A   1      -9.035  -2.849 126.646  0.00  0.00    -0.248 OA
BRANCH  11  13
ATOM     13  O   LIG A   1      -9.859  -1.036 125.631  0.00  0.00    -0.479 OA
ATOM     14  H   LIG A   1     -10.779  -1.226 125.346  0.00  0.00    +0.295 HD
ENDBRANCH  11  13
ENDBRANCH   5  11
BRANCH   5  15
ATOM     15  O   LIG A   1      -9.990  -3.436 123.665  0.00  0.00    -0.377 OA
ATOM     16  H   LIG A   1      -9.656  -3.910 122.878  0.00  0.00    +0.211 HD
ENDBRANCH   5  15
BRANCH   1  17
ATOM     17  O   LIG A   1      -7.257  -0.073 124.685  0.00  0.00    -0.456 OA
BRANCH  17  18
ATOM     18  C   LIG A   1      -7.704   1.212 124.709  0.00  0.00    +0.332 C 
ATOM     19  O   LIG A   1      -8.230   1.777 125.642  0.00  0.00    -0.246 OA
BRANCH  18  21
ATOM     20  C   LIG A   1      -6.562   2.918 123.405  0.00  0.00    +0.015 C 
ATOM     21  C   LIG A   1      -7.369   1.847 123.422  0.00  0.00    +0.092 C 
BRANCH  20  25
ATOM     22  C   LIG A   1      -5.569   5.126 119.876  0.00  0.00    +0.158 A 
ATOM     23  C   LIG A   1      -6.611   4.203 119.851  0.00  0.00    +0.050 A 
ATOM     24  C   LIG A   1      -6.916   3.470 121.005  0.00  0.00    +0.012 A 
ATOM     25  C   LIG A   1      -6.175   3.648 122.186  0.00  0.00    -0.021 A 
ATOM     26  C   LIG A   1      -5.121   4.570 122.188  0.00  0.00    +0.057 A 
ATOM     27  C   LIG A   1      -4.823   5.302 121.039  0.00  0.00    +0.159 A 
BRANCH  22  28
ATOM     28  O   LIG A   1      -5.276   5.875 118.773  0.00  0.00    -0.503 OA
ATOM     29  H   LIG A   1      -5.955   6.556 118.660  0.00  0.00    +0.292 HD
ENDBRANCH  22  28
BRANCH  27  30
ATOM     30  O   LIG A   1      -3.804   6.212 121.055  0.00  0.00    -0.503 OA
ATOM     31  H   LIG A   1      -3.931   6.820 121.800  0.00  0.00    +0.292 HD
ENDBRANCH  27  30
ENDBRANCH  20  25
ENDBRANCH  18  21
ENDBRANCH  17  18
ENDBRANCH   1  17
TORSDOF 11
ENDMDL
MODEL 2
REMARK VINA RESULT:      -7.5      1.021      2.707
REMARK  Name = NuBBE_137
REMARK  11 active torsions:
REMARK  status: ('A' for Active; 'I' for Inactive)
REMARK    1  A    between atoms: O_1  and  C_2
REMARK    2  A    between atoms: C_5  and  C_6
REMARK    3  A    between atoms: C_7  and  C_8
REMARK    4  A    between atoms: C_8  and  O_9
REMARK    5  A    between atoms: O_9  and  C_10
REMARK    6  A    between atoms: C_12  and  O_14
REMARK    7  A    between atoms: C_15  and  O_17
REMARK    8  A    between atoms: C_19  and  C_20
REMARK    9  A    between atoms: C_19  and  O_23
REMARK   10  A    between atoms: C_20  and  O_21
REMARK   11  A    between atoms: C_27  and  O_28
REMARK                            x       y       z     vdW  Elec       q    Type
REMARK                         _______ _______ _______ _____ _____    ______ ____
ROOT
ATOM      1  C   LIG A   1      -7.597  -0.367 125.658  0.00  0.00    +0.211 C 
ATOM      2  C   LIG A   1      -8.708  -1.231 126.276  0.00  0.00    +0.184 C 
ATOM      3  C   LIG A   1      -9.229  -2.260 125.260  0.00  0.00    +0.150 C 
ATOM      4  C   LIG A   1      -8.105  -3.172 124.769  0.00  0.00    +0.080 C 
ATOM      5  C   LIG A   1      -6.901  -2.398 124.227  0.00  0.00    +0.168 C 
ATOM      6  C   LIG A   1      -6.450  -1.255 125.149  0.00  0.00    +0.093 C 
ENDROOT
BRANCH   2   7
ATOM      7  O   LIG A   1      -8.208  -1.915 127.432  0.00  0.00    -0.386 OA
ATOM      8  H   LIG A   1      -8.088  -2.850 127.166  0.00  0.00    +0.210 HD
ENDBRANCH   2   7
BRANCH   3   9
ATOM      9  O   LIG A   1     -10.216  -3.079 125.901  0.00  0.00    -0.389 OA
ATOM     10  H   LIG A   1      -9.740  -3.745 126.428  0.00  0.00    +0.210 HD
ENDBRANCH   3   9
BRANCH   5  11
ATOM     11  C   LIG A   1      -7.183  -1.892 122.799  0.00  0.00    +0.337 C 
ATOM     12  O   LIG A   1      -7.962  -2.356 121.982  0.00  0.00    -0.248 OA
BRANCH  11  13
ATOM     13  O   LIG A   1      -6.444  -0.798 122.495  0.00  0.00    -0.479 OA
ATOM     14  H   LIG A   1      -5.717  -1.142 121.933  0.00  0.00    +0.295 HD
ENDBRANCH  11  13
ENDBRANCH   5  11
BRANCH   5  15
ATOM     15  O   LIG A   1      -5.807  -3.331 124.136  0.00  0.00    -0.377 OA
ATOM     16  H   LIG A   1      -5.135  -2.903 123.568  0.00  0.00    +0.211 HD
ENDBRANCH   5  15
BRANCH   1  17
ATOM     17  O   LIG A   1      -8.167   0.416 124.589  0.00  0.00    -0.456 OA
BRANCH  17  18
ATOM     18  C   LIG A   1      -8.295   1.748 124.837  0.00  0.00    +0.332 C 
ATOM     19  O   LIG A   1      -8.556   2.262 125.902  0.00  0.00    -0.246 OA
BRANCH  18  21
ATOM     20  C   LIG A   1      -6.712   2.817 123.331  0.00  0.00    +0.015 C 
ATOM     21  C   LIG A   1      -7.985   2.487 123.600  0.00  0.00    +0.092 C 
BRANCH  20  25
ATOM     22  C   LIG A   1      -5.598   5.098 119.886  0.00  0.00    +0.158 A 
ATOM     23  C   LIG A   1      -6.659   4.200 119.814  0.00  0.00    +0.050 A 
ATOM     24  C   LIG A   1      -7.004   3.443 120.941  0.00  0.00    +0.012 A 
ATOM     25  C   LIG A   1      -6.285   3.570 122.141  0.00  0.00    -0.021 A 
ATOM     26  C   LIG A   1      -5.211   4.469 122.190  0.00  0.00    +0.057 A 
ATOM     27  C   LIG A   1      -4.873   5.225 121.068  0.00  0.00    +0.159 A 
BRANCH  22  28
ATOM     28  O   LIG A   1      -5.266   5.871 118.811  0.00  0.00    -0.503 OA
ATOM     29  H   LIG A   1      -4.770   6.645 119.115  0.00  0.00    +0.292 HD
ENDBRANCH  22  28
BRANCH  27  30
ATOM     30  O   LIG A   1      -3.834   6.112 121.131  0.00  0.00    -0.503 OA
ATOM     31  H   LIG A   1      -3.201   5.910 120.425  0.00  0.00    +0.292 HD
ENDBRANCH  27  30
ENDBRANCH  20  25
ENDBRANCH  18  21
ENDBRANCH  17  18
ENDBRANCH   1  17
TORSDOF 11
ENDMDL
MODEL 3
REMARK VINA RESULT:      -7.3      1.284      2.950
REMARK  Name = NuBBE_137
REMARK  11 active torsions:
REMARK  status: ('A' for Active; 'I' for Inactive)
REMARK    1  A    between atoms: O_1  and  C_2
REMARK    2  A    between atoms: C_5  and  C_6
REMARK    3  A    between atoms: C_7  and  C_8
REMARK    4  A    between atoms: C_8  and  O_9
REMARK    5  A    between atoms: O_9  and  C_10
REMARK    6  A    between atoms: C_12  and  O_14
REMARK    7  A    between atoms: C_15  and  O_17
REMARK    8  A    between atoms: C_19  and  C_20
REMARK    9  A    between atoms: C_19  and  O_23
REMARK   10  A    between atoms: C_20  and  O_21
REMARK   11  A    between atoms: C_27  and  O_28
REMARK                            x       y       z     vdW  Elec       q    Type
REMARK                         _______ _______ _______ _____ _____    ______ ____
ROOT
ATOM      1  C   LIG A   1      -7.996   0.169 125.640  0.00  0.00    +0.211 C 
ATOM      2  C   LIG A   1      -9.250   0.616 124.870  0.00  0.00    +0.184 C 
ATOM      3  C   LIG A   1      -9.227   0.079 123.429  0.00  0.00    +0.150 C 
ATOM      4  C   LIG A   1      -9.148  -1.447 123.408  0.00  0.00    +0.080 C 
ATOM      5  C   LIG A   1      -7.985  -1.997 124.237  0.00  0.00    +0.168 C 
ATOM      6  C   LIG A   1      -7.884  -1.365 125.633  0.00  0.00    +0.093 C 
ENDROOT
BRANCH   2   7
ATOM      7  O   LIG A   1     -10.427   0.140 125.536  0.00  0.00    -0.386 OA
ATOM      8  H   LIG A   1     -10.236   0.186 126.495  0.00  0.00    +0.210 HD
ENDBRANCH   2   7
BRANCH   3   9
ATOM      9  O   LIG A   1     -10.441   0.469 122.775  0.00  0.00    -0.389 OA
ATOM     10  H   LIG A   1     -10.442   0.053 121.895  0.00  0.00    +0.210 HD
ENDBRANCH   3   9
BRANCH   5  11
ATOM     11  C   LIG A   1      -6.659  -1.866 123.462  0.00  0.00    +0.337 C 
ATOM     12  O   LIG A   1      -6.419  -1.142 122.510  0.00  0.00    -0.248 OA
BRANCH  11  13
ATOM     13  O   LIG A   1      -5.698  -2.679 123.963  0.00  0.00    -0.479 OA
ATOM     14  H   LIG A   1      -6.107  -3.079 124.762  0.00  0.00    +0.295 HD
ENDBRANCH  11  13
ENDBRANCH   5  11
BRANCH   5  15
ATOM     15  O   LIG A   1      -8.229  -3.405 124.422  0.00  0.00    -0.377 OA
ATOM     16  H   LIG A   1      -7.520  -3.868 123.932  0.00  0.00    +0.211 HD
ENDBRANCH   5  15
BRANCH   1  17
ATOM     17  O   LIG A   1      -6.842   0.781 125.030  0.00  0.00    -0.456 OA
BRANCH  17  18
ATOM     18  C   LIG A   1      -6.469   1.984 125.548  0.00  0.00    +0.332 C 
ATOM     19  O   LIG A   1      -6.449   2.290 126.719  0.00  0.00    -0.246 OA
BRANCH  18  21
ATOM     20  C   LIG A   1      -6.603   2.750 123.243  0.00  0.00    +0.015 C 
ATOM     21  C   LIG A   1      -6.012   2.846 124.444  0.00  0.00    +0.092 C 
BRANCH  20  25
ATOM     22  C   LIG A   1      -5.618   5.139 119.832  0.00  0.00    +0.158 A 
ATOM     23  C   LIG A   1      -6.652   4.211 119.757  0.00  0.00    +0.050 A 
ATOM     24  C   LIG A   1      -6.954   3.418 120.873  0.00  0.00    +0.012 A 
ATOM     25  C   LIG A   1      -6.219   3.542 122.063  0.00  0.00    -0.021 A 
ATOM     26  C   LIG A   1      -5.172   4.472 122.115  0.00  0.00    +0.057 A 
ATOM     27  C   LIG A   1      -4.876   5.263 121.005  0.00  0.00    +0.159 A 
BRANCH  22  28
ATOM     28  O   LIG A   1      -5.328   5.945 118.769  0.00  0.00    -0.503 OA
ATOM     29  H   LIG A   1      -4.367   6.028 118.683  0.00  0.00    +0.292 HD
ENDBRANCH  22  28
BRANCH  27  30
ATOM     30  O   LIG A   1      -3.864   6.179 121.069  0.00  0.00    -0.503 OA
ATOM     31  H   LIG A   1      -4.204   7.046 120.800  0.00  0.00    +0.292 HD
ENDBRANCH  27  30
ENDBRANCH  20  25
ENDBRANCH  18  21
ENDBRANCH  17  18
ENDBRANCH   1  17
TORSDOF 11
ENDMDL
MODEL 4
REMARK VINA RESULT:      -7.3      1.340      2.002
REMARK  Name = NuBBE_137
REMARK  11 active torsions:
REMARK  status: ('A' for Active; 'I' for Inactive)
REMARK    1  A    between atoms: O_1  and  C_2
REMARK    2  A    between atoms: C_5  and  C_6
REMARK    3  A    between atoms: C_7  and  C_8
REMARK    4  A    between atoms: C_8  and  O_9
REMARK    5  A    between atoms: O_9  and  C_10
REMARK    6  A    between atoms: C_12  and  O_14
REMARK    7  A    between atoms: C_15  and  O_17
REMARK    8  A    between atoms: C_19  and  C_20
REMARK    9  A    between atoms: C_19  and  O_23
REMARK   10  A    between atoms: C_20  and  O_21
REMARK   11  A    between atoms: C_27  and  O_28
REMARK                            x       y       z     vdW  Elec       q    Type
REMARK                         _______ _______ _______ _____ _____    ______ ____
ROOT
ATOM      1  C   LIG A   1      -9.028   0.132 124.650  0.00  0.00    +0.211 C 
ATOM      2  C   LIG A   1      -8.727  -0.535 123.297  0.00  0.00    +0.184 C 
ATOM      3  C   LIG A   1      -7.541  -1.505 123.418  0.00  0.00    +0.150 C 
ATOM      4  C   LIG A   1      -7.818  -2.591 124.458  0.00  0.00    +0.080 C 
ATOM      5  C   LIG A   1      -8.228  -2.024 125.818  0.00  0.00    +0.168 C 
ATOM      6  C   LIG A   1      -9.306  -0.934 125.721  0.00  0.00    +0.093 C 
ENDROOT
BRANCH   2   7
ATOM      7  O   LIG A   1      -9.882  -1.250 122.839  0.00  0.00    -0.386 OA
ATOM      8  H   LIG A   1      -9.644  -2.200 122.864  0.00  0.00    +0.210 HD
ENDBRANCH   2   7
BRANCH   3   9
ATOM      9  O   LIG A   1      -7.342  -2.146 122.151  0.00  0.00    -0.389 OA
ATOM     10  H   LIG A   1      -6.940  -1.489 121.555  0.00  0.00    +0.210 HD
ENDBRANCH   3   9
BRANCH   5  11
ATOM     11  C   LIG A   1      -6.991  -1.527 126.592  0.00  0.00    +0.337 C 
ATOM     12  O   LIG A   1      -5.832  -1.882 126.455  0.00  0.00    -0.248 OA
BRANCH  11  13
ATOM     13  O   LIG A   1      -7.315  -0.582 127.508  0.00  0.00    -0.479 OA
ATOM     14  H   LIG A   1      -6.473  -0.402 127.981  0.00  0.00    +0.295 HD
ENDBRANCH  11  13
ENDBRANCH   5  11
BRANCH   5  15
ATOM     15  O   LIG A   1      -8.790  -3.114 126.576  0.00  0.00    -0.377 OA
ATOM     16  H   LIG A   1      -8.091  -3.397 127.199  0.00  0.00    +0.211 HD
ENDBRANCH   5  15
BRANCH   1  17
ATOM     17  O   LIG A   1      -7.902   0.958 125.013  0.00  0.00    -0.456 OA
BRANCH  17  18
ATOM     18  C   LIG A   1      -8.180   2.274 125.221  0.00  0.00    +0.332 C 
ATOM     19  O   LIG A   1      -8.545   2.779 126.259  0.00  0.00    -0.246 OA
BRANCH  18  21
ATOM     20  C   LIG A   1      -6.661   2.934 123.440  0.00  0.00    +0.015 C 
ATOM     21  C   LIG A   1      -7.885   3.017 123.983  0.00  0.00    +0.092 C 
BRANCH  20  25
ATOM     22  C   LIG A   1      -5.577   5.092 119.908  0.00  0.00    +0.158 A 
ATOM     23  C   LIG A   1      -6.645   4.200 119.879  0.00  0.00    +0.050 A 
ATOM     24  C   LIG A   1      -6.980   3.482 121.035  0.00  0.00    +0.012 A 
ATOM     25  C   LIG A   1      -6.244   3.645 122.220  0.00  0.00    -0.021 A 
ATOM     26  C   LIG A   1      -5.163   4.536 122.226  0.00  0.00    +0.057 A 
ATOM     27  C   LIG A   1      -4.835   5.253 121.075  0.00  0.00    +0.159 A 
BRANCH  22  28
ATOM     28  O   LIG A   1      -5.254   5.827 118.803  0.00  0.00    -0.503 OA
ATOM     29  H   LIG A   1      -4.354   5.605 118.523  0.00  0.00    +0.292 HD
ENDBRANCH  22  28
BRANCH  27  30
ATOM     30  O   LIG A   1      -3.790   6.134 121.095  0.00  0.00    -0.503 OA
ATOM     31  H   LIG A   1      -3.067   5.781 120.552  0.00  0.00    +0.292 HD
ENDBRANCH  27  30
ENDBRANCH  20  25
ENDBRANCH  18  21
ENDBRANCH  17  18
ENDBRANCH   1  17
TORSDOF 11
ENDMDL
MODEL 5
REMARK VINA RESULT:      -6.8      3.278      4.122
REMARK  Name = NuBBE_137
REMARK  11 active torsions:
REMARK  status: ('A' for Active; 'I' for Inactive)
REMARK    1  A    between atoms: O_1  and  C_2
REMARK    2  A    between atoms: C_5  and  C_6
REMARK    3  A    between atoms: C_7  and  C_8
REMARK    4  A    between atoms: C_8  and  O_9
REMARK    5  A    between atoms: O_9  and  C_10
REMARK    6  A    between atoms: C_12  and  O_14
REMARK    7  A    between atoms: C_15  and  O_17
REMARK    8  A    between atoms: C_19  and  C_20
REMARK    9  A    between atoms: C_19  and  O_23
REMARK   10  A    between atoms: C_20  and  O_21
REMARK   11  A    between atoms: C_27  and  O_28
REMARK                            x       y       z     vdW  Elec       q    Type
REMARK                         _______ _______ _______ _____ _____    ______ ____
ROOT
ATOM      1  C   LIG A   1      -7.330  -0.693 123.529  0.00  0.00    +0.211 C 
ATOM      2  C   LIG A   1      -6.176  -1.700 123.389  0.00  0.00    +0.184 C 
ATOM      3  C   LIG A   1      -6.354  -2.874 124.365  0.00  0.00    +0.150 C 
ATOM      4  C   LIG A   1      -7.678  -3.599 124.123  0.00  0.00    +0.080 C 
ATOM      5  C   LIG A   1      -8.885  -2.659 124.140  0.00  0.00    +0.168 C 
ATOM      6  C   LIG A   1      -8.679  -1.393 123.296  0.00  0.00    +0.093 C 
ENDROOT
BRANCH   2   7
ATOM      7  O   LIG A   1      -6.124  -2.200 122.046  0.00  0.00    -0.386 OA
ATOM      8  H   LIG A   1      -5.835  -3.134 122.113  0.00  0.00    +0.210 HD
ENDBRANCH   2   7
BRANCH   3   9
ATOM      9  O   LIG A   1      -5.291  -3.812 124.153  0.00  0.00    -0.389 OA
ATOM     10  H   LIG A   1      -4.470  -3.396 124.472  0.00  0.00    +0.210 HD
ENDBRANCH   3   9
BRANCH   5  11
ATOM     11  C   LIG A   1      -9.281  -2.313 125.589  0.00  0.00    +0.337 C 
ATOM     12  O   LIG A   1      -9.064  -2.964 126.598  0.00  0.00    -0.248 OA
BRANCH  11  13
ATOM     13  O   LIG A   1      -9.937  -1.130 125.665  0.00  0.00    -0.479 OA
ATOM     14  H   LIG A   1     -10.551  -1.141 124.899  0.00  0.00    +0.295 HD
ENDBRANCH  11  13
ENDBRANCH   5  11
BRANCH   5  15
ATOM     15  O   LIG A   1      -9.990  -3.383 123.563  0.00  0.00    -0.377 OA
ATOM     16  H   LIG A   1      -9.806  -3.435 122.603  0.00  0.00    +0.211 HD
ENDBRANCH   5  15
BRANCH   1  17
ATOM     17  O   LIG A   1      -7.266  -0.103 124.843  0.00  0.00    -0.456 OA
BRANCH  17  18
ATOM     18  C   LIG A   1      -7.649   1.201 124.923  0.00  0.00    +0.332 C 
ATOM     19  O   LIG A   1      -8.780   1.627 124.855  0.00  0.00    -0.246 OA
BRANCH  18  21
ATOM     20  C   LIG A   1      -6.284   2.567 126.402  0.00  0.00    +0.015 C 
ATOM     21  C   LIG A   1      -6.454   2.024 125.187  0.00  0.00    +0.092 C 
BRANCH  20  25
ATOM     22  C   LIG A   1      -2.989   5.000 127.640  0.00  0.00    +0.158 A 
ATOM     23  C   LIG A   1      -4.287   5.353 127.995  0.00  0.00    +0.050 A 
ATOM     24  C   LIG A   1      -5.362   4.561 127.568  0.00  0.00    +0.012 A 
ATOM     25  C   LIG A   1      -5.145   3.421 126.776  0.00  0.00    -0.021 A 
ATOM     26  C   LIG A   1      -3.832   3.090 126.417  0.00  0.00    +0.057 A 
ATOM     27  C   LIG A   1      -2.764   3.877 126.847  0.00  0.00    +0.159 A 
BRANCH  22  28
ATOM     28  O   LIG A   1      -1.924   5.737 128.072  0.00  0.00    -0.503 OA
ATOM     29  H   LIG A   1      -1.966   5.825 129.036  0.00  0.00    +0.292 HD
ENDBRANCH  22  28
BRANCH  27  30
ATOM     30  O   LIG A   1      -1.485   3.537 126.506  0.00  0.00    -0.503 OA
ATOM     31  H   LIG A   1      -1.281   2.662 126.869  0.00  0.00    +0.292 HD
ENDBRANCH  27  30
ENDBRANCH  20  25
ENDBRANCH  18  21
ENDBRANCH  17  18
ENDBRANCH   1  17
TORSDOF 11
ENDMDL
MODEL 6
REMARK VINA RESULT:      -6.6      2.006      3.004
REMARK  Name = NuBBE_137
REMARK  11 active torsions:
REMARK  status: ('A' for Active; 'I' for Inactive)
REMARK    1  A    between atoms: O_1  and  C_2
REMARK    2  A    between atoms: C_5  and  C_6
REMARK    3  A    between atoms: C_7  and  C_8
REMARK    4  A    between atoms: C_8  and  O_9
REMARK    5  A    between atoms: O_9  and  C_10
REMARK    6  A    between atoms: C_12  and  O_14
REMARK    7  A    between atoms: C_15  and  O_17
REMARK    8  A    between atoms: C_19  and  C_20
REMARK    9  A    between atoms: C_19  and  O_23
REMARK   10  A    between atoms: C_20  and  O_21
REMARK   11  A    between atoms: C_27  and  O_28
REMARK                            x       y       z     vdW  Elec       q    Type
REMARK                         _______ _______ _______ _____ _____    ______ ____
ROOT
ATOM      1  C   LIG A   1      -6.714   0.028 125.448  0.00  0.00    +0.211 C 
ATOM      2  C   LIG A   1      -6.472  -0.425 126.897  0.00  0.00    +0.184 C 
ATOM      3  C   LIG A   1      -7.468  -1.524 127.300  0.00  0.00    +0.150 C 
ATOM      4  C   LIG A   1      -7.360  -2.735 126.375  0.00  0.00    +0.080 C 
ATOM      5  C   LIG A   1      -7.486  -2.370 124.895  0.00  0.00    +0.168 C 
ATOM      6  C   LIG A   1      -6.617  -1.170 124.490  0.00  0.00    +0.093 C 
ENDROOT
BRANCH   2   7
ATOM      7  O   LIG A   1      -5.134  -0.922 127.036  0.00  0.00    -0.386 OA
ATOM      8  H   LIG A   1      -5.217  -1.847 127.348  0.00  0.00    +0.210 HD
ENDBRANCH   2   7
BRANCH   3   9
ATOM      9  O   LIG A   1      -7.162  -1.955 128.633  0.00  0.00    -0.389 OA
ATOM     10  H   LIG A   1      -6.221  -2.205 128.647  0.00  0.00    +0.210 HD
ENDBRANCH   3   9
BRANCH   5  11
ATOM     11  C   LIG A   1      -8.964  -2.149 124.516  0.00  0.00    +0.337 C 
ATOM     12  O   LIG A   1      -9.406  -1.565 123.540  0.00  0.00    -0.248 OA
BRANCH  11  13
ATOM     13  O   LIG A   1      -9.805  -2.702 125.422  0.00  0.00    -0.479 OA
ATOM     14  H   LIG A   1      -9.213  -3.086 126.104  0.00  0.00    +0.295 HD
ENDBRANCH  11  13
ENDBRANCH   5  11
BRANCH   5  15
ATOM     15  O   LIG A   1      -7.023  -3.507 124.140  0.00  0.00    -0.377 OA
ATOM     16  H   LIG A   1      -7.615  -3.575 123.364  0.00  0.00    +0.211 HD
ENDBRANCH   5  15
BRANCH   1  17
ATOM     17  O   LIG A   1      -8.011   0.654 125.375  0.00  0.00    -0.456 OA
BRANCH  17  18
ATOM     18  C   LIG A   1      -8.032   1.997 125.596  0.00  0.00    +0.332 C 
ATOM     19  O   LIG A   1      -8.299   2.553 126.638  0.00  0.00    -0.246 OA
BRANCH  18  21
ATOM     20  C   LIG A   1      -8.358   2.609 123.265  0.00  0.00    +0.015 C 
ATOM     21  C   LIG A   1      -7.594   2.680 124.366  0.00  0.00    +0.092 C 
BRANCH  20  25
ATOM     22  C   LIG A   1      -7.296   4.281 119.472  0.00  0.00    +0.158 A 
ATOM     23  C   LIG A   1      -6.311   4.027 120.421  0.00  0.00    +0.050 A 
ATOM     24  C   LIG A   1      -6.671   3.499 121.668  0.00  0.00    +0.012 A 
ATOM     25  C   LIG A   1      -8.015   3.231 121.976  0.00  0.00    -0.021 A 
ATOM     26  C   LIG A   1      -8.994   3.506 121.012  0.00  0.00    +0.057 A 
ATOM     27  C   LIG A   1      -8.633   4.027 119.770  0.00  0.00    +0.159 A 
BRANCH  22  28
ATOM     28  O   LIG A   1      -6.966   4.763 118.238  0.00  0.00    -0.503 OA
ATOM     29  H   LIG A   1      -7.740   4.717 117.658  0.00  0.00    +0.292 HD
ENDBRANCH  22  28
BRANCH  27  30
ATOM     30  O   LIG A   1      -9.593   4.276 118.829  0.00  0.00    -0.503 OA
ATOM     31  H   LIG A   1     -10.135   3.481 118.710  0.00  0.00    +0.292 HD
ENDBRANCH  27  30
ENDBRANCH  20  25
ENDBRANCH  18  21
ENDBRANCH  17  18
ENDBRANCH   1  17
TORSDOF 11
ENDMDL
MODEL 7
REMARK VINA RESULT:      -6.6      8.737     11.181
REMARK  Name = NuBBE_137
REMARK  11 active torsions:
REMARK  status: ('A' for Active; 'I' for Inactive)
REMARK    1  A    between atoms: O_1  and  C_2
REMARK    2  A    between atoms: C_5  and  C_6
REMARK    3  A    between atoms: C_7  and  C_8
REMARK    4  A    between atoms: C_8  and  O_9
REMARK    5  A    between atoms: O_9  and  C_10
REMARK    6  A    between atoms: C_12  and  O_14
REMARK    7  A    between atoms: C_15  and  O_17
REMARK    8  A    between atoms: C_19  and  C_20
REMARK    9  A    between atoms: C_19  and  O_23
REMARK   10  A    between atoms: C_20  and  O_21
REMARK   11  A    between atoms: C_27  and  O_28
REMARK                            x       y       z     vdW  Elec       q    Type
REMARK                         _______ _______ _______ _____ _____    ______ ____
ROOT
ATOM      1  C   LIG A   1      -4.656   7.092 131.348  0.00  0.00    +0.211 C 
ATOM      2  C   LIG A   1      -3.409   6.894 132.225  0.00  0.00    +0.184 C 
ATOM      3  C   LIG A   1      -2.461   5.856 131.603  0.00  0.00    +0.150 C 
ATOM      4  C   LIG A   1      -2.021   6.279 130.202  0.00  0.00    +0.080 C 
ATOM      5  C   LIG A   1      -3.198   6.600 129.277  0.00  0.00    +0.168 C 
ATOM      6  C   LIG A   1      -4.247   7.513 129.927  0.00  0.00    +0.093 C 
ENDROOT
BRANCH   2   7
ATOM      7  O   LIG A   1      -2.716   8.141 132.377  0.00  0.00    -0.386 OA
ATOM      8  H   LIG A   1      -3.406   8.836 132.398  0.00  0.00    +0.210 HD
ENDBRANCH   2   7
BRANCH   3   9
ATOM      9  O   LIG A   1      -1.290   5.754 132.423  0.00  0.00    -0.389 OA
ATOM     10  H   LIG A   1      -0.833   4.931 132.174  0.00  0.00    +0.210 HD
ENDBRANCH   3   9
BRANCH   5  11
ATOM     11  C   LIG A   1      -3.834   5.302 128.742  0.00  0.00    +0.337 C 
ATOM     12  O   LIG A   1      -3.311   4.205 128.627  0.00  0.00    -0.248 OA
BRANCH  11  13
ATOM     13  O   LIG A   1      -5.128   5.483 128.384  0.00  0.00    -0.479 OA
ATOM     14  H   LIG A   1      -5.580   4.662 128.674  0.00  0.00    +0.295 HD
ENDBRANCH  11  13
ENDBRANCH   5  11
BRANCH   5  15
ATOM     15  O   LIG A   1      -2.660   7.305 128.142  0.00  0.00    -0.377 OA
ATOM     16  H   LIG A   1      -2.024   7.954 128.504  0.00  0.00    +0.211 HD
ENDBRANCH   5  15
BRANCH   1  17
ATOM     17  O   LIG A   1      -5.406   5.860 131.333  0.00  0.00    -0.456 OA
BRANCH  17  18
ATOM     18  C   LIG A   1      -6.583   5.879 132.016  0.00  0.00    +0.332 C 
ATOM     19  O   LIG A   1      -6.738   5.649 133.195  0.00  0.00    -0.246 OA
BRANCH  18  21
ATOM     20  C   LIG A   1      -8.887   6.519 131.572  0.00  0.00    +0.015 C 
ATOM     21  C   LIG A   1      -7.651   6.307 131.095  0.00  0.00    +0.092 C 
BRANCH  20  25
ATOM     22  C   LIG A   1     -12.263   7.814 129.285  0.00  0.00    +0.158 A 
ATOM     23  C   LIG A   1     -12.453   7.085 130.454  0.00  0.00    +0.050 A 
ATOM     24  C   LIG A   1     -11.341   6.647 131.186  0.00  0.00    +0.012 A 
ATOM     25  C   LIG A   1     -10.036   6.927 130.748  0.00  0.00    -0.021 A 
ATOM     26  C   LIG A   1      -9.865   7.651 129.560  0.00  0.00    +0.057 A 
ATOM     27  C   LIG A   1     -10.973   8.089 128.836  0.00  0.00    +0.159 A 
BRANCH  22  28
ATOM     28  O   LIG A   1     -13.332   8.280 128.573  0.00  0.00    -0.503 OA
ATOM     29  H   LIG A   1     -13.368   9.245 128.646  0.00  0.00    +0.292 HD
ENDBRANCH  22  28
BRANCH  27  30
ATOM     30  O   LIG A   1     -10.797   8.809 127.688  0.00  0.00    -0.503 OA
ATOM     31  H   LIG A   1      -9.851   8.851 127.481  0.00  0.00    +0.292 HD
ENDBRANCH  27  30
ENDBRANCH  20  25
ENDBRANCH  18  21
ENDBRANCH  17  18
ENDBRANCH   1  17
TORSDOF 11
ENDMDL
MODEL 8
REMARK VINA RESULT:      -6.5      6.078      9.553
REMARK  Name = NuBBE_137
REMARK  11 active torsions:
REMARK  status: ('A' for Active; 'I' for Inactive)
REMARK    1  A    between atoms: O_1  and  C_2
REMARK    2  A    between atoms: C_5  and  C_6
REMARK    3  A    between atoms: C_7  and  C_8
REMARK    4  A    between atoms: C_8  and  O_9
REMARK    5  A    between atoms: O_9  and  C_10
REMARK    6  A    between atoms: C_12  and  O_14
REMARK    7  A    between atoms: C_15  and  O_17
REMARK    8  A    between atoms: C_19  and  C_20
REMARK    9  A    between atoms: C_19  and  O_23
REMARK   10  A    between atoms: C_20  and  O_21
REMARK   11  A    between atoms: C_27  and  O_28
REMARK                            x       y       z     vdW  Elec       q    Type
REMARK                         _______ _______ _______ _____ _____    ______ ____
ROOT
ATOM      1  C   LIG A   1      -9.014   3.730 131.192  0.00  0.00    +0.211 C 
ATOM      2  C   LIG A   1      -8.945   4.273 132.629  0.00  0.00    +0.184 C 
ATOM      3  C   LIG A   1      -9.073   5.805 132.641  0.00  0.00    +0.150 C 
ATOM      4  C   LIG A   1     -10.387   6.255 132.002  0.00  0.00    +0.080 C 
ATOM      5  C   LIG A   1     -10.598   5.679 130.600  0.00  0.00    +0.168 C 
ATOM      6  C   LIG A   1     -10.324   4.170 130.518  0.00  0.00    +0.093 C 
ENDROOT
BRANCH   2   7
ATOM      7  O   LIG A   1      -9.996   3.701 133.418  0.00  0.00    -0.386 OA
ATOM      8  H   LIG A   1      -9.730   3.818 134.354  0.00  0.00    +0.210 HD
ENDBRANCH   2   7
BRANCH   3   9
ATOM      9  O   LIG A   1      -9.066   6.256 134.002  0.00  0.00    -0.389 OA
ATOM     10  H   LIG A   1      -9.117   7.228 133.985  0.00  0.00    +0.210 HD
ENDBRANCH   3   9
BRANCH   5  11
ATOM     11  C   LIG A   1      -9.766   6.460 129.564  0.00  0.00    +0.337 C 
ATOM     12  O   LIG A   1      -9.387   7.618 129.630  0.00  0.00    -0.248 OA
BRANCH  11  13
ATOM     13  O   LIG A   1      -9.458   5.699 128.486  0.00  0.00    -0.479 OA
ATOM     14  H   LIG A   1      -9.707   4.787 128.750  0.00  0.00    +0.295 HD
ENDBRANCH  11  13
ENDBRANCH   5  11
BRANCH   5  15
ATOM     15  O   LIG A   1     -11.985   5.881 130.267  0.00  0.00    -0.377 OA
ATOM     16  H   LIG A   1     -12.378   6.356 131.026  0.00  0.00    +0.211 HD
ENDBRANCH   5  15
BRANCH   1  17
ATOM     17  O   LIG A   1      -7.864   4.209 130.465  0.00  0.00    -0.456 OA
BRANCH  17  18
ATOM     18  C   LIG A   1      -6.932   3.269 130.151  0.00  0.00    +0.332 C 
ATOM     19  O   LIG A   1      -5.965   2.961 130.812  0.00  0.00    -0.246 OA
BRANCH  18  21
ATOM     20  C   LIG A   1      -7.721   1.331 128.910  0.00  0.00    +0.015 C 
ATOM     21  C   LIG A   1      -7.332   2.615 128.892  0.00  0.00    +0.092 C 
BRANCH  20  25
ATOM     22  C   LIG A   1      -8.977  -0.978 125.533  0.00  0.00    +0.158 A 
ATOM     23  C   LIG A   1      -8.089  -1.521 126.457  0.00  0.00    +0.050 A 
ATOM     24  C   LIG A   1      -7.667  -0.750 127.549  0.00  0.00    +0.012 A 
ATOM     25  C   LIG A   1      -8.122   0.568 127.717  0.00  0.00    -0.021 A 
ATOM     26  C   LIG A   1      -9.004   1.103 126.769  0.00  0.00    +0.057 A 
ATOM     27  C   LIG A   1      -9.426   0.332 125.686  0.00  0.00    +0.159 A 
BRANCH  22  28
ATOM     28  O   LIG A   1      -9.427  -1.721 124.481  0.00  0.00    -0.503 OA
ATOM     29  H   LIG A   1     -10.395  -1.739 124.492  0.00  0.00    +0.292 HD
ENDBRANCH  22  28
BRANCH  27  30
ATOM     30  O   LIG A   1     -10.300   0.856 124.775  0.00  0.00    -0.503 OA
ATOM     31  H   LIG A   1     -11.157   0.412 124.865  0.00  0.00    +0.292 HD
ENDBRANCH  27  30
ENDBRANCH  20  25
ENDBRANCH  18  21
ENDBRANCH  17  18
ENDBRANCH   1  17
TORSDOF 11
ENDMDL
MODEL 9
REMARK VINA RESULT:      -6.5      4.995      8.904
REMARK  Name = NuBBE_137
REMARK  11 active torsions:
REMARK  status: ('A' for Active; 'I' for Inactive)
REMARK    1  A    between atoms: O_1  and  C_2
REMARK    2  A    between atoms: C_5  and  C_6
REMARK    3  A    between atoms: C_7  and  C_8
REMARK    4  A    between atoms: C_8  and  O_9
REMARK    5  A    between atoms: O_9  and  C_10
REMARK    6  A    between atoms: C_12  and  O_14
REMARK    7  A    between atoms: C_15  and  O_17
REMARK    8  A    between atoms: C_19  and  C_20
REMARK    9  A    between atoms: C_19  and  O_23
REMARK   10  A    between atoms: C_20  and  O_21
REMARK   11  A    between atoms: C_27  and  O_28
REMARK                            x       y       z     vdW  Elec       q    Type
REMARK                         _______ _______ _______ _____ _____    ______ ____
ROOT
ATOM      1  C   LIG A   1      -7.228  -1.956 126.679  0.00  0.00    +0.211 C 
ATOM      2  C   LIG A   1      -5.959  -2.054 125.817  0.00  0.00    +0.184 C 
ATOM      3  C   LIG A   1      -6.276  -2.672 124.446  0.00  0.00    +0.150 C 
ATOM      4  C   LIG A   1      -7.323  -1.848 123.697  0.00  0.00    +0.080 C 
ATOM      5  C   LIG A   1      -8.592  -1.606 124.517  0.00  0.00    +0.168 C 
ATOM      6  C   LIG A   1      -8.306  -1.136 125.951  0.00  0.00    +0.093 C 
ENDROOT
BRANCH   2   7
ATOM      7  O   LIG A   1      -5.392  -0.750 125.633  0.00  0.00    -0.386 OA
ATOM      8  H   LIG A   1      -4.420  -0.869 125.654  0.00  0.00    +0.210 HD
ENDBRANCH   2   7
BRANCH   3   9
ATOM      9  O   LIG A   1      -5.077  -2.684 123.660  0.00  0.00    -0.389 OA
ATOM     10  H   LIG A   1      -4.566  -3.470 123.923  0.00  0.00    +0.210 HD
ENDBRANCH   3   9
BRANCH   5  11
ATOM     11  C   LIG A   1      -9.491  -2.858 124.503  0.00  0.00    +0.337 C 
ATOM     12  O   LIG A   1      -9.588  -3.698 123.624  0.00  0.00    -0.248 OA
BRANCH  11  13
ATOM     13  O   LIG A   1     -10.224  -2.966 125.638  0.00  0.00    -0.479 OA
ATOM     14  H   LIG A   1      -9.593  -2.751 126.358  0.00  0.00    +0.295 HD
ENDBRANCH  11  13
ENDBRANCH   5  11
BRANCH   5  15
ATOM     15  O   LIG A   1      -9.323  -0.553 123.860  0.00  0.00    -0.377 OA
ATOM     16  H   LIG A   1      -9.476   0.134 124.539  0.00  0.00    +0.211 HD
ENDBRANCH   5  15
BRANCH   1  17
ATOM     17  O   LIG A   1      -7.691  -3.291 126.967  0.00  0.00    -0.456 OA
BRANCH  17  18
ATOM     18  C   LIG A   1      -8.236  -3.473 128.201  0.00  0.00    +0.332 C 
ATOM     19  O   LIG A   1      -9.359  -3.854 128.445  0.00  0.00    -0.246 OA
BRANCH  18  21
ATOM     20  C   LIG A   1      -6.599  -4.234 129.831  0.00  0.00    +0.015 C 
ATOM     21  C   LIG A   1      -7.199  -3.205 129.214  0.00  0.00    +0.092 C 
BRANCH  20  25
ATOM     22  C   LIG A   1      -3.525  -3.938 132.793  0.00  0.00    +0.158 A 
ATOM     23  C   LIG A   1      -4.440  -4.986 132.842  0.00  0.00    +0.050 A 
ATOM     24  C   LIG A   1      -5.456  -5.063 131.879  0.00  0.00    +0.012 A 
ATOM     25  C   LIG A   1      -5.568  -4.090 130.872  0.00  0.00    -0.021 A 
ATOM     26  C   LIG A   1      -4.646  -3.035 130.849  0.00  0.00    +0.057 A 
ATOM     27  C   LIG A   1      -3.633  -2.963 131.804  0.00  0.00    +0.159 A 
BRANCH  22  28
ATOM     28  O   LIG A   1      -2.507  -3.861 133.700  0.00  0.00    -0.503 OA
ATOM     29  H   LIG A   1      -2.782  -4.282 134.527  0.00  0.00    +0.292 HD
ENDBRANCH  22  28
BRANCH  27  30
ATOM     30  O   LIG A   1      -2.728  -1.940 131.764  0.00  0.00    -0.503 OA
ATOM     31  H   LIG A   1      -2.866  -1.425 130.954  0.00  0.00    +0.292 HD
ENDBRANCH  27  30
ENDBRANCH  20  25
ENDBRANCH  18  21
ENDBRANCH  17  18
ENDBRANCH   1  17
TORSDOF 11
ENDMDL
