REMARK  Name = NuBBE_1798
REMARK  22 active torsions:
REMARK  status: ('A' for Active; 'I' for Inactive)
REMARK    1  A    between atoms: C_4  and  C_5
REMARK    2  A    between atoms: C_5  and  C_6
REMARK    3  A    between atoms: C_6  and  O_7
REMARK    4  A    between atoms: C_6  and  C_12
REMARK    5  A    between atoms: O_7  and  SI_8
REMARK    6  A    between atoms: SI_8  and  C_9
REMARK    7  A    between atoms: SI_8  and  C_10
REMARK    8  A    between atoms: SI_8  and  C_11
REMARK    9  A    between atoms: C_12  and  O_13
REMARK   10  A    between atoms: O_13  and  SI_14
REMARK   11  A    between atoms: SI_14  and  C_15
REMARK   12  A    between atoms: SI_14  and  C_16
REMARK   13  A    between atoms: SI_14  and  C_17
REMARK   14  A    between atoms: C_19  and  C_20
REMARK   15  A    between atoms: C_20  and  C_21
REMARK   16  A    between atoms: C_21  and  C_22
REMARK   17  A    between atoms: C_22  and  C_23
REMARK   18  A    between atoms: C_23  and  C_24
REMARK   19  A    between atoms: C_24  and  C_25
REMARK   20  A    between atoms: C_25  and  C_26
REMARK   21  A    between atoms: C_26  and  C_27
REMARK   22  A    between atoms: C_27  and  C_28
REMARK                            x       y       z     vdW  Elec       q    Type
REMARK                         _______ _______ _______ _____ _____    ______ ____
ROOT
ATOM      1  O   LIG A   1       1.268  -2.682   1.623  0.00  0.00    +0.000 OA
ATOM      2  C   LIG A   1       0.715  -2.111   0.688  0.00  0.00    +0.000 C 
ATOM      3  O   LIG A   1       1.246  -1.147  -0.198  0.00  0.00    +0.000 OA
ATOM      4  C   LIG A   1      -0.629  -2.494   0.302  0.00  0.00    +0.000 C 
ATOM      5  C   LIG A   1      -0.242  -2.335  -1.170  0.00  0.00    +0.000 C 
ATOM      6  C   LIG A   1       0.302  -0.918  -1.255  0.00  0.00    +0.000 C 
ENDROOT
BRANCH   6   7
ATOM      7  C   LIG A   1       1.014  -0.550  -2.579  0.00  0.00    +0.000 C 
BRANCH   7   8
ATOM      8  C   LIG A   1       1.374   0.949  -2.839  0.00  0.00    +0.000 C 
BRANCH   8   9
ATOM      9  C   LIG A   1       2.085   1.138  -4.210  0.00  0.00    +0.000 C 
BRANCH   9  10
ATOM     10  C   LIG A   1       2.474   2.594  -4.573  0.00  0.00    +0.000 C 
BRANCH  10  11
ATOM     11  C   LIG A   1       3.476   3.218  -3.594  0.00  0.00    +0.000 C 
BRANCH  11  12
ATOM     12  C   LIG A   1       3.989   4.628  -3.956  0.00  0.00    +0.000 C 
BRANCH  12  13
ATOM     13  C   LIG A   1       2.906   5.712  -4.015  0.00  0.00    +0.000 C 
BRANCH  13  14
ATOM     14  C   LIG A   1       3.417   7.114  -4.371  0.00  0.00    +0.000 C 
BRANCH  14  15
ATOM     15  C   LIG A   1       4.360   7.736  -3.385  0.00  0.00    +0.000 C 
ATOM     16  C   LIG A   1       5.037   8.342  -2.676  0.00  0.00    +0.000 C 
ENDBRANCH  14  15
ENDBRANCH  13  14
ENDBRANCH  12  13
ENDBRANCH  11  12
ENDBRANCH  10  11
ENDBRANCH   9  10
ENDBRANCH   8   9
ENDBRANCH   7   8
ENDBRANCH   6   7
BRANCH   4  17
ATOM     17  C   LIG A   1      -1.875  -1.734   0.802  0.00  0.00    +0.000 C 
BRANCH  17  18
ATOM     18  C   LIG A   1      -2.181  -1.558   2.338  0.00  0.00    +0.000 C 
BRANCH  18  19
ATOM     19  C   LIG A   1      -3.716  -1.182   2.491  0.00  0.00    +0.000 C 
BRANCH  19  20
ATOM     20  O   LIG A   1      -4.666  -2.126   1.977  0.00  0.00    +0.000 OA
BRANCH  20  21
ATOM     21 SI   LIG A   1      -4.850  -3.669   2.604  0.00  0.00    +0.000 Si
ATOM     22  C   LIG A   1      -5.208  -3.749   4.446  0.00  0.00    +0.000 C 
ATOM     23  C   LIG A   1      -6.241  -4.568   1.704  0.00  0.00    +0.000 C 
ATOM     24  C   LIG A   1      -3.270  -4.672   2.373  0.00  0.00    +0.000 C 
ENDBRANCH  20  21
ENDBRANCH  19  20
ENDBRANCH  18  19
BRANCH  18  25
ATOM     25  O   LIG A   1      -1.419  -0.499   2.988  0.00  0.00    +0.000 OA
BRANCH  25  26
ATOM     26 SI   LIG A   1       0.190  -0.655   3.498  0.00  0.00    +0.000 Si
ATOM     27  C   LIG A   1       1.056   0.660   4.471  0.00  0.00    +0.000 C 
ATOM     28  C   LIG A   1       0.603  -2.263   4.391  0.00  0.00    +0.000 C 
ATOM     29  C   LIG A   1       1.399  -0.128   2.028  0.00  0.00    +0.000 C 
ENDBRANCH  25  26
ENDBRANCH  18  25
ENDBRANCH  17  18
ENDBRANCH   4  17
TORSDOF 16
