MODEL 1
REMARK VINA RESULT:      -6.2      0.000      0.000
REMARK  Name = NuBBE_1711
REMARK  2 active torsions:
REMARK  status: ('A' for Active; 'I' for Inactive)
REMARK    1  A    between atoms: C_1  and  O_2
REMARK    2  A    between atoms: O_2  and  C_3
REMARK                            x       y       z     vdW  Elec       q    Type
REMARK                         _______ _______ _______ _____ _____    ______ ____
ROOT
ATOM      1  C   LIG A   1     -10.408   7.486 129.818  0.00  0.00    +0.134 A 
ATOM      2  C   LIG A   1      -9.492   6.893 130.818  0.00  0.00    +0.040 A 
ATOM      3  C   LIG A   1      -8.107   6.821 130.624  0.00  0.00    +0.013 A 
ATOM      4  C   LIG A   1      -7.279   6.253 131.596  0.00  0.00    +0.001 A 
ATOM      5  C   LIG A   1      -7.828   5.750 132.775  0.00  0.00    +0.002 A 
ATOM      6  C   LIG A   1      -9.205   5.813 132.985  0.00  0.00    +0.026 A 
ATOM      7  C   LIG A   1     -10.028   6.381 132.011  0.00  0.00    +0.053 A 
ATOM      8  N   LIG A   1     -11.408   6.440 132.229  0.00  0.00    -0.322 N 
ATOM      9  C   LIG A   1     -11.727   7.517 130.078  0.00  0.00    +0.116 A 
ATOM     10  C   LIG A   1     -12.288   6.976 131.336  0.00  0.00    +0.253 A 
ATOM     11  O   LIG A   1     -13.495   7.016 131.549  0.00  0.00    -0.268 OA
ATOM     12  H   LIG A   1     -11.808   6.076 133.083  0.00  0.00    +0.169 HD
ENDROOT
BRANCH   1  14
ATOM     13  C   LIG A   1     -10.603   8.266 127.559  0.00  0.00    +0.277 C 
ATOM     14  O   LIG A   1      -9.787   7.963 128.683  0.00  0.00    -0.494 OA
ENDBRANCH   1  14
TORSDOF 1
ENDMDL
MODEL 2
REMARK VINA RESULT:      -5.8      2.158      3.943
REMARK  Name = NuBBE_1711
REMARK  2 active torsions:
REMARK  status: ('A' for Active; 'I' for Inactive)
REMARK    1  A    between atoms: C_1  and  O_2
REMARK    2  A    between atoms: O_2  and  C_3
REMARK                            x       y       z     vdW  Elec       q    Type
REMARK                         _______ _______ _______ _____ _____    ______ ____
ROOT
ATOM      1  C   LIG A   1      -8.071   6.539 131.409  0.00  0.00    +0.134 A 
ATOM      2  C   LIG A   1      -9.483   6.771 131.034  0.00  0.00    +0.040 A 
ATOM      3  C   LIG A   1      -9.851   7.513 129.904  0.00  0.00    +0.013 A 
ATOM      4  C   LIG A   1     -11.199   7.706 129.587  0.00  0.00    +0.001 A 
ATOM      5  C   LIG A   1     -12.194   7.159 130.396  0.00  0.00    +0.002 A 
ATOM      6  C   LIG A   1     -11.845   6.418 131.524  0.00  0.00    +0.026 A 
ATOM      7  C   LIG A   1     -10.498   6.228 131.837  0.00  0.00    +0.053 A 
ATOM      8  N   LIG A   1     -10.156   5.483 132.971  0.00  0.00    -0.322 N 
ATOM      9  C   LIG A   1      -7.797   5.817 132.509  0.00  0.00    +0.116 A 
ATOM     10  C   LIG A   1      -8.869   5.246 133.355  0.00  0.00    +0.253 A 
ATOM     11  O   LIG A   1      -8.594   4.590 134.354  0.00  0.00    -0.268 OA
ATOM     12  H   LIG A   1     -10.876   5.086 133.560  0.00  0.00    +0.169 HD
ENDROOT
BRANCH   1  14
ATOM     13  C   LIG A   1      -5.775   7.031 130.916  0.00  0.00    +0.277 C 
ATOM     14  O   LIG A   1      -7.149   7.110 130.556  0.00  0.00    -0.494 OA
ENDBRANCH   1  14
TORSDOF 1
ENDMDL
MODEL 3
REMARK VINA RESULT:      -5.7      9.448     11.197
REMARK  Name = NuBBE_1711
REMARK  2 active torsions:
REMARK  status: ('A' for Active; 'I' for Inactive)
REMARK    1  A    between atoms: C_1  and  O_2
REMARK    2  A    between atoms: O_2  and  C_3
REMARK                            x       y       z     vdW  Elec       q    Type
REMARK                         _______ _______ _______ _____ _____    ______ ____
ROOT
ATOM      1  C   LIG A   1      -7.738   3.301 122.147  0.00  0.00    +0.134 A 
ATOM      2  C   LIG A   1      -7.140   3.952 120.961  0.00  0.00    +0.040 A 
ATOM      3  C   LIG A   1      -7.800   4.024 119.727  0.00  0.00    +0.013 A 
ATOM      4  C   LIG A   1      -7.197   4.650 118.632  0.00  0.00    +0.001 A 
ATOM      5  C   LIG A   1      -5.927   5.212 118.759  0.00  0.00    +0.002 A 
ATOM      6  C   LIG A   1      -5.256   5.149 119.980  0.00  0.00    +0.026 A 
ATOM      7  C   LIG A   1      -5.862   4.523 121.070  0.00  0.00    +0.053 A 
ATOM      8  N   LIG A   1      -5.182   4.464 122.291  0.00  0.00    -0.322 N 
ATOM      9  C   LIG A   1      -7.042   3.272 123.297  0.00  0.00    +0.116 A 
ATOM     10  C   LIG A   1      -5.695   3.873 123.409  0.00  0.00    +0.253 A 
ATOM     11  O   LIG A   1      -5.080   3.833 124.470  0.00  0.00    -0.268 OA
ATOM     12  H   LIG A   1      -4.262   4.870 122.386  0.00  0.00    +0.169 HD
ENDROOT
BRANCH   1  14
ATOM     13  C   LIG A   1      -9.492   1.846 122.896  0.00  0.00    +0.277 C 
ATOM     14  O   LIG A   1      -8.996   2.774 121.940  0.00  0.00    -0.494 OA
ENDBRANCH   1  14
TORSDOF 1
ENDMDL
MODEL 4
REMARK VINA RESULT:      -5.6      8.323     10.073
REMARK  Name = NuBBE_1711
REMARK  2 active torsions:
REMARK  status: ('A' for Active; 'I' for Inactive)
REMARK    1  A    between atoms: C_1  and  O_2
REMARK    2  A    between atoms: O_2  and  C_3
REMARK                            x       y       z     vdW  Elec       q    Type
REMARK                         _______ _______ _______ _____ _____    ______ ____
ROOT
ATOM      1  C   LIG A   1      -6.469   3.259 123.916  0.00  0.00    +0.134 A 
ATOM      2  C   LIG A   1      -6.408   3.685 122.501  0.00  0.00    +0.040 A 
ATOM      3  C   LIG A   1      -5.268   4.275 121.939  0.00  0.00    +0.013 A 
ATOM      4  C   LIG A   1      -5.255   4.663 120.596  0.00  0.00    +0.001 A 
ATOM      5  C   LIG A   1      -6.381   4.464 119.799  0.00  0.00    +0.002 A 
ATOM      6  C   LIG A   1      -7.524   3.878 120.341  0.00  0.00    +0.026 A 
ATOM      7  C   LIG A   1      -7.533   3.493 121.684  0.00  0.00    +0.053 A 
ATOM      8  N   LIG A   1      -8.684   2.907 122.220  0.00  0.00    -0.322 N 
ATOM      9  C   LIG A   1      -7.600   2.700 124.382  0.00  0.00    +0.116 A 
ATOM     10  C   LIG A   1      -8.785   2.500 123.518  0.00  0.00    +0.253 A 
ATOM     11  O   LIG A   1      -9.805   1.988 123.967  0.00  0.00    -0.268 OA
ATOM     12  H   LIG A   1      -9.502   2.762 121.645  0.00  0.00    +0.169 HD
ENDROOT
BRANCH   1  14
ATOM     13  C   LIG A   1      -5.374   4.417 125.709  0.00  0.00    +0.277 C 
ATOM     14  O   LIG A   1      -5.314   3.486 124.635  0.00  0.00    -0.494 OA
ENDBRANCH   1  14
TORSDOF 1
ENDMDL
MODEL 5
REMARK VINA RESULT:      -5.6      2.221      3.650
REMARK  Name = NuBBE_1711
REMARK  2 active torsions:
REMARK  status: ('A' for Active; 'I' for Inactive)
REMARK    1  A    between atoms: C_1  and  O_2
REMARK    2  A    between atoms: O_2  and  C_3
REMARK                            x       y       z     vdW  Elec       q    Type
REMARK                         _______ _______ _______ _____ _____    ______ ____
ROOT
ATOM      1  C   LIG A   1     -12.161   8.524 129.453  0.00  0.00    +0.134 A 
ATOM      2  C   LIG A   1     -11.459   7.408 130.124  0.00  0.00    +0.040 A 
ATOM      3  C   LIG A   1     -11.643   7.108 131.480  0.00  0.00    +0.013 A 
ATOM      4  C   LIG A   1     -10.959   6.043 132.073  0.00  0.00    +0.001 A 
ATOM      5  C   LIG A   1     -10.083   5.265 131.316  0.00  0.00    +0.002 A 
ATOM      6  C   LIG A   1      -9.887   5.551 129.966  0.00  0.00    +0.026 A 
ATOM      7  C   LIG A   1     -10.573   6.616 129.378  0.00  0.00    +0.053 A 
ATOM      8  N   LIG A   1     -10.371   6.895 128.022  0.00  0.00    -0.322 N 
ATOM      9  C   LIG A   1     -11.931   8.750 128.148  0.00  0.00    +0.116 A 
ATOM     10  C   LIG A   1     -10.996   7.914 127.364  0.00  0.00    +0.253 A 
ATOM     11  O   LIG A   1     -10.803   8.140 126.174  0.00  0.00    -0.268 OA
ATOM     12  H   LIG A   1      -9.737   6.334 127.472  0.00  0.00    +0.169 HD
ENDROOT
BRANCH   1  14
ATOM     13  C   LIG A   1     -13.334  10.572 129.885  0.00  0.00    +0.277 C 
ATOM     14  O   LIG A   1     -13.012   9.241 130.269  0.00  0.00    -0.494 OA
ENDBRANCH   1  14
TORSDOF 1
ENDMDL
MODEL 6
REMARK VINA RESULT:      -5.3     11.135     11.601
REMARK  Name = NuBBE_1711
REMARK  2 active torsions:
REMARK  status: ('A' for Active; 'I' for Inactive)
REMARK    1  A    between atoms: C_1  and  O_2
REMARK    2  A    between atoms: O_2  and  C_3
REMARK                            x       y       z     vdW  Elec       q    Type
REMARK                         _______ _______ _______ _____ _____    ______ ____
ROOT
ATOM      1  C   LIG A   1      -6.731  -2.510 124.430  0.00  0.00    +0.134 A 
ATOM      2  C   LIG A   1      -6.934  -2.567 125.894  0.00  0.00    +0.040 A 
ATOM      3  C   LIG A   1      -5.906  -2.304 126.810  0.00  0.00    +0.013 A 
ATOM      4  C   LIG A   1      -6.144  -2.369 128.186  0.00  0.00    +0.001 A 
ATOM      5  C   LIG A   1      -7.413  -2.697 128.662  0.00  0.00    +0.002 A 
ATOM      6  C   LIG A   1      -8.447  -2.962 127.766  0.00  0.00    +0.026 A 
ATOM      7  C   LIG A   1      -8.205  -2.896 126.392  0.00  0.00    +0.053 A 
ATOM      8  N   LIG A   1      -9.248  -3.163 125.499  0.00  0.00    -0.322 N 
ATOM      9  C   LIG A   1      -7.767  -2.776 123.616  0.00  0.00    +0.116 A 
ATOM     10  C   LIG A   1      -9.105  -3.123 124.143  0.00  0.00    +0.253 A 
ATOM     11  O   LIG A   1     -10.034  -3.362 123.379  0.00  0.00    -0.268 OA
ATOM     12  H   LIG A   1     -10.168  -3.401 125.842  0.00  0.00    +0.169 HD
ENDROOT
BRANCH   1  14
ATOM     13  C   LIG A   1      -4.655  -3.189 123.437  0.00  0.00    +0.277 C 
ATOM     14  O   LIG A   1      -5.450  -2.176 124.041  0.00  0.00    -0.494 OA
ENDBRANCH   1  14
TORSDOF 1
ENDMDL
MODEL 7
REMARK VINA RESULT:      -5.3      9.443     10.618
REMARK  Name = NuBBE_1711
REMARK  2 active torsions:
REMARK  status: ('A' for Active; 'I' for Inactive)
REMARK    1  A    between atoms: C_1  and  O_2
REMARK    2  A    between atoms: O_2  and  C_3
REMARK                            x       y       z     vdW  Elec       q    Type
REMARK                         _______ _______ _______ _____ _____    ______ ____
ROOT
ATOM      1  C   LIG A   1      -6.214   3.869 120.983  0.00  0.00    +0.134 A 
ATOM      2  C   LIG A   1      -6.948   3.277 122.122  0.00  0.00    +0.040 A 
ATOM      3  C   LIG A   1      -6.310   2.868 123.301  0.00  0.00    +0.013 A 
ATOM      4  C   LIG A   1      -7.044   2.314 124.353  0.00  0.00    +0.001 A 
ATOM      5  C   LIG A   1      -8.426   2.163 124.240  0.00  0.00    +0.002 A 
ATOM      6  C   LIG A   1      -9.077   2.563 123.074  0.00  0.00    +0.026 A 
ATOM      7  C   LIG A   1      -8.339   3.116 122.025  0.00  0.00    +0.053 A 
ATOM      8  N   LIG A   1      -9.000   3.515 120.859  0.00  0.00    -0.322 N 
ATOM      9  C   LIG A   1      -6.897   4.235 119.885  0.00  0.00    +0.116 A 
ATOM     10  C   LIG A   1      -8.364   4.064 119.784  0.00  0.00    +0.253 A 
ATOM     11  O   LIG A   1      -8.964   4.407 118.771  0.00  0.00    -0.268 OA
ATOM     12  H   LIG A   1     -10.001   3.406 120.774  0.00  0.00    +0.169 HD
ENDROOT
BRANCH   1  14
ATOM     13  C   LIG A   1      -4.318   5.296 121.334  0.00  0.00    +0.277 C 
ATOM     14  O   LIG A   1      -4.853   3.988 121.176  0.00  0.00    -0.494 OA
ENDBRANCH   1  14
TORSDOF 1
ENDMDL
MODEL 8
REMARK VINA RESULT:      -5.3      2.191      3.822
REMARK  Name = NuBBE_1711
REMARK  2 active torsions:
REMARK  status: ('A' for Active; 'I' for Inactive)
REMARK    1  A    between atoms: C_1  and  O_2
REMARK    2  A    between atoms: O_2  and  C_3
REMARK                            x       y       z     vdW  Elec       q    Type
REMARK                         _______ _______ _______ _____ _____    ______ ____
ROOT
ATOM      1  C   LIG A   1      -9.256   5.502 130.226  0.00  0.00    +0.134 A 
ATOM      2  C   LIG A   1     -10.472   6.342 130.279  0.00  0.00    +0.040 A 
ATOM      3  C   LIG A   1     -10.935   7.071 129.175  0.00  0.00    +0.013 A 
ATOM      4  C   LIG A   1     -12.089   7.852 129.270  0.00  0.00    +0.001 A 
ATOM      5  C   LIG A   1     -12.796   7.914 130.471  0.00  0.00    +0.002 A 
ATOM      6  C   LIG A   1     -12.349   7.196 131.580  0.00  0.00    +0.026 A 
ATOM      7  C   LIG A   1     -11.195   6.417 131.480  0.00  0.00    +0.053 A 
ATOM      8  N   LIG A   1     -10.754   5.700 132.597  0.00  0.00    -0.322 N 
ATOM      9  C   LIG A   1      -8.875   4.833 131.328  0.00  0.00    +0.116 A 
ATOM     10  C   LIG A   1      -9.639   4.914 132.593  0.00  0.00    +0.253 A 
ATOM     11  O   LIG A   1      -9.271   4.295 133.586  0.00  0.00    -0.268 OA
ATOM     12  H   LIG A   1     -11.263   5.744 133.468  0.00  0.00    +0.169 HD
ENDROOT
BRANCH   1  14
ATOM     13  C   LIG A   1      -8.008   4.277 128.583  0.00  0.00    +0.277 C 
ATOM     14  O   LIG A   1      -8.618   5.491 129.003  0.00  0.00    -0.494 OA
ENDBRANCH   1  14
TORSDOF 1
ENDMDL
MODEL 9
REMARK VINA RESULT:      -5.2      9.902     10.361
REMARK  Name = NuBBE_1711
REMARK  2 active torsions:
REMARK  status: ('A' for Active; 'I' for Inactive)
REMARK    1  A    between atoms: C_1  and  O_2
REMARK    2  A    between atoms: O_2  and  C_3
REMARK                            x       y       z     vdW  Elec       q    Type
REMARK                         _______ _______ _______ _____ _____    ______ ____
ROOT
ATOM      1  C   LIG A   1      -8.962  -1.893 125.276  0.00  0.00    +0.134 A 
ATOM      2  C   LIG A   1      -8.641  -2.358 126.643  0.00  0.00    +0.040 A 
ATOM      3  C   LIG A   1      -9.069  -3.597 127.138  0.00  0.00    +0.013 A 
ATOM      4  C   LIG A   1      -8.741  -3.997 128.437  0.00  0.00    +0.001 A 
ATOM      5  C   LIG A   1      -7.981  -3.162 129.256  0.00  0.00    +0.002 A 
ATOM      6  C   LIG A   1      -7.547  -1.925 128.779  0.00  0.00    +0.026 A 
ATOM      7  C   LIG A   1      -7.878  -1.530 127.481  0.00  0.00    +0.053 A 
ATOM      8  N   LIG A   1      -7.439  -0.288 127.011  0.00  0.00    -0.322 N 
ATOM      9  C   LIG A   1      -8.517  -0.690 124.874  0.00  0.00    +0.116 A 
ATOM     10  C   LIG A   1      -7.713   0.181 125.760  0.00  0.00    +0.253 A 
ATOM     11  O   LIG A   1      -7.317   1.274 125.369  0.00  0.00    -0.268 OA
ATOM     12  H   LIG A   1      -6.889   0.319 127.603  0.00  0.00    +0.169 HD
ENDROOT
BRANCH   1  14
ATOM     13  C   LIG A   1      -9.269  -3.077 123.213  0.00  0.00    +0.277 C 
ATOM     14  O   LIG A   1      -9.713  -2.777 124.530  0.00  0.00    -0.494 OA
ENDBRANCH   1  14
TORSDOF 1
ENDMDL
