MODEL 1
REMARK VINA RESULT:      -6.5      0.000      0.000
REMARK  Name = NuBBE_1119
REMARK  3 active torsions:
REMARK  status: ('A' for Active; 'I' for Inactive)
REMARK    1  A    between atoms: C_9  and  C_10
REMARK    2  A    between atoms: C_13  and  O_14
REMARK    3  A    between atoms: O_14  and  C_15
REMARK                            x       y       z     vdW  Elec       q    Type
REMARK                         _______ _______ _______ _____ _____    ______ ____
ROOT
ATOM      1  O   LIG A   1      -9.653   1.522 125.396  0.00  0.00    -0.245 OA
ATOM      2  C   LIG A   1      -8.826   2.043 124.653  0.00  0.00    +0.337 A 
ATOM      3  C   LIG A   1      -7.445   2.275 125.109  0.00  0.00    +0.092 A 
ATOM      4  C   LIG A   1      -6.522   2.854 124.334  0.00  0.00    +0.018 A 
ATOM      5  O   LIG A   1      -9.137   2.433 123.358  0.00  0.00    -0.422 OA
ATOM      6  C   LIG A   1      -8.173   3.045 122.531  0.00  0.00    +0.143 A 
ATOM      7  C   LIG A   1      -6.880   3.274 122.989  0.00  0.00    +0.018 A 
ATOM      8  C   LIG A   1      -5.968   3.894 122.136  0.00  0.00    +0.026 A 
ATOM      9  C   LIG A   1      -6.364   4.271 120.841  0.00  0.00    +0.057 A 
ATOM     10  C   LIG A   1      -7.667   4.010 120.379  0.00  0.00    +0.134 A 
ATOM     11  C   LIG A   1      -8.580   3.402 121.244  0.00  0.00    +0.093 A 
ENDROOT
BRANCH   9  12
ATOM     12  C   LIG A   1      -5.369   4.923 119.962  0.00  0.00    +0.262 C 
ATOM     13  O   LIG A   1      -4.878   6.010 120.246  0.00  0.00    -0.296 OA
ENDBRANCH   9  12
BRANCH  10  14
ATOM     14  O   LIG A   1      -7.974   4.393 119.100  0.00  0.00    -0.494 OA
ATOM     15  C   LIG A   1      -9.356   4.382 118.752  0.00  0.00    +0.277 C 
ENDBRANCH  10  14
TORSDOF 2
ENDMDL
MODEL 2
REMARK VINA RESULT:      -6.0      1.391      4.965
REMARK  Name = NuBBE_1119
REMARK  3 active torsions:
REMARK  status: ('A' for Active; 'I' for Inactive)
REMARK    1  A    between atoms: C_9  and  C_10
REMARK    2  A    between atoms: C_13  and  O_14
REMARK    3  A    between atoms: O_14  and  C_15
REMARK                            x       y       z     vdW  Elec       q    Type
REMARK                         _______ _______ _______ _____ _____    ______ ____
ROOT
ATOM      1  O   LIG A   1      -6.367   5.449 118.070  0.00  0.00    -0.245 OA
ATOM      2  C   LIG A   1      -6.360   4.951 119.191  0.00  0.00    +0.337 A 
ATOM      3  C   LIG A   1      -5.146   4.985 120.023  0.00  0.00    +0.092 A 
ATOM      4  C   LIG A   1      -5.095   4.439 121.242  0.00  0.00    +0.018 A 
ATOM      5  O   LIG A   1      -7.480   4.339 119.736  0.00  0.00    -0.422 OA
ATOM      6  C   LIG A   1      -7.441   3.759 121.020  0.00  0.00    +0.143 A 
ATOM      7  C   LIG A   1      -6.276   3.785 121.781  0.00  0.00    +0.018 A 
ATOM      8  C   LIG A   1      -6.286   3.186 123.040  0.00  0.00    +0.026 A 
ATOM      9  C   LIG A   1      -7.459   2.575 123.517  0.00  0.00    +0.057 A 
ATOM     10  C   LIG A   1      -8.638   2.579 122.750  0.00  0.00    +0.134 A 
ATOM     11  C   LIG A   1      -8.618   3.168 121.483  0.00  0.00    +0.093 A 
ENDROOT
BRANCH   9  12
ATOM     12  C   LIG A   1      -7.433   1.953 124.858  0.00  0.00    +0.262 C 
ATOM     13  O   LIG A   1      -6.939   0.846 125.042  0.00  0.00    -0.296 OA
ENDBRANCH   9  12
BRANCH  10  14
ATOM     14  O   LIG A   1      -9.745   1.978 123.288  0.00  0.00    -0.494 OA
ATOM     15  C   LIG A   1     -10.167   0.763 122.671  0.00  0.00    +0.277 C 
ENDBRANCH  10  14
TORSDOF 2
ENDMDL
MODEL 3
REMARK VINA RESULT:      -5.8      9.080     11.090
REMARK  Name = NuBBE_1119
REMARK  3 active torsions:
REMARK  status: ('A' for Active; 'I' for Inactive)
REMARK    1  A    between atoms: C_9  and  C_10
REMARK    2  A    between atoms: C_13  and  O_14
REMARK    3  A    between atoms: O_14  and  C_15
REMARK                            x       y       z     vdW  Elec       q    Type
REMARK                         _______ _______ _______ _____ _____    ______ ____
ROOT
ATOM      1  O   LIG A   1     -10.803   8.607 127.908  0.00  0.00    -0.245 OA
ATOM      2  C   LIG A   1     -10.585   7.986 128.944  0.00  0.00    +0.337 A 
ATOM      3  C   LIG A   1     -11.696   7.455 129.751  0.00  0.00    +0.092 A 
ATOM      4  C   LIG A   1     -11.498   6.788 130.893  0.00  0.00    +0.018 A 
ATOM      5  O   LIG A   1      -9.299   7.745 129.405  0.00  0.00    -0.422 OA
ATOM      6  C   LIG A   1      -9.076   7.043 130.608  0.00  0.00    +0.143 A 
ATOM      7  C   LIG A   1     -10.141   6.568 131.366  0.00  0.00    +0.018 A 
ATOM      8  C   LIG A   1      -9.867   5.892 132.554  0.00  0.00    +0.026 A 
ATOM      9  C   LIG A   1      -8.536   5.699 132.960  0.00  0.00    +0.057 A 
ATOM     10  C   LIG A   1      -7.466   6.159 132.171  0.00  0.00    +0.134 A 
ATOM     11  C   LIG A   1      -7.747   6.850 130.990  0.00  0.00    +0.093 A 
ENDROOT
BRANCH   9  12
ATOM     12  C   LIG A   1      -8.283   4.973 134.223  0.00  0.00    +0.262 C 
ATOM     13  O   LIG A   1      -8.448   3.761 134.311  0.00  0.00    -0.296 OA
ENDBRANCH   9  12
BRANCH  10  14
ATOM     14  O   LIG A   1      -6.196   5.921 132.626  0.00  0.00    -0.494 OA
ATOM     15  C   LIG A   1      -5.133   6.455 131.840  0.00  0.00    +0.277 C 
ENDBRANCH  10  14
TORSDOF 2
ENDMDL
MODEL 4
REMARK VINA RESULT:      -5.8      7.286      9.887
REMARK  Name = NuBBE_1119
REMARK  3 active torsions:
REMARK  status: ('A' for Active; 'I' for Inactive)
REMARK    1  A    between atoms: C_9  and  C_10
REMARK    2  A    between atoms: C_13  and  O_14
REMARK    3  A    between atoms: O_14  and  C_15
REMARK                            x       y       z     vdW  Elec       q    Type
REMARK                         _______ _______ _______ _____ _____    ______ ____
ROOT
ATOM      1  O   LIG A   1     -10.896   7.792 125.658  0.00  0.00    -0.245 OA
ATOM      2  C   LIG A   1     -10.826   7.580 126.865  0.00  0.00    +0.337 A 
ATOM      3  C   LIG A   1     -11.605   8.387 127.818  0.00  0.00    +0.092 A 
ATOM      4  C   LIG A   1     -11.541   8.196 129.140  0.00  0.00    +0.018 A 
ATOM      5  O   LIG A   1     -10.023   6.579 127.394  0.00  0.00    -0.422 OA
ATOM      6  C   LIG A   1      -9.947   6.367 128.786  0.00  0.00    +0.143 A 
ATOM      7  C   LIG A   1     -10.677   7.155 129.670  0.00  0.00    +0.018 A 
ATOM      8  C   LIG A   1     -10.555   6.913 131.038  0.00  0.00    +0.026 A 
ATOM      9  C   LIG A   1      -9.712   5.886 131.496  0.00  0.00    +0.057 A 
ATOM     10  C   LIG A   1      -9.000   5.078 130.591  0.00  0.00    +0.134 A 
ATOM     11  C   LIG A   1      -9.114   5.335 129.223  0.00  0.00    +0.093 A 
ENDROOT
BRANCH   9  12
ATOM     12  C   LIG A   1      -9.612   5.656 132.954  0.00  0.00    +0.262 C 
ATOM     13  O   LIG A   1      -8.737   6.187 133.628  0.00  0.00    -0.296 OA
ENDBRANCH   9  12
BRANCH  10  14
ATOM     14  O   LIG A   1      -8.210   4.088 131.113  0.00  0.00    -0.494 OA
ATOM     15  C   LIG A   1      -8.570   2.750 130.778  0.00  0.00    +0.277 C 
ENDBRANCH  10  14
TORSDOF 2
ENDMDL
MODEL 5
REMARK VINA RESULT:      -5.8      6.884      8.337
REMARK  Name = NuBBE_1119
REMARK  3 active torsions:
REMARK  status: ('A' for Active; 'I' for Inactive)
REMARK    1  A    between atoms: C_9  and  C_10
REMARK    2  A    between atoms: C_13  and  O_14
REMARK    3  A    between atoms: O_14  and  C_15
REMARK                            x       y       z     vdW  Elec       q    Type
REMARK                         _______ _______ _______ _____ _____    ______ ____
ROOT
ATOM      1  O   LIG A   1      -5.862  -2.326 130.773  0.00  0.00    -0.245 OA
ATOM      2  C   LIG A   1      -6.538  -2.552 129.774  0.00  0.00    +0.337 A 
ATOM      3  C   LIG A   1      -7.875  -3.157 129.890  0.00  0.00    +0.092 A 
ATOM      4  C   LIG A   1      -8.633  -3.433 128.824  0.00  0.00    +0.018 A 
ATOM      5  O   LIG A   1      -6.091  -2.250 128.495  0.00  0.00    -0.422 OA
ATOM      6  C   LIG A   1      -6.880  -2.536 127.362  0.00  0.00    +0.143 A 
ATOM      7  C   LIG A   1      -8.133  -3.127 127.494  0.00  0.00    +0.018 A 
ATOM      8  C   LIG A   1      -8.867  -3.401 126.341  0.00  0.00    +0.026 A 
ATOM      9  C   LIG A   1      -8.340  -3.076 125.079  0.00  0.00    +0.057 A 
ATOM     10  C   LIG A   1      -7.084  -2.453 124.960  0.00  0.00    +0.134 A 
ATOM     11  C   LIG A   1      -6.346  -2.195 126.118  0.00  0.00    +0.093 A 
ENDROOT
BRANCH   9  12
ATOM     12  C   LIG A   1      -9.150  -3.377 123.879  0.00  0.00    +0.262 C 
ATOM     13  O   LIG A   1      -9.929  -2.556 123.409  0.00  0.00    -0.296 OA
ENDBRANCH   9  12
BRANCH  10  14
ATOM     14  O   LIG A   1      -6.644  -2.153 123.698  0.00  0.00    -0.494 OA
ATOM     15  C   LIG A   1      -5.420  -2.764 123.295  0.00  0.00    +0.277 C 
ENDBRANCH  10  14
TORSDOF 2
ENDMDL
MODEL 6
REMARK VINA RESULT:      -5.7      9.125      9.988
REMARK  Name = NuBBE_1119
REMARK  3 active torsions:
REMARK  status: ('A' for Active; 'I' for Inactive)
REMARK    1  A    between atoms: C_9  and  C_10
REMARK    2  A    between atoms: C_13  and  O_14
REMARK    3  A    between atoms: O_14  and  C_15
REMARK                            x       y       z     vdW  Elec       q    Type
REMARK                         _______ _______ _______ _____ _____    ______ ____
ROOT
ATOM      1  O   LIG A   1     -13.887   7.184 127.717  0.00  0.00    -0.245 OA
ATOM      2  C   LIG A   1     -12.820   7.193 128.323  0.00  0.00    +0.337 A 
ATOM      3  C   LIG A   1     -11.887   8.323 128.187  0.00  0.00    +0.092 A 
ATOM      4  C   LIG A   1     -10.708   8.361 128.817  0.00  0.00    +0.018 A 
ATOM      5  O   LIG A   1     -12.437   6.156 129.162  0.00  0.00    -0.422 OA
ATOM      6  C   LIG A   1     -11.197   6.182 129.833  0.00  0.00    +0.143 A 
ATOM      7  C   LIG A   1     -10.321   7.252 129.674  0.00  0.00    +0.018 A 
ATOM      8  C   LIG A   1      -9.102   7.223 130.349  0.00  0.00    +0.026 A 
ATOM      9  C   LIG A   1      -8.781   6.130 131.172  0.00  0.00    +0.057 A 
ATOM     10  C   LIG A   1      -9.686   5.068 131.347  0.00  0.00    +0.134 A 
ATOM     11  C   LIG A   1     -10.900   5.095 130.656  0.00  0.00    +0.093 A 
ENDROOT
BRANCH   9  12
ATOM     12  C   LIG A   1      -7.481   6.136 131.876  0.00  0.00    +0.262 C 
ATOM     13  O   LIG A   1      -6.543   6.823 131.485  0.00  0.00    -0.296 OA
ENDBRANCH   9  12
BRANCH  10  14
ATOM     14  O   LIG A   1      -9.310   4.045 132.177  0.00  0.00    -0.494 OA
ATOM     15  C   LIG A   1      -9.593   2.724 131.721  0.00  0.00    +0.277 C 
ENDBRANCH  10  14
TORSDOF 2
ENDMDL
MODEL 7
REMARK VINA RESULT:      -5.6      5.109      7.634
REMARK  Name = NuBBE_1119
REMARK  3 active torsions:
REMARK  status: ('A' for Active; 'I' for Inactive)
REMARK    1  A    between atoms: C_9  and  C_10
REMARK    2  A    between atoms: C_13  and  O_14
REMARK    3  A    between atoms: O_14  and  C_15
REMARK                            x       y       z     vdW  Elec       q    Type
REMARK                         _______ _______ _______ _____ _____    ______ ____
ROOT
ATOM      1  O   LIG A   1      -7.223  -1.587 130.721  0.00  0.00    -0.245 OA
ATOM      2  C   LIG A   1      -7.604  -1.959 129.615  0.00  0.00    +0.337 A 
ATOM      3  C   LIG A   1      -8.247  -3.271 129.443  0.00  0.00    +0.092 A 
ATOM      4  C   LIG A   1      -8.660  -3.717 128.252  0.00  0.00    +0.018 A 
ATOM      5  O   LIG A   1      -7.459  -1.173 128.480  0.00  0.00    -0.422 OA
ATOM      6  C   LIG A   1      -7.890  -1.631 127.218  0.00  0.00    +0.143 A 
ATOM      7  C   LIG A   1      -8.477  -2.884 127.075  0.00  0.00    +0.018 A 
ATOM      8  C   LIG A   1      -8.873  -3.294 125.803  0.00  0.00    +0.026 A 
ATOM      9  C   LIG A   1      -8.681  -2.445 124.700  0.00  0.00    +0.057 A 
ATOM     10  C   LIG A   1      -8.112  -1.169 124.861  0.00  0.00    +0.134 A 
ATOM     11  C   LIG A   1      -7.702  -0.769 126.136  0.00  0.00    +0.093 A 
ENDROOT
BRANCH   9  12
ATOM     12  C   LIG A   1      -9.118  -2.912 123.366  0.00  0.00    +0.262 C 
ATOM     13  O   LIG A   1     -10.138  -3.577 123.222  0.00  0.00    -0.296 OA
ENDBRANCH   9  12
BRANCH  10  14
ATOM     14  O   LIG A   1      -7.970  -0.393 123.742  0.00  0.00    -0.494 OA
ATOM     15  C   LIG A   1      -7.256   0.831 123.907  0.00  0.00    +0.277 C 
ENDBRANCH  10  14
TORSDOF 2
ENDMDL
MODEL 8
REMARK VINA RESULT:      -5.6      8.666     10.677
REMARK  Name = NuBBE_1119
REMARK  3 active torsions:
REMARK  status: ('A' for Active; 'I' for Inactive)
REMARK    1  A    between atoms: C_9  and  C_10
REMARK    2  A    between atoms: C_13  and  O_14
REMARK    3  A    between atoms: O_14  and  C_15
REMARK                            x       y       z     vdW  Elec       q    Type
REMARK                         _______ _______ _______ _____ _____    ______ ____
ROOT
ATOM      1  O   LIG A   1     -13.521   6.821 128.127  0.00  0.00    -0.245 OA
ATOM      2  C   LIG A   1     -12.825   6.630 129.120  0.00  0.00    +0.337 A 
ATOM      3  C   LIG A   1     -13.068   7.377 130.364  0.00  0.00    +0.092 A 
ATOM      4  C   LIG A   1     -12.321   7.208 131.460  0.00  0.00    +0.018 A 
ATOM      5  O   LIG A   1     -11.789   5.707 129.129  0.00  0.00    -0.422 OA
ATOM      6  C   LIG A   1     -10.993   5.518 130.278  0.00  0.00    +0.143 A 
ATOM      7  C   LIG A   1     -11.227   6.251 131.437  0.00  0.00    +0.018 A 
ATOM      8  C   LIG A   1     -10.403   6.036 132.541  0.00  0.00    +0.026 A 
ATOM      9  C   LIG A   1      -9.365   5.091 132.468  0.00  0.00    +0.057 A 
ATOM     10  C   LIG A   1      -9.155   4.337 131.300  0.00  0.00    +0.134 A 
ATOM     11  C   LIG A   1      -9.974   4.568 130.192  0.00  0.00    +0.093 A 
ENDROOT
BRANCH   9  12
ATOM     12  C   LIG A   1      -8.514   4.887 133.660  0.00  0.00    +0.262 C 
ATOM     13  O   LIG A   1      -8.823   4.091 134.540  0.00  0.00    -0.296 OA
ENDBRANCH   9  12
BRANCH  10  14
ATOM     14  O   LIG A   1      -8.134   3.425 131.310  0.00  0.00    -0.494 OA
ATOM     15  C   LIG A   1      -8.077   2.527 130.203  0.00  0.00    +0.277 C 
ENDBRANCH  10  14
TORSDOF 2
ENDMDL
MODEL 9
REMARK VINA RESULT:      -5.3      3.066      5.139
REMARK  Name = NuBBE_1119
REMARK  3 active torsions:
REMARK  status: ('A' for Active; 'I' for Inactive)
REMARK    1  A    between atoms: C_9  and  C_10
REMARK    2  A    between atoms: C_13  and  O_14
REMARK    3  A    between atoms: O_14  and  C_15
REMARK                            x       y       z     vdW  Elec       q    Type
REMARK                         _______ _______ _______ _____ _____    ______ ____
ROOT
ATOM      1  O   LIG A   1      -9.084  -3.572 126.691  0.00  0.00    -0.245 OA
ATOM      2  C   LIG A   1      -9.066  -2.687 125.840  0.00  0.00    +0.337 A 
ATOM      3  C   LIG A   1      -9.032  -3.022 124.407  0.00  0.00    +0.092 A 
ATOM      4  C   LIG A   1      -8.996  -2.086 123.453  0.00  0.00    +0.018 A 
ATOM      5  O   LIG A   1      -9.082  -1.340 126.174  0.00  0.00    -0.422 OA
ATOM      6  C   LIG A   1      -9.044  -0.343 125.178  0.00  0.00    +0.143 A 
ATOM      7  C   LIG A   1      -8.991  -0.682 123.830  0.00  0.00    +0.018 A 
ATOM      8  C   LIG A   1      -8.941   0.342 122.885  0.00  0.00    +0.026 A 
ATOM      9  C   LIG A   1      -8.949   1.684 123.303  0.00  0.00    +0.057 A 
ATOM     10  C   LIG A   1      -9.030   2.014 124.668  0.00  0.00    +0.134 A 
ATOM     11  C   LIG A   1      -9.064   0.984 125.611  0.00  0.00    +0.093 A 
ENDROOT
BRANCH   9  12
ATOM     12  C   LIG A   1      -8.899   2.744 122.273  0.00  0.00    +0.262 C 
ATOM     13  O   LIG A   1      -7.840   3.262 121.937  0.00  0.00    -0.296 OA
ENDBRANCH   9  12
BRANCH  10  14
ATOM     14  O   LIG A   1      -9.047   3.344 124.998  0.00  0.00    -0.494 OA
ATOM     15  C   LIG A   1      -7.888   3.846 125.658  0.00  0.00    +0.277 C 
ENDBRANCH  10  14
TORSDOF 2
ENDMDL
