MODEL 1
REMARK VINA RESULT:      -8.5      0.000      0.000
REMARK  Name = NuBBE_1141
REMARK  4 active torsions:
REMARK  status: ('A' for Active; 'I' for Inactive)
REMARK    1  A    between atoms: C_1  and  N_2
REMARK    2  A    between atoms: C_3  and  C_27
REMARK    3  A    between atoms: C_27  and  C_28
REMARK    4  A    between atoms: C_28  and  C_29
REMARK                            x       y       z     vdW  Elec       q    Type
REMARK                         _______ _______ _______ _____ _____    ______ ____
ROOT
ATOM      1  C   LIG A   1      -7.464   3.001 126.846  0.00  0.00    +0.130 C 
ATOM      2  N   LIG A   1      -7.611   1.559 126.855  0.00  0.00    -0.325 N 
ATOM      3  C   LIG A   1      -8.019   0.940 125.567  0.00  0.00    +0.111 C 
ATOM      4  C   LIG A   1      -7.191  -0.310 125.347  0.00  0.00    -0.015 A 
ATOM      5  C   LIG A   1      -6.725  -0.658 124.065  0.00  0.00    +0.055 A 
ATOM      6  C   LIG A   1      -5.982  -1.809 123.942  0.00  0.00    +0.167 A 
ATOM      7  C   LIG A   1      -5.698  -2.598 125.029  0.00  0.00    +0.167 A 
ATOM      8  C   LIG A   1      -6.138  -2.280 126.297  0.00  0.00    +0.058 A 
ATOM      9  C   LIG A   1      -6.911  -1.117 126.476  0.00  0.00    -0.007 A 
ATOM     10  C   LIG A   1      -7.416  -0.662 127.793  0.00  0.00    +0.004 A 
ATOM     11  C   LIG A   1      -7.703   0.736 127.999  0.00  0.00    +0.046 A 
ATOM     12  C   LIG A   1      -8.089   1.176 129.326  0.00  0.00    +0.007 A 
ATOM     13  C   LIG A   1      -8.269   0.178 130.347  0.00  0.00    -0.012 A 
ATOM     14  C   LIG A   1      -8.056  -1.170 130.075  0.00  0.00    +0.009 A 
ATOM     15  C   LIG A   1      -7.624  -1.583 128.826  0.00  0.00    +0.011 A 
ATOM     16  C   LIG A   1      -8.673   0.503 131.655  0.00  0.00    +0.058 A 
ATOM     17  C   LIG A   1      -8.879   1.819 131.976  0.00  0.00    +0.167 A 
ATOM     18  C   LIG A   1      -8.712   2.801 131.045  0.00  0.00    +0.167 A 
ATOM     19  O   LIG A   1      -8.950   4.041 131.550  0.00  0.00    -0.453 OA
ATOM     20  C   LIG A   1      -9.266   3.717 132.921  0.00  0.00    +0.466 C 
ATOM     21  O   LIG A   1      -9.252   2.300 133.189  0.00  0.00    -0.453 OA
ATOM     22  C   LIG A   1      -8.343   2.516 129.743  0.00  0.00    +0.060 A 
ATOM     23  O   LIG A   1      -4.947  -3.683 124.700  0.00  0.00    -0.453 OA
ATOM     24  C   LIG A   1      -4.790  -3.484 123.280  0.00  0.00    +0.466 C 
ATOM     25  O   LIG A   1      -5.450  -2.296 122.792  0.00  0.00    -0.453 OA
ENDROOT
BRANCH   3  26
ATOM     26  C   LIG A   1      -9.532   0.677 125.564  0.00  0.00    +0.101 C 
BRANCH  26  27
ATOM     27  C   LIG A   1     -10.189   1.290 124.353  0.00  0.00    +0.132 C 
ATOM     28  C   LIG A   1      -9.302   2.084 123.425  0.00  0.00    +0.086 C 
ATOM     29  O   LIG A   1     -11.388   1.147 124.131  0.00  0.00    -0.298 OA
ENDBRANCH  26  27
ENDBRANCH   3  26
TORSDOF 2
ENDMDL
MODEL 2
REMARK VINA RESULT:      -8.5      6.907      9.898
REMARK  Name = NuBBE_1141
REMARK  4 active torsions:
REMARK  status: ('A' for Active; 'I' for Inactive)
REMARK    1  A    between atoms: C_1  and  N_2
REMARK    2  A    between atoms: C_3  and  C_27
REMARK    3  A    between atoms: C_27  and  C_28
REMARK    4  A    between atoms: C_28  and  C_29
REMARK                            x       y       z     vdW  Elec       q    Type
REMARK                         _______ _______ _______ _____ _____    ______ ____
ROOT
ATOM      1  C   LIG A   1      -6.121   5.553 135.109  0.00  0.00    +0.130 C 
ATOM      2  N   LIG A   1      -6.489   5.658 133.711  0.00  0.00    -0.325 N 
ATOM      3  C   LIG A   1      -7.566   4.741 133.253  0.00  0.00    +0.111 C 
ATOM      4  C   LIG A   1      -8.513   5.516 132.358  0.00  0.00    -0.015 A 
ATOM      5  C   LIG A   1      -9.902   5.296 132.406  0.00  0.00    +0.055 A 
ATOM      6  C   LIG A   1     -10.698   6.035 131.562  0.00  0.00    +0.167 A 
ATOM      7  C   LIG A   1     -10.165   6.961 130.701  0.00  0.00    +0.167 A 
ATOM      8  C   LIG A   1      -8.808   7.200 130.634  0.00  0.00    +0.058 A 
ATOM      9  C   LIG A   1      -7.947   6.464 131.471  0.00  0.00    -0.007 A 
ATOM     10  C   LIG A   1      -6.478   6.653 131.507  0.00  0.00    +0.004 A 
ATOM     11  C   LIG A   1      -5.745   6.302 132.697  0.00  0.00    +0.046 A 
ATOM     12  C   LIG A   1      -4.326   6.599 132.751  0.00  0.00    +0.007 A 
ATOM     13  C   LIG A   1      -3.698   7.132 131.572  0.00  0.00    -0.012 A 
ATOM     14  C   LIG A   1      -4.437   7.378 130.418  0.00  0.00    +0.009 A 
ATOM     15  C   LIG A   1      -5.803   7.157 130.388  0.00  0.00    +0.011 A 
ATOM     16  C   LIG A   1      -2.323   7.422 131.516  0.00  0.00    +0.058 A 
ATOM     17  C   LIG A   1      -1.557   7.212 132.632  0.00  0.00    +0.167 A 
ATOM     18  C   LIG A   1      -2.108   6.716 133.776  0.00  0.00    +0.167 A 
ATOM     19  O   LIG A   1      -1.197   6.587 134.778  0.00  0.00    -0.453 OA
ATOM     20  C   LIG A   1      -0.009   7.083 134.127  0.00  0.00    +0.466 C 
ATOM     21  O   LIG A   1      -0.227   7.454 132.750  0.00  0.00    -0.453 OA
ATOM     22  C   LIG A   1      -3.451   6.395 133.859  0.00  0.00    +0.060 A 
ATOM     23  O   LIG A   1     -11.116   7.590 129.959  0.00  0.00    -0.453 OA
ATOM     24  C   LIG A   1     -12.312   6.953 130.457  0.00  0.00    +0.466 C 
ATOM     25  O   LIG A   1     -12.051   5.961 131.473  0.00  0.00    -0.453 OA
ENDROOT
BRANCH   3  26
ATOM     26  C   LIG A   1      -6.955   3.509 132.569  0.00  0.00    +0.101 C 
BRANCH  26  27
ATOM     27  C   LIG A   1      -7.552   2.234 133.110  0.00  0.00    +0.132 C 
ATOM     28  C   LIG A   1      -8.839   1.764 132.476  0.00  0.00    +0.086 C 
ATOM     29  O   LIG A   1      -7.015   1.608 134.018  0.00  0.00    -0.298 OA
ENDBRANCH  26  27
ENDBRANCH   3  26
TORSDOF 2
ENDMDL
MODEL 3
REMARK VINA RESULT:      -8.4      3.571      6.153
REMARK  Name = NuBBE_1141
REMARK  4 active torsions:
REMARK  status: ('A' for Active; 'I' for Inactive)
REMARK    1  A    between atoms: C_1  and  N_2
REMARK    2  A    between atoms: C_3  and  C_27
REMARK    3  A    between atoms: C_27  and  C_28
REMARK    4  A    between atoms: C_28  and  C_29
REMARK                            x       y       z     vdW  Elec       q    Type
REMARK                         _______ _______ _______ _____ _____    ______ ____
ROOT
ATOM      1  C   LIG A   1      -4.799   1.375 126.780  0.00  0.00    +0.130 C 
ATOM      2  N   LIG A   1      -5.736   1.756 125.742  0.00  0.00    -0.325 N 
ATOM      3  C   LIG A   1      -5.845   3.213 125.468  0.00  0.00    +0.111 C 
ATOM      4  C   LIG A   1      -5.889   3.421 123.967  0.00  0.00    -0.015 A 
ATOM      5  C   LIG A   1      -5.228   4.507 123.364  0.00  0.00    +0.055 A 
ATOM      6  C   LIG A   1      -5.316   4.632 121.997  0.00  0.00    +0.167 A 
ATOM      7  C   LIG A   1      -6.020   3.732 121.238  0.00  0.00    +0.167 A 
ATOM      8  C   LIG A   1      -6.675   2.656 121.801  0.00  0.00    +0.058 A 
ATOM      9  C   LIG A   1      -6.625   2.487 123.198  0.00  0.00    -0.007 A 
ATOM     10  C   LIG A   1      -7.266   1.357 123.912  0.00  0.00    +0.004 A 
ATOM     11  C   LIG A   1      -6.750   0.940 125.192  0.00  0.00    +0.046 A 
ATOM     12  C   LIG A   1      -7.321  -0.236 125.820  0.00  0.00    +0.007 A 
ATOM     13  C   LIG A   1      -8.445  -0.868 125.183  0.00  0.00    -0.012 A 
ATOM     14  C   LIG A   1      -8.957  -0.378 123.986  0.00  0.00    +0.009 A 
ATOM     15  C   LIG A   1      -8.372   0.706 123.353  0.00  0.00    +0.011 A 
ATOM     16  C   LIG A   1      -9.086  -1.994 125.731  0.00  0.00    +0.058 A 
ATOM     17  C   LIG A   1      -8.608  -2.523 126.900  0.00  0.00    +0.167 A 
ATOM     18  C   LIG A   1      -7.539  -1.965 127.536  0.00  0.00    +0.167 A 
ATOM     19  O   LIG A   1      -7.203  -2.634 128.672  0.00  0.00    -0.453 OA
ATOM     20  C   LIG A   1      -8.181  -3.695 128.659  0.00  0.00    +0.466 C 
ATOM     21  O   LIG A   1      -9.098  -3.611 127.549  0.00  0.00    -0.453 OA
ATOM     22  C   LIG A   1      -6.902  -0.842 127.041  0.00  0.00    +0.060 A 
ATOM     23  O   LIG A   1      -5.979   4.026 119.911  0.00  0.00    -0.453 OA
ATOM     24  C   LIG A   1      -5.164   5.217 119.923  0.00  0.00    +0.466 C 
ATOM     25  O   LIG A   1      -4.743   5.609 121.247  0.00  0.00    -0.453 OA
ENDROOT
BRANCH   3  26
ATOM     26  C   LIG A   1      -7.061   3.798 126.200  0.00  0.00    +0.101 C 
BRANCH  26  27
ATOM     27  C   LIG A   1      -6.762   4.021 127.661  0.00  0.00    +0.132 C 
ATOM     28  C   LIG A   1      -7.533   3.181 128.650  0.00  0.00    +0.086 C 
ATOM     29  O   LIG A   1      -5.928   4.843 128.028  0.00  0.00    -0.298 OA
ENDBRANCH  26  27
ENDBRANCH   3  26
TORSDOF 2
ENDMDL
MODEL 4
REMARK VINA RESULT:      -8.2      3.024      5.217
REMARK  Name = NuBBE_1141
REMARK  4 active torsions:
REMARK  status: ('A' for Active; 'I' for Inactive)
REMARK    1  A    between atoms: C_1  and  N_2
REMARK    2  A    between atoms: C_3  and  C_27
REMARK    3  A    between atoms: C_27  and  C_28
REMARK    4  A    between atoms: C_28  and  C_29
REMARK                            x       y       z     vdW  Elec       q    Type
REMARK                         _______ _______ _______ _____ _____    ______ ____
ROOT
ATOM      1  C   LIG A   1      -4.996   0.884 128.825  0.00  0.00    +0.130 C 
ATOM      2  N   LIG A   1      -6.258   0.312 128.399  0.00  0.00    -0.325 N 
ATOM      3  C   LIG A   1      -7.340   1.284 128.092  0.00  0.00    +0.111 C 
ATOM      4  C   LIG A   1      -8.043   0.840 126.824  0.00  0.00    -0.015 A 
ATOM      5  C   LIG A   1      -8.479   1.777 125.869  0.00  0.00    +0.055 A 
ATOM      6  C   LIG A   1      -9.112   1.300 124.744  0.00  0.00    +0.167 A 
ATOM      7  C   LIG A   1      -9.313  -0.043 124.550  0.00  0.00    +0.167 A 
ATOM      8  C   LIG A   1      -8.893  -0.985 125.468  0.00  0.00    +0.058 A 
ATOM      9  C   LIG A   1      -8.248  -0.549 126.641  0.00  0.00    -0.007 A 
ATOM     10  C   LIG A   1      -7.731  -1.467 127.683  0.00  0.00    +0.004 A 
ATOM     11  C   LIG A   1      -6.652  -1.038 128.537  0.00  0.00    +0.046 A 
ATOM     12  C   LIG A   1      -6.087  -1.990 129.474  0.00  0.00    +0.007 A 
ATOM     13  C   LIG A   1      -6.704  -3.286 129.579  0.00  0.00    -0.012 A 
ATOM     14  C   LIG A   1      -7.797  -3.624 128.787  0.00  0.00    +0.009 A 
ATOM     15  C   LIG A   1      -8.295  -2.738 127.846  0.00  0.00    +0.011 A 
ATOM     16  C   LIG A   1      -6.249  -4.265 130.480  0.00  0.00    +0.058 A 
ATOM     17  C   LIG A   1      -5.165  -3.985 131.269  0.00  0.00    +0.167 A 
ATOM     18  C   LIG A   1      -4.542  -2.775 131.199  0.00  0.00    +0.167 A 
ATOM     19  O   LIG A   1      -3.482  -2.686 132.047  0.00  0.00    -0.453 OA
ATOM     20  C   LIG A   1      -3.504  -4.000 132.644  0.00  0.00    +0.466 C 
ATOM     21  O   LIG A   1      -4.593  -4.821 132.174  0.00  0.00    -0.453 OA
ATOM     22  C   LIG A   1      -4.978  -1.779 130.345  0.00  0.00    +0.060 A 
ATOM     23  O   LIG A   1      -9.947  -0.310 123.377  0.00  0.00    -0.453 OA
ATOM     24  C   LIG A   1     -10.119   1.024 122.853  0.00  0.00    +0.466 C 
ATOM     25  O   LIG A   1      -9.593   2.051 123.720  0.00  0.00    -0.453 OA
ENDROOT
BRANCH   3  26
ATOM     26  C   LIG A   1      -8.284   1.420 129.295  0.00  0.00    +0.101 C 
BRANCH  26  27
ATOM     27  C   LIG A   1      -8.718   2.851 129.488  0.00  0.00    +0.132 C 
ATOM     28  C   LIG A   1      -7.628   3.895 129.514  0.00  0.00    +0.086 C 
ATOM     29  O   LIG A   1      -9.901   3.152 129.614  0.00  0.00    -0.298 OA
ENDBRANCH  26  27
ENDBRANCH   3  26
TORSDOF 2
ENDMDL
MODEL 5
REMARK VINA RESULT:      -8.1      3.477      7.694
REMARK  Name = NuBBE_1141
REMARK  4 active torsions:
REMARK  status: ('A' for Active; 'I' for Inactive)
REMARK    1  A    between atoms: C_1  and  N_2
REMARK    2  A    between atoms: C_3  and  C_27
REMARK    3  A    between atoms: C_27  and  C_28
REMARK    4  A    between atoms: C_28  and  C_29
REMARK                            x       y       z     vdW  Elec       q    Type
REMARK                         _______ _______ _______ _____ _____    ______ ____
ROOT
ATOM      1  C   LIG A   1      -6.192   0.653 127.939  0.00  0.00    +0.130 C 
ATOM      2  N   LIG A   1      -6.401  -0.615 128.609  0.00  0.00    -0.325 N 
ATOM      3  C   LIG A   1      -5.327  -1.039 129.545  0.00  0.00    +0.111 C 
ATOM      4  C   LIG A   1      -5.971  -1.594 130.800  0.00  0.00    -0.015 A 
ATOM      5  C   LIG A   1      -5.420  -1.345 132.071  0.00  0.00    +0.055 A 
ATOM      6  C   LIG A   1      -6.058  -1.885 133.164  0.00  0.00    +0.167 A 
ATOM      7  C   LIG A   1      -7.196  -2.641 133.030  0.00  0.00    +0.167 A 
ATOM      8  C   LIG A   1      -7.760  -2.898 131.797  0.00  0.00    +0.058 A 
ATOM      9  C   LIG A   1      -7.141  -2.377 130.645  0.00  0.00    -0.007 A 
ATOM     10  C   LIG A   1      -7.669  -2.565 129.273  0.00  0.00    +0.004 A 
ATOM     11  C   LIG A   1      -7.340  -1.607 128.247  0.00  0.00    +0.046 A 
ATOM     12  C   LIG A   1      -7.957  -1.749 126.942  0.00  0.00    +0.007 A 
ATOM     13  C   LIG A   1      -8.785  -2.901 126.704  0.00  0.00    -0.012 A 
ATOM     14  C   LIG A   1      -9.007  -3.841 127.706  0.00  0.00    +0.009 A 
ATOM     15  C   LIG A   1      -8.471  -3.672 128.971  0.00  0.00    +0.011 A 
ATOM     16  C   LIG A   1      -9.400  -3.142 125.463  0.00  0.00    +0.058 A 
ATOM     17  C   LIG A   1      -9.225  -2.236 124.450  0.00  0.00    +0.167 A 
ATOM     18  C   LIG A   1      -8.457  -1.125 124.631  0.00  0.00    +0.167 A 
ATOM     19  O   LIG A   1      -8.410  -0.340 123.521  0.00  0.00    -0.453 OA
ATOM     20  C   LIG A   1      -9.263  -1.086 122.627  0.00  0.00    +0.466 C 
ATOM     21  O   LIG A   1      -9.760  -2.311 123.205  0.00  0.00    -0.453 OA
ATOM     22  C   LIG A   1      -7.815  -0.869 125.829  0.00  0.00    +0.060 A 
ATOM     23  O   LIG A   1      -7.676  -3.075 134.226  0.00  0.00    -0.453 OA
ATOM     24  C   LIG A   1      -6.708  -2.501 135.130  0.00  0.00    +0.466 C 
ATOM     25  O   LIG A   1      -5.675  -1.747 134.460  0.00  0.00    -0.453 OA
ENDROOT
BRANCH   3  26
ATOM     26  C   LIG A   1      -4.385  -2.034 128.853  0.00  0.00    +0.101 C 
BRANCH  26  27
ATOM     27  C   LIG A   1      -3.499  -2.733 129.853  0.00  0.00    +0.132 C 
ATOM     28  C   LIG A   1      -3.850  -4.161 130.193  0.00  0.00    +0.086 C 
ATOM     29  O   LIG A   1      -2.537  -2.167 130.363  0.00  0.00    -0.298 OA
ENDBRANCH  26  27
ENDBRANCH   3  26
TORSDOF 2
ENDMDL
MODEL 6
REMARK VINA RESULT:      -8.1      3.611      7.768
REMARK  Name = NuBBE_1141
REMARK  4 active torsions:
REMARK  status: ('A' for Active; 'I' for Inactive)
REMARK    1  A    between atoms: C_1  and  N_2
REMARK    2  A    between atoms: C_3  and  C_27
REMARK    3  A    between atoms: C_27  and  C_28
REMARK    4  A    between atoms: C_28  and  C_29
REMARK                            x       y       z     vdW  Elec       q    Type
REMARK                         _______ _______ _______ _____ _____    ______ ____
ROOT
ATOM      1  C   LIG A   1      -7.724   2.697 127.314  0.00  0.00    +0.130 C 
ATOM      2  N   LIG A   1      -8.240   3.144 128.593  0.00  0.00    -0.325 N 
ATOM      3  C   LIG A   1      -8.020   4.578 128.916  0.00  0.00    +0.111 C 
ATOM      4  C   LIG A   1      -9.292   5.139 129.520  0.00  0.00    -0.015 A 
ATOM      5  C   LIG A   1      -9.728   6.442 129.217  0.00  0.00    +0.055 A 
ATOM      6  C   LIG A   1     -10.890   6.883 129.806  0.00  0.00    +0.167 A 
ATOM      7  C   LIG A   1     -11.610   6.085 130.659  0.00  0.00    +0.167 A 
ATOM      8  C   LIG A   1     -11.208   4.802 130.971  0.00  0.00    +0.058 A 
ATOM      9  C   LIG A   1     -10.020   4.305 130.403  0.00  0.00    -0.007 A 
ATOM     10  C   LIG A   1      -9.505   2.937 130.643  0.00  0.00    +0.004 A 
ATOM     11  C   LIG A   1      -8.645   2.318 129.665  0.00  0.00    +0.046 A 
ATOM     12  C   LIG A   1      -8.244   0.939 129.867  0.00  0.00    +0.007 A 
ATOM     13  C   LIG A   1      -8.637   0.290 131.089  0.00  0.00    -0.012 A 
ATOM     14  C   LIG A   1      -9.402   0.958 132.040  0.00  0.00    +0.009 A 
ATOM     15  C   LIG A   1      -9.840   2.253 131.818  0.00  0.00    +0.011 A 
ATOM     16  C   LIG A   1      -8.270  -1.034 131.390  0.00  0.00    +0.058 A 
ATOM     17  C   LIG A   1      -7.531  -1.740 130.477  0.00  0.00    +0.167 A 
ATOM     18  C   LIG A   1      -7.142  -1.169 129.301  0.00  0.00    +0.167 A 
ATOM     19  O   LIG A   1      -6.429  -2.025 128.520  0.00  0.00    -0.453 OA
ATOM     20  C   LIG A   1      -6.436  -3.210 129.343  0.00  0.00    +0.466 C 
ATOM     21  O   LIG A   1      -7.111  -3.024 130.604  0.00  0.00    -0.453 OA
ATOM     22  C   LIG A   1      -7.462   0.138 128.984  0.00  0.00    +0.060 A 
ATOM     23  O   LIG A   1     -12.728   6.700 131.128  0.00  0.00    -0.453 OA
ATOM     24  C   LIG A   1     -12.630   7.980 130.467  0.00  0.00    +0.466 C 
ATOM     25  O   LIG A   1     -11.461   8.103 129.628  0.00  0.00    -0.453 OA
ENDROOT
BRANCH   3  26
ATOM     26  C   LIG A   1      -6.794   4.732 129.827  0.00  0.00    +0.101 C 
BRANCH  26  27
ATOM     27  C   LIG A   1      -5.512   4.579 129.048  0.00  0.00    +0.132 C 
ATOM     28  C   LIG A   1      -4.636   3.402 129.401  0.00  0.00    +0.086 C 
ATOM     29  O   LIG A   1      -5.199   5.373 128.165  0.00  0.00    -0.298 OA
ENDBRANCH  26  27
ENDBRANCH   3  26
TORSDOF 2
ENDMDL
MODEL 7
REMARK VINA RESULT:      -8.0      3.434      5.847
REMARK  Name = NuBBE_1141
REMARK  4 active torsions:
REMARK  status: ('A' for Active; 'I' for Inactive)
REMARK    1  A    between atoms: C_1  and  N_2
REMARK    2  A    between atoms: C_3  and  C_27
REMARK    3  A    between atoms: C_27  and  C_28
REMARK    4  A    between atoms: C_28  and  C_29
REMARK                            x       y       z     vdW  Elec       q    Type
REMARK                         _______ _______ _______ _____ _____    ______ ____
ROOT
ATOM      1  C   LIG A   1      -4.902   0.763 130.292  0.00  0.00    +0.130 C 
ATOM      2  N   LIG A   1      -6.076   0.119 129.737  0.00  0.00    -0.325 N 
ATOM      3  C   LIG A   1      -7.254   0.998 129.513  0.00  0.00    +0.111 C 
ATOM      4  C   LIG A   1      -7.862   0.659 128.167  0.00  0.00    -0.015 A 
ATOM      5  C   LIG A   1      -8.374   1.664 127.326  0.00  0.00    +0.055 A 
ATOM      6  C   LIG A   1      -8.913   1.280 126.120  0.00  0.00    +0.167 A 
ATOM      7  C   LIG A   1      -8.952  -0.038 125.739  0.00  0.00    +0.167 A 
ATOM      8  C   LIG A   1      -8.454  -1.045 126.541  0.00  0.00    +0.058 A 
ATOM      9  C   LIG A   1      -7.900  -0.706 127.791  0.00  0.00    -0.007 A 
ATOM     10  C   LIG A   1      -7.312  -1.696 128.723  0.00  0.00    +0.004 A 
ATOM     11  C   LIG A   1      -6.315  -1.272 129.675  0.00  0.00    +0.046 A 
ATOM     12  C   LIG A   1      -5.673  -2.277 130.501  0.00  0.00    +0.007 A 
ATOM     13  C   LIG A   1      -6.138  -3.634 130.404  0.00  0.00    -0.012 A 
ATOM     14  C   LIG A   1      -7.161  -3.979 129.525  0.00  0.00    +0.009 A 
ATOM     15  C   LIG A   1      -7.729  -3.032 128.689  0.00  0.00    +0.011 A 
ATOM     16  C   LIG A   1      -5.601  -4.673 131.186  0.00  0.00    +0.058 A 
ATOM     17  C   LIG A   1      -4.581  -4.386 132.054  0.00  0.00    +0.167 A 
ATOM     18  C   LIG A   1      -4.100  -3.116 132.175  0.00  0.00    +0.167 A 
ATOM     19  O   LIG A   1      -3.084  -3.028 133.074  0.00  0.00    -0.453 OA
ATOM     20  C   LIG A   1      -2.971  -4.406 133.489  0.00  0.00    +0.466 C 
ATOM     21  O   LIG A   1      -3.943  -5.270 132.864  0.00  0.00    -0.453 OA
ATOM     22  C   LIG A   1      -4.623  -2.066 131.442  0.00  0.00    +0.060 A 
ATOM     23  O   LIG A   1      -9.515  -0.209 124.514  0.00  0.00    -0.453 OA
ATOM     24  C   LIG A   1      -9.824   1.157 124.165  0.00  0.00    +0.466 C 
ATOM     25  O   LIG A   1      -9.448   2.107 125.185  0.00  0.00    -0.453 OA
ENDROOT
BRANCH   3  26
ATOM     26  C   LIG A   1      -8.243   0.862 130.679  0.00  0.00    +0.101 C 
BRANCH  26  27
ATOM     27  C   LIG A   1      -8.720   2.213 131.149  0.00  0.00    +0.132 C 
ATOM     28  C   LIG A   1      -9.696   2.228 132.301  0.00  0.00    +0.086 C 
ATOM     29  O   LIG A   1      -8.331   3.251 130.622  0.00  0.00    -0.298 OA
ENDBRANCH  26  27
ENDBRANCH   3  26
TORSDOF 2
ENDMDL
MODEL 8
REMARK VINA RESULT:      -7.9      6.663     10.088
REMARK  Name = NuBBE_1141
REMARK  4 active torsions:
REMARK  status: ('A' for Active; 'I' for Inactive)
REMARK    1  A    between atoms: C_1  and  N_2
REMARK    2  A    between atoms: C_3  and  C_27
REMARK    3  A    between atoms: C_27  and  C_28
REMARK    4  A    between atoms: C_28  and  C_29
REMARK                            x       y       z     vdW  Elec       q    Type
REMARK                         _______ _______ _______ _____ _____    ______ ____
ROOT
ATOM      1  C   LIG A   1      -4.429   8.008 130.042  0.00  0.00    +0.130 C 
ATOM      2  N   LIG A   1      -4.123   7.202 131.208  0.00  0.00    -0.325 N 
ATOM      3  C   LIG A   1      -2.776   6.573 131.226  0.00  0.00    +0.111 C 
ATOM      4  C   LIG A   1      -2.192   6.722 132.616  0.00  0.00    -0.015 A 
ATOM      5  C   LIG A   1      -0.824   6.992 132.805  0.00  0.00    +0.055 A 
ATOM      6  C   LIG A   1      -0.365   7.111 134.096  0.00  0.00    +0.167 A 
ATOM      7  C   LIG A   1      -1.206   6.975 135.172  0.00  0.00    +0.167 A 
ATOM      8  C   LIG A   1      -2.553   6.713 135.017  0.00  0.00    +0.058 A 
ATOM      9  C   LIG A   1      -3.072   6.572 133.716  0.00  0.00    -0.007 A 
ATOM     10  C   LIG A   1      -4.502   6.318 133.426  0.00  0.00    +0.004 A 
ATOM     11  C   LIG A   1      -5.052   6.715 132.154  0.00  0.00    +0.046 A 
ATOM     12  C   LIG A   1      -6.477   6.558 131.934  0.00  0.00    +0.007 A 
ATOM     13  C   LIG A   1      -7.255   5.914 132.959  0.00  0.00    -0.012 A 
ATOM     14  C   LIG A   1      -6.661   5.475 134.138  0.00  0.00    +0.009 A 
ATOM     15  C   LIG A   1      -5.313   5.684 134.376  0.00  0.00    +0.011 A 
ATOM     16  C   LIG A   1      -8.637   5.688 132.825  0.00  0.00    +0.058 A 
ATOM     17  C   LIG A   1      -9.270   6.117 131.689  0.00  0.00    +0.167 A 
ATOM     18  C   LIG A   1      -8.577   6.740 130.694  0.00  0.00    +0.167 A 
ATOM     19  O   LIG A   1      -9.374   7.103 129.654  0.00  0.00    -0.453 OA
ATOM     20  C   LIG A   1     -10.659   6.649 130.129  0.00  0.00    +0.466 C 
ATOM     21  O   LIG A   1     -10.593   5.993 131.411  0.00  0.00    -0.453 OA
ATOM     22  C   LIG A   1      -7.214   6.955 130.780  0.00  0.00    +0.060 A 
ATOM     23  O   LIG A   1      -0.563   7.135 136.359  0.00  0.00    -0.453 OA
ATOM     24  C   LIG A   1       0.783   7.391 135.905  0.00  0.00    +0.466 C 
ATOM     25  O   LIG A   1       0.915   7.373 134.468  0.00  0.00    -0.453 OA
ENDROOT
BRANCH   3  26
ATOM     26  C   LIG A   1      -2.869   5.114 130.758  0.00  0.00    +0.101 C 
BRANCH  26  27
ATOM     27  C   LIG A   1      -2.963   5.028 129.255  0.00  0.00    +0.132 C 
ATOM     28  C   LIG A   1      -4.040   4.135 128.689  0.00  0.00    +0.086 C 
ATOM     29  O   LIG A   1      -2.201   5.659 128.527  0.00  0.00    -0.298 OA
ENDBRANCH  26  27
ENDBRANCH   3  26
TORSDOF 2
ENDMDL
MODEL 9
REMARK VINA RESULT:      -7.9      2.980      4.943
REMARK  Name = NuBBE_1141
REMARK  4 active torsions:
REMARK  status: ('A' for Active; 'I' for Inactive)
REMARK    1  A    between atoms: C_1  and  N_2
REMARK    2  A    between atoms: C_3  and  C_27
REMARK    3  A    between atoms: C_27  and  C_28
REMARK    4  A    between atoms: C_28  and  C_29
REMARK                            x       y       z     vdW  Elec       q    Type
REMARK                         _______ _______ _______ _____ _____    ______ ____
ROOT
ATOM      1  C   LIG A   1      -5.982   1.494 128.156  0.00  0.00    +0.130 C 
ATOM      2  N   LIG A   1      -6.745   0.562 128.962  0.00  0.00    -0.325 N 
ATOM      3  C   LIG A   1      -6.747  -0.849 128.494  0.00  0.00    +0.111 C 
ATOM      4  C   LIG A   1      -6.571  -1.757 129.695  0.00  0.00    -0.015 A 
ATOM      5  C   LIG A   1      -5.783  -2.920 129.619  0.00  0.00    +0.055 A 
ATOM      6  C   LIG A   1      -5.673  -3.697 130.749  0.00  0.00    +0.167 A 
ATOM      7  C   LIG A   1      -6.304  -3.354 131.918  0.00  0.00    +0.167 A 
ATOM      8  C   LIG A   1      -7.080  -2.218 132.024  0.00  0.00    +0.058 A 
ATOM      9  C   LIG A   1      -7.234  -1.394 130.893  0.00  0.00    -0.007 A 
ATOM     10  C   LIG A   1      -8.020  -0.137 130.894  0.00  0.00    +0.004 A 
ATOM     11  C   LIG A   1      -7.708   0.897 129.939  0.00  0.00    +0.046 A 
ATOM     12  C   LIG A   1      -8.414   2.161 130.030  0.00  0.00    +0.007 A 
ATOM     13  C   LIG A   1      -9.467   2.282 131.004  0.00  0.00    -0.012 A 
ATOM     14  C   LIG A   1      -9.783   1.224 131.851  0.00  0.00    +0.009 A 
ATOM     15  C   LIG A   1      -9.065   0.040 131.808  0.00  0.00    +0.011 A 
ATOM     16  C   LIG A   1     -10.229   3.455 131.147  0.00  0.00    +0.058 A 
ATOM     17  C   LIG A   1      -9.944   4.530 130.347  0.00  0.00    +0.167 A 
ATOM     18  C   LIG A   1      -8.950   4.466 129.416  0.00  0.00    +0.167 A 
ATOM     19  O   LIG A   1      -8.808   5.631 128.727  0.00  0.00    -0.453 OA
ATOM     20  C   LIG A   1      -9.822   6.442 129.357  0.00  0.00    +0.466 C 
ATOM     21  O   LIG A   1     -10.569   5.735 130.368  0.00  0.00    -0.453 OA
ATOM     22  C   LIG A   1      -8.199   3.321 129.229  0.00  0.00    +0.060 A 
ATOM     23  O   LIG A   1      -6.064  -4.244 132.918  0.00  0.00    -0.453 OA
ATOM     24  C   LIG A   1      -5.204  -5.186 132.241  0.00  0.00    +0.466 C 
ATOM     25  O   LIG A   1      -4.956  -4.845 130.861  0.00  0.00    -0.453 OA
ENDROOT
BRANCH   3  26
ATOM     26  C   LIG A   1      -8.026  -1.138 127.695  0.00  0.00    +0.101 C 
BRANCH  26  27
ATOM     27  C   LIG A   1      -7.923  -2.450 126.959  0.00  0.00    +0.132 C 
ATOM     28  C   LIG A   1      -8.941  -3.509 127.308  0.00  0.00    +0.086 C 
ATOM     29  O   LIG A   1      -7.055  -2.646 126.113  0.00  0.00    -0.298 OA
ENDBRANCH  26  27
ENDBRANCH   3  26
TORSDOF 2
ENDMDL
