MODEL 1
REMARK VINA RESULT:      -7.4      0.000      0.000
REMARK  Name = NuBBE_955
REMARK  10 active torsions:
REMARK  status: ('A' for Active; 'I' for Inactive)
REMARK    1  A    between atoms: N_5  and  C_13
REMARK    2  A    between atoms: C_7  and  O_12
REMARK    3  A    between atoms: C_14  and  O_15
REMARK    4  A    between atoms: O_15  and  C_16
REMARK    5  A    between atoms: C_17  and  O_26
REMARK    6  A    between atoms: C_18  and  C_19
REMARK    7  A    between atoms: C_19  and  C_20
REMARK    8  A    between atoms: C_21  and  C_22
REMARK    9  A    between atoms: C_21  and  C_23
REMARK   10  A    between atoms: C_24  and  O_25
REMARK                            x       y       z     vdW  Elec       q    Type
REMARK                         _______ _______ _______ _____ _____    ______ ____
ROOT
ATOM      1  O   LIG A   1      -8.495   3.012 127.629  0.00  0.00    -0.286 OA
ATOM      2  C   LIG A   1      -8.462   2.676 128.817  0.00  0.00    +0.201 A 
ATOM      3  C   LIG A   1      -8.879   3.633 129.861  0.00  0.00    +0.091 A 
ATOM      4  C   LIG A   1      -8.982   3.184 131.191  0.00  0.00    +0.102 A 
ATOM      5  N   LIG A   1      -8.677   1.816 131.503  0.00  0.00    -0.337 N 
ATOM      6  C   LIG A   1      -8.048   0.966 130.542  0.00  0.00    +0.095 A 
ATOM      7  C   LIG A   1      -7.480  -0.270 130.890  0.00  0.00    +0.141 A 
ATOM      8  C   LIG A   1      -6.961  -1.140 129.931  0.00  0.00    +0.047 A 
ATOM      9  C   LIG A   1      -6.962  -0.768 128.588  0.00  0.00    +0.004 A 
ATOM     10  C   LIG A   1      -7.456   0.481 128.220  0.00  0.00    +0.014 A 
ATOM     11  C   LIG A   1      -7.980   1.342 129.198  0.00  0.00    +0.050 A 
ATOM     12  C   LIG A   1      -9.845   1.124 132.105  0.00  0.00    +0.149 C 
ATOM     13  C   LIG A   1      -9.365   4.122 132.190  0.00  0.00    +0.186 A 
ATOM     14  C   LIG A   1      -9.645   5.458 131.825  0.00  0.00    +0.168 A 
ATOM     15  C   LIG A   1      -9.511   5.906 130.495  0.00  0.00    +0.044 A 
ATOM     16  C   LIG A   1      -9.152   4.969 129.520  0.00  0.00    +0.137 A 
ENDROOT
BRANCH   7  17
ATOM     17  O   LIG A   1      -7.358  -0.639 132.202  0.00  0.00    -0.505 OA
ATOM     18  H   LIG A   1      -6.412  -0.519 132.418  0.00  0.00    +0.292 HD
ENDBRANCH   7  17
BRANCH  13  19
ATOM     19  O   LIG A   1      -9.336   3.652 133.486  0.00  0.00    -0.489 OA
ATOM     20  C   LIG A   1      -8.195   3.971 134.276  0.00  0.00    +0.277 C 
ENDBRANCH  13  19
BRANCH  16  21
ATOM     21  O   LIG A   1      -9.066   5.412 128.221  0.00  0.00    -0.506 OA
ATOM     22  H   LIG A   1      -9.576   4.793 127.649  0.00  0.00    +0.292 HD
ENDBRANCH  16  21
BRANCH  14  23
ATOM     23  O   LIG A   1     -10.021   6.357 132.789  0.00  0.00    -0.503 OA
ATOM     24  H   LIG A   1     -10.567   7.041 132.365  0.00  0.00    +0.292 HD
ENDBRANCH  14  23
BRANCH  15  25
ATOM     25  C   LIG A   1      -9.679   7.366 130.118  0.00  0.00    +0.069 C 
BRANCH  25  26
ATOM     26  C   LIG A   1     -11.108   7.741 129.822  0.00  0.00    -0.023 C 
ATOM     27  C   LIG A   1     -11.639   8.105 128.637  0.00  0.00    -0.079 C 
ATOM     28  C   LIG A   1     -10.882   8.217 127.341  0.00  0.00    +0.038 C 
ATOM     29  C   LIG A   1     -13.106   8.433 128.517  0.00  0.00    +0.038 C 
ENDBRANCH  25  26
ENDBRANCH  15  25
TORSDOF 6
ENDMDL
MODEL 2
REMARK VINA RESULT:      -7.0      5.923      8.924
REMARK  Name = NuBBE_955
REMARK  10 active torsions:
REMARK  status: ('A' for Active; 'I' for Inactive)
REMARK    1  A    between atoms: N_5  and  C_13
REMARK    2  A    between atoms: C_7  and  O_12
REMARK    3  A    between atoms: C_14  and  O_15
REMARK    4  A    between atoms: O_15  and  C_16
REMARK    5  A    between atoms: C_17  and  O_26
REMARK    6  A    between atoms: C_18  and  C_19
REMARK    7  A    between atoms: C_19  and  C_20
REMARK    8  A    between atoms: C_21  and  C_22
REMARK    9  A    between atoms: C_21  and  C_23
REMARK   10  A    between atoms: C_24  and  O_25
REMARK                            x       y       z     vdW  Elec       q    Type
REMARK                         _______ _______ _______ _____ _____    ______ ____
ROOT
ATOM      1  O   LIG A   1      -5.402   1.310 127.511  0.00  0.00    -0.286 OA
ATOM      2  C   LIG A   1      -6.131   1.328 126.515  0.00  0.00    +0.201 A 
ATOM      3  C   LIG A   1      -7.127   0.256 126.317  0.00  0.00    +0.091 A 
ATOM      4  C   LIG A   1      -8.051   0.374 125.262  0.00  0.00    +0.102 A 
ATOM      5  N   LIG A   1      -8.004   1.525 124.405  0.00  0.00    -0.337 N 
ATOM      6  C   LIG A   1      -6.900   2.430 124.449  0.00  0.00    +0.095 A 
ATOM      7  C   LIG A   1      -6.673   3.389 123.450  0.00  0.00    +0.141 A 
ATOM      8  C   LIG A   1      -5.654   4.337 123.553  0.00  0.00    +0.047 A 
ATOM      9  C   LIG A   1      -4.801   4.317 124.656  0.00  0.00    +0.004 A 
ATOM     10  C   LIG A   1      -4.957   3.334 125.628  0.00  0.00    +0.014 A 
ATOM     11  C   LIG A   1      -5.992   2.391 125.512  0.00  0.00    +0.050 A 
ATOM     12  C   LIG A   1      -9.281   2.281 124.441  0.00  0.00    +0.149 C 
ATOM     13  C   LIG A   1      -8.991  -0.676 125.070  0.00  0.00    +0.186 A 
ATOM     14  C   LIG A   1      -8.985  -1.788 125.942  0.00  0.00    +0.168 A 
ATOM     15  C   LIG A   1      -8.037  -1.913 126.978  0.00  0.00    +0.044 A 
ATOM     16  C   LIG A   1      -7.131  -0.864 127.167  0.00  0.00    +0.137 A 
ENDROOT
BRANCH   7  17
ATOM     17  O   LIG A   1      -7.413   3.389 122.299  0.00  0.00    -0.505 OA
ATOM     18  H   LIG A   1      -6.814   3.731 121.606  0.00  0.00    +0.292 HD
ENDBRANCH   7  17
BRANCH  13  19
ATOM     19  O   LIG A   1      -9.792  -0.558 123.954  0.00  0.00    -0.489 OA
ATOM     20  C   LIG A   1      -9.364  -1.214 122.766  0.00  0.00    +0.277 C 
ENDBRANCH  13  19
BRANCH  16  21
ATOM     21  O   LIG A   1      -6.240  -0.981 128.208  0.00  0.00    -0.506 OA
ATOM     22  H   LIG A   1      -6.294  -1.900 128.559  0.00  0.00    +0.292 HD
ENDBRANCH  16  21
BRANCH  14  23
ATOM     23  O   LIG A   1      -9.897  -2.795 125.759  0.00  0.00    -0.503 OA
ATOM     24  H   LIG A   1      -9.968  -3.292 126.592  0.00  0.00    +0.292 HD
ENDBRANCH  14  23
BRANCH  15  25
ATOM     25  C   LIG A   1      -7.939  -3.163 127.832  0.00  0.00    +0.069 C 
BRANCH  25  26
ATOM     26  C   LIG A   1      -8.085  -2.888 129.306  0.00  0.00    -0.023 C 
ATOM     27  C   LIG A   1      -7.296  -3.321 130.310  0.00  0.00    -0.079 C 
ATOM     28  C   LIG A   1      -6.083  -4.196 130.149  0.00  0.00    +0.038 C 
ATOM     29  C   LIG A   1      -7.583  -2.930 131.739  0.00  0.00    +0.038 C 
ENDBRANCH  25  26
ENDBRANCH  15  25
TORSDOF 6
ENDMDL
MODEL 3
REMARK VINA RESULT:      -7.0      2.872      4.978
REMARK  Name = NuBBE_955
REMARK  10 active torsions:
REMARK  status: ('A' for Active; 'I' for Inactive)
REMARK    1  A    between atoms: N_5  and  C_13
REMARK    2  A    between atoms: C_7  and  O_12
REMARK    3  A    between atoms: C_14  and  O_15
REMARK    4  A    between atoms: O_15  and  C_16
REMARK    5  A    between atoms: C_17  and  O_26
REMARK    6  A    between atoms: C_18  and  C_19
REMARK    7  A    between atoms: C_19  and  C_20
REMARK    8  A    between atoms: C_21  and  C_22
REMARK    9  A    between atoms: C_21  and  C_23
REMARK   10  A    between atoms: C_24  and  O_25
REMARK                            x       y       z     vdW  Elec       q    Type
REMARK                         _______ _______ _______ _____ _____    ______ ____
ROOT
ATOM      1  O   LIG A   1      -8.101   6.090 134.587  0.00  0.00    -0.286 OA
ATOM      2  C   LIG A   1      -7.519   5.661 133.586  0.00  0.00    +0.201 A 
ATOM      3  C   LIG A   1      -8.199   5.687 132.275  0.00  0.00    +0.091 A 
ATOM      4  C   LIG A   1      -7.466   5.340 131.124  0.00  0.00    +0.102 A 
ATOM      5  N   LIG A   1      -6.086   4.965 131.249  0.00  0.00    -0.337 N 
ATOM      6  C   LIG A   1      -5.506   4.710 132.529  0.00  0.00    +0.095 A 
ATOM      7  C   LIG A   1      -4.264   4.073 132.678  0.00  0.00    +0.141 A 
ATOM      8  C   LIG A   1      -3.658   3.921 133.925  0.00  0.00    +0.047 A 
ATOM      9  C   LIG A   1      -4.311   4.373 135.071  0.00  0.00    +0.004 A 
ATOM     10  C   LIG A   1      -5.575   4.945 134.962  0.00  0.00    +0.014 A 
ATOM     11  C   LIG A   1      -6.169   5.096 133.698  0.00  0.00    +0.050 A 
ATOM     12  C   LIG A   1      -5.206   5.869 130.465  0.00  0.00    +0.149 C 
ATOM     13  C   LIG A   1      -8.139   5.350 129.871  0.00  0.00    +0.186 A 
ATOM     14  C   LIG A   1      -9.501   5.720 129.811  0.00  0.00    +0.168 A 
ATOM     15  C   LIG A   1     -10.235   6.038 130.972  0.00  0.00    +0.044 A 
ATOM     16  C   LIG A   1      -9.557   6.043 132.196  0.00  0.00    +0.137 A 
ENDROOT
BRANCH   7  17
ATOM     17  O   LIG A   1      -3.628   3.519 131.601  0.00  0.00    -0.505 OA
ATOM     18  H   LIG A   1      -4.293   3.509 130.885  0.00  0.00    +0.292 HD
ENDBRANCH   7  17
BRANCH  13  19
ATOM     19  O   LIG A   1      -7.403   4.890 128.800  0.00  0.00    -0.489 OA
ATOM     20  C   LIG A   1      -7.580   3.531 128.415  0.00  0.00    +0.277 C 
ENDBRANCH  13  19
BRANCH  16  21
ATOM     21  O   LIG A   1     -10.274   6.396 133.314  0.00  0.00    -0.506 OA
ATOM     22  H   LIG A   1      -9.675   6.347 134.094  0.00  0.00    +0.292 HD
ENDBRANCH  16  21
BRANCH  14  23
ATOM     23  O   LIG A   1     -10.144   5.735 128.601  0.00  0.00    -0.503 OA
ATOM     24  H   LIG A   1     -10.273   4.814 128.316  0.00  0.00    +0.292 HD
ENDBRANCH  14  23
BRANCH  15  25
ATOM     25  C   LIG A   1     -11.727   6.306 130.933  0.00  0.00    +0.069 C 
BRANCH  25  26
ATOM     26  C   LIG A   1     -12.071   7.678 130.414  0.00  0.00    -0.023 C 
ATOM     27  C   LIG A   1     -12.818   7.991 129.335  0.00  0.00    -0.079 C 
ATOM     28  C   LIG A   1     -13.468   6.999 128.409  0.00  0.00    +0.038 C 
ATOM     29  C   LIG A   1     -13.078   9.430 128.969  0.00  0.00    +0.038 C 
ENDBRANCH  25  26
ENDBRANCH  15  25
TORSDOF 6
ENDMDL
MODEL 4
REMARK VINA RESULT:      -7.0      3.175      4.070
REMARK  Name = NuBBE_955
REMARK  10 active torsions:
REMARK  status: ('A' for Active; 'I' for Inactive)
REMARK    1  A    between atoms: N_5  and  C_13
REMARK    2  A    between atoms: C_7  and  O_12
REMARK    3  A    between atoms: C_14  and  O_15
REMARK    4  A    between atoms: O_15  and  C_16
REMARK    5  A    between atoms: C_17  and  O_26
REMARK    6  A    between atoms: C_18  and  C_19
REMARK    7  A    between atoms: C_19  and  C_20
REMARK    8  A    between atoms: C_21  and  C_22
REMARK    9  A    between atoms: C_21  and  C_23
REMARK   10  A    between atoms: C_24  and  O_25
REMARK                            x       y       z     vdW  Elec       q    Type
REMARK                         _______ _______ _______ _____ _____    ______ ____
ROOT
ATOM      1  O   LIG A   1      -6.771   7.456 130.658  0.00  0.00    -0.286 OA
ATOM      2  C   LIG A   1      -6.705   6.227 130.762  0.00  0.00    +0.201 A 
ATOM      3  C   LIG A   1      -7.941   5.421 130.715  0.00  0.00    +0.091 A 
ATOM      4  C   LIG A   1      -7.835   4.018 130.679  0.00  0.00    +0.102 A 
ATOM      5  N   LIG A   1      -6.537   3.405 130.694  0.00  0.00    -0.337 N 
ATOM      6  C   LIG A   1      -5.366   4.170 130.980  0.00  0.00    +0.095 A 
ATOM      7  C   LIG A   1      -4.133   3.572 131.284  0.00  0.00    +0.141 A 
ATOM      8  C   LIG A   1      -2.971   4.324 131.460  0.00  0.00    +0.047 A 
ATOM      9  C   LIG A   1      -3.028   5.715 131.375  0.00  0.00    +0.004 A 
ATOM     10  C   LIG A   1      -4.250   6.340 131.144  0.00  0.00    +0.014 A 
ATOM     11  C   LIG A   1      -5.409   5.568 130.964  0.00  0.00    +0.050 A 
ATOM     12  C   LIG A   1      -6.316   2.574 129.482  0.00  0.00    +0.149 C 
ATOM     13  C   LIG A   1      -9.035   3.253 130.655  0.00  0.00    +0.186 A 
ATOM     14  C   LIG A   1     -10.284   3.912 130.650  0.00  0.00    +0.168 A 
ATOM     15  C   LIG A   1     -10.382   5.317 130.716  0.00  0.00    +0.044 A 
ATOM     16  C   LIG A   1      -9.195   6.058 130.720  0.00  0.00    +0.137 A 
ENDROOT
BRANCH   7  17
ATOM     17  O   LIG A   1      -4.040   2.222 131.482  0.00  0.00    -0.505 OA
ATOM     18  H   LIG A   1      -3.881   1.841 130.596  0.00  0.00    +0.292 HD
ENDBRANCH   7  17
BRANCH  13  19
ATOM     19  O   LIG A   1      -8.868   1.887 130.737  0.00  0.00    -0.489 OA
ATOM     20  C   LIG A   1      -9.013   1.283 132.018  0.00  0.00    +0.277 C 
ENDBRANCH  13  19
BRANCH  16  21
ATOM     21  O   LIG A   1      -9.306   7.428 130.741  0.00  0.00    -0.506 OA
ATOM     22  H   LIG A   1      -8.633   7.802 130.127  0.00  0.00    +0.292 HD
ENDBRANCH  16  21
BRANCH  14  23
ATOM     23  O   LIG A   1     -11.438   3.172 130.620  0.00  0.00    -0.503 OA
ATOM     24  H   LIG A   1     -12.190   3.789 130.579  0.00  0.00    +0.292 HD
ENDBRANCH  14  23
BRANCH  15  25
ATOM     25  C   LIG A   1     -11.717   6.026 130.846  0.00  0.00    +0.069 C 
BRANCH  25  26
ATOM     26  C   LIG A   1     -12.387   6.277 129.520  0.00  0.00    -0.023 C 
ATOM     27  C   LIG A   1     -12.800   7.456 129.013  0.00  0.00    -0.079 C 
ATOM     28  C   LIG A   1     -12.673   8.790 129.697  0.00  0.00    +0.038 C 
ATOM     29  C   LIG A   1     -13.441   7.527 127.649  0.00  0.00    +0.038 C 
ENDBRANCH  25  26
ENDBRANCH  15  25
TORSDOF 6
ENDMDL
MODEL 5
REMARK VINA RESULT:      -7.0      5.700      7.230
REMARK  Name = NuBBE_955
REMARK  10 active torsions:
REMARK  status: ('A' for Active; 'I' for Inactive)
REMARK    1  A    between atoms: N_5  and  C_13
REMARK    2  A    between atoms: C_7  and  O_12
REMARK    3  A    between atoms: C_14  and  O_15
REMARK    4  A    between atoms: O_15  and  C_16
REMARK    5  A    between atoms: C_17  and  O_26
REMARK    6  A    between atoms: C_18  and  C_19
REMARK    7  A    between atoms: C_19  and  C_20
REMARK    8  A    between atoms: C_21  and  C_22
REMARK    9  A    between atoms: C_21  and  C_23
REMARK   10  A    between atoms: C_24  and  O_25
REMARK                            x       y       z     vdW  Elec       q    Type
REMARK                         _______ _______ _______ _____ _____    ______ ____
ROOT
ATOM      1  O   LIG A   1      -5.140  -0.758 128.210  0.00  0.00    -0.286 OA
ATOM      2  C   LIG A   1      -6.047  -0.752 127.372  0.00  0.00    +0.201 A 
ATOM      3  C   LIG A   1      -6.119   0.339 126.379  0.00  0.00    +0.091 A 
ATOM      4  C   LIG A   1      -7.064   0.249 125.339  0.00  0.00    +0.102 A 
ATOM      5  N   LIG A   1      -7.935  -0.890 125.270  0.00  0.00    -0.337 N 
ATOM      6  C   LIG A   1      -8.026  -1.813 126.357  0.00  0.00    +0.095 A 
ATOM      7  C   LIG A   1      -9.056  -2.762 126.453  0.00  0.00    +0.141 A 
ATOM      8  C   LIG A   1      -9.079  -3.726 127.461  0.00  0.00    +0.047 A 
ATOM      9  C   LIG A   1      -8.081  -3.734 128.433  0.00  0.00    +0.004 A 
ATOM     10  C   LIG A   1      -7.085  -2.762 128.405  0.00  0.00    +0.014 A 
ATOM     11  C   LIG A   1      -7.073  -1.802 127.379  0.00  0.00    +0.050 A 
ATOM     12  C   LIG A   1      -7.763  -1.628 123.992  0.00  0.00    +0.149 C 
ATOM     13  C   LIG A   1      -7.136   1.316 124.401  0.00  0.00    +0.186 A 
ATOM     14  C   LIG A   1      -6.258   2.416 124.524  0.00  0.00    +0.168 A 
ATOM     15  C   LIG A   1      -5.334   2.512 125.585  0.00  0.00    +0.044 A 
ATOM     16  C   LIG A   1      -5.260   1.447 126.489  0.00  0.00    +0.137 A 
ENDROOT
BRANCH   7  17
ATOM     17  O   LIG A   1     -10.115  -2.735 125.588  0.00  0.00    -0.505 OA
ATOM     18  H   LIG A   1      -9.826  -2.175 124.840  0.00  0.00    +0.292 HD
ENDBRANCH   7  17
BRANCH  13  19
ATOM     19  O   LIG A   1      -8.155   1.225 123.478  0.00  0.00    -0.489 OA
ATOM     20  C   LIG A   1      -9.359   1.934 123.755  0.00  0.00    +0.277 C 
ENDBRANCH  13  19
BRANCH  16  21
ATOM     21  O   LIG A   1      -4.326   1.536 127.494  0.00  0.00    -0.506 OA
ATOM     22  H   LIG A   1      -3.430   1.488 127.087  0.00  0.00    +0.292 HD
ENDBRANCH  16  21
BRANCH  14  23
ATOM     23  O   LIG A   1      -6.324   3.439 123.614  0.00  0.00    -0.503 OA
ATOM     24  H   LIG A   1      -6.726   4.208 124.055  0.00  0.00    +0.292 HD
ENDBRANCH  14  23
BRANCH  15  25
ATOM     25  C   LIG A   1      -4.482   3.748 125.800  0.00  0.00    +0.069 C 
BRANCH  25  26
ATOM     26  C   LIG A   1      -4.858   4.520 127.039  0.00  0.00    -0.023 C 
ATOM     27  C   LIG A   1      -4.037   4.995 127.998  0.00  0.00    -0.079 C 
ATOM     28  C   LIG A   1      -2.541   4.836 128.020  0.00  0.00    +0.038 C 
ATOM     29  C   LIG A   1      -4.587   5.768 129.170  0.00  0.00    +0.038 C 
ENDBRANCH  25  26
ENDBRANCH  15  25
TORSDOF 6
ENDMDL
MODEL 6
REMARK VINA RESULT:      -6.9      2.597      6.324
REMARK  Name = NuBBE_955
REMARK  10 active torsions:
REMARK  status: ('A' for Active; 'I' for Inactive)
REMARK    1  A    between atoms: N_5  and  C_13
REMARK    2  A    between atoms: C_7  and  O_12
REMARK    3  A    between atoms: C_14  and  O_15
REMARK    4  A    between atoms: O_15  and  C_16
REMARK    5  A    between atoms: C_17  and  O_26
REMARK    6  A    between atoms: C_18  and  C_19
REMARK    7  A    between atoms: C_19  and  C_20
REMARK    8  A    between atoms: C_21  and  C_22
REMARK    9  A    between atoms: C_21  and  C_23
REMARK   10  A    between atoms: C_24  and  O_25
REMARK                            x       y       z     vdW  Elec       q    Type
REMARK                         _______ _______ _______ _____ _____    ______ ____
ROOT
ATOM      1  O   LIG A   1      -9.382   6.231 127.348  0.00  0.00    -0.286 OA
ATOM      2  C   LIG A   1      -9.528   5.881 128.524  0.00  0.00    +0.201 A 
ATOM      3  C   LIG A   1      -8.632   4.858 129.100  0.00  0.00    +0.091 A 
ATOM      4  C   LIG A   1      -8.713   4.585 130.479  0.00  0.00    +0.102 A 
ATOM      5  N   LIG A   1      -9.661   5.297 131.288  0.00  0.00    -0.337 N 
ATOM      6  C   LIG A   1     -10.679   6.101 130.691  0.00  0.00    +0.095 A 
ATOM      7  C   LIG A   1     -11.784   6.575 131.416  0.00  0.00    +0.141 A 
ATOM      8  C   LIG A   1     -12.719   7.445 130.853  0.00  0.00    +0.047 A 
ATOM      9  C   LIG A   1     -12.588   7.830 129.519  0.00  0.00    +0.004 A 
ATOM     10  C   LIG A   1     -11.543   7.321 128.755  0.00  0.00    +0.014 A 
ATOM     11  C   LIG A   1     -10.607   6.452 129.339  0.00  0.00    +0.050 A 
ATOM     12  C   LIG A   1      -8.986   6.056 132.372  0.00  0.00    +0.149 C 
ATOM     13  C   LIG A   1      -7.858   3.583 131.016  0.00  0.00    +0.186 A 
ATOM     14  C   LIG A   1      -6.950   2.909 130.170  0.00  0.00    +0.168 A 
ATOM     15  C   LIG A   1      -6.896   3.168 128.785  0.00  0.00    +0.044 A 
ATOM     16  C   LIG A   1      -7.728   4.169 128.272  0.00  0.00    +0.137 A 
ENDROOT
BRANCH   7  17
ATOM     17  O   LIG A   1     -12.018   6.148 132.694  0.00  0.00    -0.505 OA
ATOM     18  H   LIG A   1     -12.844   5.627 132.646  0.00  0.00    +0.292 HD
ENDBRANCH   7  17
BRANCH  13  19
ATOM     19  O   LIG A   1      -8.064   3.280 132.346  0.00  0.00    -0.489 OA
ATOM     20  C   LIG A   1      -8.952   2.208 132.646  0.00  0.00    +0.277 C 
ENDBRANCH  13  19
BRANCH  16  21
ATOM     21  O   LIG A   1      -7.635   4.440 126.927  0.00  0.00    -0.506 OA
ATOM     22  H   LIG A   1      -8.436   4.078 126.483  0.00  0.00    +0.292 HD
ENDBRANCH  16  21
BRANCH  14  23
ATOM     23  O   LIG A   1      -6.123   1.949 130.693  0.00  0.00    -0.503 OA
ATOM     24  H   LIG A   1      -5.219   2.307 130.707  0.00  0.00    +0.292 HD
ENDBRANCH  14  23
BRANCH  15  25
ATOM     25  C   LIG A   1      -6.021   2.357 127.848  0.00  0.00    +0.069 C 
BRANCH  25  26
ATOM     26  C   LIG A   1      -4.572   2.768 127.885  0.00  0.00    -0.023 C 
ATOM     27  C   LIG A   1      -3.874   3.424 126.936  0.00  0.00    -0.079 C 
ATOM     28  C   LIG A   1      -4.423   3.883 125.613  0.00  0.00    +0.038 C 
ATOM     29  C   LIG A   1      -2.423   3.773 127.150  0.00  0.00    +0.038 C 
ENDBRANCH  25  26
ENDBRANCH  15  25
TORSDOF 6
ENDMDL
MODEL 7
REMARK VINA RESULT:      -6.9      4.106      5.676
REMARK  Name = NuBBE_955
REMARK  10 active torsions:
REMARK  status: ('A' for Active; 'I' for Inactive)
REMARK    1  A    between atoms: N_5  and  C_13
REMARK    2  A    between atoms: C_7  and  O_12
REMARK    3  A    between atoms: C_14  and  O_15
REMARK    4  A    between atoms: O_15  and  C_16
REMARK    5  A    between atoms: C_17  and  O_26
REMARK    6  A    between atoms: C_18  and  C_19
REMARK    7  A    between atoms: C_19  and  C_20
REMARK    8  A    between atoms: C_21  and  C_22
REMARK    9  A    between atoms: C_21  and  C_23
REMARK   10  A    between atoms: C_24  and  O_25
REMARK                            x       y       z     vdW  Elec       q    Type
REMARK                         _______ _______ _______ _____ _____    ______ ____
ROOT
ATOM      1  O   LIG A   1      -5.635   6.820 130.044  0.00  0.00    -0.286 OA
ATOM      2  C   LIG A   1      -5.544   6.598 131.255  0.00  0.00    +0.201 A 
ATOM      3  C   LIG A   1      -6.671   5.966 131.971  0.00  0.00    +0.091 A 
ATOM      4  C   LIG A   1      -6.491   5.580 133.313  0.00  0.00    +0.102 A 
ATOM      5  N   LIG A   1      -5.228   5.813 133.954  0.00  0.00    -0.337 N 
ATOM      6  C   LIG A   1      -4.232   6.634 133.341  0.00  0.00    +0.095 A 
ATOM      7  C   LIG A   1      -3.118   7.117 134.045  0.00  0.00    +0.141 A 
ATOM      8  C   LIG A   1      -2.099   7.830 133.414  0.00  0.00    +0.047 A 
ATOM      9  C   LIG A   1      -2.195   8.116 132.054  0.00  0.00    +0.004 A 
ATOM     10  C   LIG A   1      -3.322   7.712 131.344  0.00  0.00    +0.014 A 
ATOM     11  C   LIG A   1      -4.336   6.989 131.993  0.00  0.00    +0.050 A 
ATOM     12  C   LIG A   1      -4.617   4.544 134.427  0.00  0.00    +0.149 C 
ATOM     13  C   LIG A   1      -7.591   4.991 133.996  0.00  0.00    +0.186 A 
ATOM     14  C   LIG A   1      -8.813   4.794 133.316  0.00  0.00    +0.168 A 
ATOM     15  C   LIG A   1      -8.994   5.209 131.981  0.00  0.00    +0.044 A 
ATOM     16  C   LIG A   1      -7.899   5.770 131.314  0.00  0.00    +0.137 A 
ENDROOT
BRANCH   7  17
ATOM     17  O   LIG A   1      -3.023   6.955 135.400  0.00  0.00    -0.505 OA
ATOM     18  H   LIG A   1      -2.171   7.364 135.651  0.00  0.00    +0.292 HD
ENDBRANCH   7  17
BRANCH  13  19
ATOM     19  O   LIG A   1      -7.391   4.742 135.337  0.00  0.00    -0.489 OA
ATOM     20  C   LIG A   1      -7.659   5.800 136.250  0.00  0.00    +0.277 C 
ENDBRANCH  13  19
BRANCH  16  21
ATOM     21  O   LIG A   1      -8.077   6.132 130.000  0.00  0.00    -0.506 OA
ATOM     22  H   LIG A   1      -7.532   5.533 129.438  0.00  0.00    +0.292 HD
ENDBRANCH  16  21
BRANCH  14  23
ATOM     23  O   LIG A   1      -9.868   4.219 133.975  0.00  0.00    -0.503 OA
ATOM     24  H   LIG A   1     -10.050   3.358 133.559  0.00  0.00    +0.292 HD
ENDBRANCH  14  23
BRANCH  15  25
ATOM     25  C   LIG A   1     -10.339   5.124 131.286  0.00  0.00    +0.069 C 
BRANCH  25  26
ATOM     26  C   LIG A   1     -11.258   6.268 131.628  0.00  0.00    -0.023 C 
ATOM     27  C   LIG A   1     -12.191   6.842 130.842  0.00  0.00    -0.079 C 
ATOM     28  C   LIG A   1     -12.501   6.444 129.425  0.00  0.00    +0.038 C 
ATOM     29  C   LIG A   1     -13.042   7.976 131.357  0.00  0.00    +0.038 C 
ENDBRANCH  25  26
ENDBRANCH  15  25
TORSDOF 6
ENDMDL
MODEL 8
REMARK VINA RESULT:      -6.9      4.075      8.363
REMARK  Name = NuBBE_955
REMARK  10 active torsions:
REMARK  status: ('A' for Active; 'I' for Inactive)
REMARK    1  A    between atoms: N_5  and  C_13
REMARK    2  A    between atoms: C_7  and  O_12
REMARK    3  A    between atoms: C_14  and  O_15
REMARK    4  A    between atoms: O_15  and  C_16
REMARK    5  A    between atoms: C_17  and  O_26
REMARK    6  A    between atoms: C_18  and  C_19
REMARK    7  A    between atoms: C_19  and  C_20
REMARK    8  A    between atoms: C_21  and  C_22
REMARK    9  A    between atoms: C_21  and  C_23
REMARK   10  A    between atoms: C_24  and  O_25
REMARK                            x       y       z     vdW  Elec       q    Type
REMARK                         _______ _______ _______ _____ _____    ______ ____
ROOT
ATOM      1  O   LIG A   1      -8.701  -2.469 124.878  0.00  0.00    -0.286 OA
ATOM      2  C   LIG A   1      -8.613  -1.331 125.348  0.00  0.00    +0.201 A 
ATOM      3  C   LIG A   1      -8.238  -1.151 126.765  0.00  0.00    +0.091 A 
ATOM      4  C   LIG A   1      -7.992   0.151 127.242  0.00  0.00    +0.102 A 
ATOM      5  N   LIG A   1      -8.115   1.267 126.348  0.00  0.00    -0.337 N 
ATOM      6  C   LIG A   1      -8.707   1.114 125.057  0.00  0.00    +0.095 A 
ATOM      7  C   LIG A   1      -9.104   2.212 124.277  0.00  0.00    +0.141 A 
ATOM      8  C   LIG A   1      -9.584   2.058 122.976  0.00  0.00    +0.047 A 
ATOM      9  C   LIG A   1      -9.719   0.780 122.436  0.00  0.00    +0.004 A 
ATOM     10  C   LIG A   1      -9.399  -0.332 123.210  0.00  0.00    +0.014 A 
ATOM     11  C   LIG A   1      -8.911  -0.159 124.516  0.00  0.00    +0.050 A 
ATOM     12  C   LIG A   1      -6.836   2.015 126.234  0.00  0.00    +0.149 C 
ATOM     13  C   LIG A   1      -7.651   0.311 128.614  0.00  0.00    +0.186 A 
ATOM     14  C   LIG A   1      -7.553  -0.825 129.448  0.00  0.00    +0.168 A 
ATOM     15  C   LIG A   1      -7.829  -2.122 128.970  0.00  0.00    +0.044 A 
ATOM     16  C   LIG A   1      -8.144  -2.268 127.614  0.00  0.00    +0.137 A 
ENDROOT
BRANCH   7  17
ATOM     17  O   LIG A   1      -9.092   3.479 124.794  0.00  0.00    -0.505 OA
ATOM     18  H   LIG A   1      -9.441   4.051 124.083  0.00  0.00    +0.292 HD
ENDBRANCH   7  17
BRANCH  13  19
ATOM     19  O   LIG A   1      -7.536   1.615 129.047  0.00  0.00    -0.489 OA
ATOM     20  C   LIG A   1      -8.684   2.216 129.636  0.00  0.00    +0.277 C 
ENDBRANCH  13  19
BRANCH  16  21
ATOM     21  O   LIG A   1      -8.370  -3.543 127.152  0.00  0.00    -0.506 OA
ATOM     22  H   LIG A   1      -9.190  -3.885 127.579  0.00  0.00    +0.292 HD
ENDBRANCH  16  21
BRANCH  14  23
ATOM     23  O   LIG A   1      -7.217  -0.667 130.767  0.00  0.00    -0.503 OA
ATOM     24  H   LIG A   1      -8.031  -0.477 131.264  0.00  0.00    +0.292 HD
ENDBRANCH  14  23
BRANCH  15  25
ATOM     25  C   LIG A   1      -7.856  -3.329 129.887  0.00  0.00    +0.069 C 
BRANCH  25  26
ATOM     26  C   LIG A   1      -6.482  -3.833 130.246  0.00  0.00    -0.023 C 
ATOM     27  C   LIG A   1      -5.936  -3.940 131.475  0.00  0.00    -0.079 C 
ATOM     28  C   LIG A   1      -6.612  -3.560 132.764  0.00  0.00    +0.038 C 
ATOM     29  C   LIG A   1      -4.542  -4.487 131.653  0.00  0.00    +0.038 C 
ENDBRANCH  25  26
ENDBRANCH  15  25
TORSDOF 6
ENDMDL
MODEL 9
REMARK VINA RESULT:      -6.8      5.439      8.551
REMARK  Name = NuBBE_955
REMARK  10 active torsions:
REMARK  status: ('A' for Active; 'I' for Inactive)
REMARK    1  A    between atoms: N_5  and  C_13
REMARK    2  A    between atoms: C_7  and  O_12
REMARK    3  A    between atoms: C_14  and  O_15
REMARK    4  A    between atoms: O_15  and  C_16
REMARK    5  A    between atoms: C_17  and  O_26
REMARK    6  A    between atoms: C_18  and  C_19
REMARK    7  A    between atoms: C_19  and  C_20
REMARK    8  A    between atoms: C_21  and  C_22
REMARK    9  A    between atoms: C_21  and  C_23
REMARK   10  A    between atoms: C_24  and  O_25
REMARK                            x       y       z     vdW  Elec       q    Type
REMARK                         _______ _______ _______ _____ _____    ______ ____
ROOT
ATOM      1  O   LIG A   1      -9.094  -3.936 127.273  0.00  0.00    -0.286 OA
ATOM      2  C   LIG A   1      -8.462  -2.957 126.865  0.00  0.00    +0.201 A 
ATOM      3  C   LIG A   1      -7.719  -2.114 127.824  0.00  0.00    +0.091 A 
ATOM      4  C   LIG A   1      -6.881  -1.098 127.326  0.00  0.00    +0.102 A 
ATOM      5  N   LIG A   1      -6.772  -0.901 125.908  0.00  0.00    -0.337 N 
ATOM      6  C   LIG A   1      -7.667  -1.551 125.004  0.00  0.00    +0.095 A 
ATOM      7  C   LIG A   1      -7.782  -1.172 123.658  0.00  0.00    +0.141 A 
ATOM      8  C   LIG A   1      -8.581  -1.878 122.758  0.00  0.00    +0.047 A 
ATOM      9  C   LIG A   1      -9.325  -2.970 123.203  0.00  0.00    +0.004 A 
ATOM     10  C   LIG A   1      -9.286  -3.326 124.548  0.00  0.00    +0.014 A 
ATOM     11  C   LIG A   1      -8.472  -2.608 125.439  0.00  0.00    +0.050 A 
ATOM     12  C   LIG A   1      -5.371  -1.070 125.443  0.00  0.00    +0.149 C 
ATOM     13  C   LIG A   1      -6.187  -0.280 128.260  0.00  0.00    +0.186 A 
ATOM     14  C   LIG A   1      -6.340  -0.516 129.645  0.00  0.00    +0.168 A 
ATOM     15  C   LIG A   1      -7.203  -1.516 130.136  0.00  0.00    +0.044 A 
ATOM     16  C   LIG A   1      -7.865  -2.326 129.206  0.00  0.00    +0.137 A 
ENDROOT
BRANCH   7  17
ATOM     17  O   LIG A   1      -7.156  -0.049 123.190  0.00  0.00    -0.505 OA
ATOM     18  H   LIG A   1      -6.935  -0.244 122.259  0.00  0.00    +0.292 HD
ENDBRANCH   7  17
BRANCH  13  19
ATOM     19  O   LIG A   1      -5.475   0.768 127.717  0.00  0.00    -0.489 OA
ATOM     20  C   LIG A   1      -6.113   2.040 127.666  0.00  0.00    +0.277 C 
ENDBRANCH  13  19
BRANCH  16  21
ATOM     21  O   LIG A   1      -8.671  -3.325 129.699  0.00  0.00    -0.506 OA
ATOM     22  H   LIG A   1      -8.874  -3.948 128.964  0.00  0.00    +0.292 HD
ENDBRANCH  16  21
BRANCH  14  23
ATOM     23  O   LIG A   1      -5.664   0.269 130.542  0.00  0.00    -0.503 OA
ATOM     24  H   LIG A   1      -4.935   0.708 130.070  0.00  0.00    +0.292 HD
ENDBRANCH  14  23
BRANCH  15  25
ATOM     25  C   LIG A   1      -7.475  -1.688 131.618  0.00  0.00    +0.069 C 
BRANCH  25  26
ATOM     26  C   LIG A   1      -6.677  -2.803 132.243  0.00  0.00    -0.023 C 
ATOM     27  C   LIG A   1      -7.009  -3.563 133.306  0.00  0.00    -0.079 C 
ATOM     28  C   LIG A   1      -8.279  -3.437 134.103  0.00  0.00    +0.038 C 
ATOM     29  C   LIG A   1      -6.090  -4.656 133.790  0.00  0.00    +0.038 C 
ENDBRANCH  25  26
ENDBRANCH  15  25
TORSDOF 6
ENDMDL
