MODEL 1
REMARK VINA RESULT:      -7.5      0.000      0.000
REMARK  Name = NuBBE_2072
REMARK  3 active torsions:
REMARK  status: ('A' for Active; 'I' for Inactive)
REMARK    1  A    between atoms: C_3  and  C_4
REMARK    2  A    between atoms: C_5  and  O_6
REMARK    3  A    between atoms: C_16  and  O_18
REMARK                            x       y       z     vdW  Elec       q    Type
REMARK                         _______ _______ _______ _____ _____    ______ ____
ROOT
ATOM      1  O   LIG A   1     -10.313  -0.385 122.448  0.00  0.00    -0.250 OA
ATOM      2  C   LIG A   1      -9.273  -0.407 123.138  0.00  0.00    +0.319 C 
ATOM      3  C   LIG A   1      -8.546  -1.596 123.680  0.00  0.00    +0.125 C 
ATOM      4  C   LIG A   1      -7.692  -1.892 122.384  0.00  0.00    +0.029 C 
ATOM      5  C   LIG A   1      -8.969  -2.942 124.318  0.00  0.00    +0.183 C 
ATOM      6  C   LIG A   1      -9.225  -3.221 125.829  0.00  0.00    +0.066 C 
ATOM      7  C   LIG A   1      -8.200  -2.526 126.715  0.00  0.00    +0.015 C 
ATOM      8  C   LIG A   1      -7.180  -1.784 125.802  0.00  0.00    +0.005 C 
ATOM      9  C   LIG A   1      -6.626  -2.976 124.928  0.00  0.00    +0.170 C 
ATOM     10  O   LIG A   1      -7.719  -3.711 124.230  0.00  0.00    -0.347 OA
ATOM     11  C   LIG A   1      -6.104  -0.960 126.594  0.00  0.00    +0.003 C 
ATOM     12  C   LIG A   1      -6.123  -1.310 128.099  0.00  0.00    +0.004 C 
ATOM     13  C   LIG A   1      -5.270  -0.473 129.035  0.00  0.00    +0.003 C 
ATOM     14  C   LIG A   1      -5.138   0.997 128.672  0.00  0.00    +0.031 C 
ATOM     15  C   LIG A   1      -5.110   1.304 127.173  0.00  0.00    +0.118 C 
ATOM     16  C   LIG A   1      -6.257   0.585 126.444  0.00  0.00    +0.025 C 
ATOM     17  C   LIG A   1      -6.459   1.009 124.960  0.00  0.00    +0.051 C 
ATOM     18  C   LIG A   1      -7.855   0.547 124.596  0.00  0.00    +0.182 C 
ATOM     19  O   LIG A   1      -8.435   0.701 123.312  0.00  0.00    -0.461 OA
ATOM     20  C   LIG A   1      -8.079  -0.890 124.931  0.00  0.00    +0.060 C 
ENDROOT
BRANCH   5  21
ATOM     21  O   LIG A   1     -10.106  -3.439 123.652  0.00  0.00    -0.364 OA
ATOM     22  H   LIG A   1      -9.747  -3.979 122.917  0.00  0.00    +0.213 HD
ENDBRANCH   5  21
BRANCH  15  23
ATOM     23  O   LIG A   1      -5.260   2.716 127.056  0.00  0.00    -0.392 OA
ATOM     24  H   LIG A   1      -5.065   2.969 126.138  0.00  0.00    +0.210 HD
ENDBRANCH  15  23
TORSDOF 2
ENDMDL
MODEL 2
REMARK VINA RESULT:      -7.4      2.060      2.524
REMARK  Name = NuBBE_2072
REMARK  3 active torsions:
REMARK  status: ('A' for Active; 'I' for Inactive)
REMARK    1  A    between atoms: C_3  and  C_4
REMARK    2  A    between atoms: C_5  and  O_6
REMARK    3  A    between atoms: C_16  and  O_18
REMARK                            x       y       z     vdW  Elec       q    Type
REMARK                         _______ _______ _______ _____ _____    ______ ____
ROOT
ATOM      1  O   LIG A   1     -10.513   1.240 123.822  0.00  0.00    -0.250 OA
ATOM      2  C   LIG A   1      -9.687   0.830 124.664  0.00  0.00    +0.319 C 
ATOM      3  C   LIG A   1      -8.775  -0.351 124.568  0.00  0.00    +0.125 C 
ATOM      4  C   LIG A   1      -7.613   0.382 123.786  0.00  0.00    +0.029 C 
ATOM      5  C   LIG A   1      -8.906  -1.796 124.028  0.00  0.00    +0.183 C 
ATOM      6  C   LIG A   1      -9.388  -3.049 124.819  0.00  0.00    +0.066 C 
ATOM      7  C   LIG A   1      -8.830  -3.073 126.236  0.00  0.00    +0.015 C 
ATOM      8  C   LIG A   1      -7.905  -1.834 126.424  0.00  0.00    +0.005 C 
ATOM      9  C   LIG A   1      -6.848  -2.064 125.275  0.00  0.00    +0.170 C 
ATOM     10  O   LIG A   1      -7.496  -2.202 123.940  0.00  0.00    -0.347 OA
ATOM     11  C   LIG A   1      -7.319  -1.697 127.874  0.00  0.00    +0.003 C 
ATOM     12  C   LIG A   1      -7.557  -2.979 128.702  0.00  0.00    +0.004 C 
ATOM     13  C   LIG A   1      -7.214  -2.947 130.180  0.00  0.00    +0.003 C 
ATOM     14  C   LIG A   1      -7.449  -1.620 130.883  0.00  0.00    +0.031 C 
ATOM     15  C   LIG A   1      -7.191  -0.372 130.037  0.00  0.00    +0.118 C 
ATOM     16  C   LIG A   1      -7.888  -0.482 128.671  0.00  0.00    +0.025 C 
ATOM     17  C   LIG A   1      -7.882   0.825 127.824  0.00  0.00    +0.051 C 
ATOM     18  C   LIG A   1      -8.965   0.634 126.783  0.00  0.00    +0.182 C 
ATOM     19  O   LIG A   1      -9.274   1.579 125.773  0.00  0.00    -0.461 OA
ATOM     20  C   LIG A   1      -8.819  -0.657 126.046  0.00  0.00    +0.060 C 
ENDROOT
BRANCH   5  21
ATOM     21  O   LIG A   1      -9.674  -1.787 122.848  0.00  0.00    -0.364 OA
ATOM     22  H   LIG A   1      -9.156  -1.241 122.219  0.00  0.00    +0.213 HD
ENDBRANCH   5  21
BRANCH  15  23
ATOM     23  O   LIG A   1      -7.724   0.724 130.775  0.00  0.00    -0.392 OA
ATOM     24  H   LIG A   1      -7.770   0.469 131.712  0.00  0.00    +0.210 HD
ENDBRANCH  15  23
TORSDOF 2
ENDMDL
MODEL 3
REMARK VINA RESULT:      -7.4      1.721      3.630
REMARK  Name = NuBBE_2072
REMARK  3 active torsions:
REMARK  status: ('A' for Active; 'I' for Inactive)
REMARK    1  A    between atoms: C_3  and  C_4
REMARK    2  A    between atoms: C_5  and  O_6
REMARK    3  A    between atoms: C_16  and  O_18
REMARK                            x       y       z     vdW  Elec       q    Type
REMARK                         _______ _______ _______ _____ _____    ______ ____
ROOT
ATOM      1  O   LIG A   1      -6.908  -3.848 124.311  0.00  0.00    -0.250 OA
ATOM      2  C   LIG A   1      -6.824  -2.720 124.839  0.00  0.00    +0.319 C 
ATOM      3  C   LIG A   1      -7.907  -1.708 125.038  0.00  0.00    +0.125 C 
ATOM      4  C   LIG A   1      -8.461  -2.302 126.394  0.00  0.00    +0.029 C 
ATOM      5  C   LIG A   1      -9.100  -1.199 124.192  0.00  0.00    +0.183 C 
ATOM      6  C   LIG A   1      -9.084  -0.027 123.166  0.00  0.00    +0.066 C 
ATOM      7  C   LIG A   1      -8.261   1.153 123.666  0.00  0.00    +0.015 C 
ATOM      8  C   LIG A   1      -7.727   0.815 125.089  0.00  0.00    +0.005 C 
ATOM      9  C   LIG A   1      -9.075   0.550 125.867  0.00  0.00    +0.170 C 
ATOM     10  O   LIG A   1      -9.901  -0.502 125.209  0.00  0.00    -0.347 OA
ATOM     11  C   LIG A   1      -6.795   1.923 125.695  0.00  0.00    +0.003 C 
ATOM     12  C   LIG A   1      -6.856   3.226 124.866  0.00  0.00    +0.004 C 
ATOM     13  C   LIG A   1      -5.879   4.336 125.210  0.00  0.00    +0.003 C 
ATOM     14  C   LIG A   1      -4.507   3.884 125.682  0.00  0.00    +0.031 C 
ATOM     15  C   LIG A   1      -4.487   2.598 126.511  0.00  0.00    +0.118 C 
ATOM     16  C   LIG A   1      -5.302   1.490 125.825  0.00  0.00    +0.025 C 
ATOM     17  C   LIG A   1      -5.159   0.078 126.465  0.00  0.00    +0.051 C 
ATOM     18  C   LIG A   1      -5.647  -0.893 125.409  0.00  0.00    +0.182 C 
ATOM     19  O   LIG A   1      -5.723  -2.296 125.593  0.00  0.00    -0.461 OA
ATOM     20  C   LIG A   1      -6.991  -0.519 124.877  0.00  0.00    +0.060 C 
ENDROOT
BRANCH   5  21
ATOM     21  O   LIG A   1      -9.685  -2.281 123.508  0.00  0.00    -0.364 OA
ATOM     22  H   LIG A   1      -9.223  -3.073 123.855  0.00  0.00    +0.213 HD
ENDBRANCH   5  21
BRANCH  15  23
ATOM     23  O   LIG A   1      -3.118   2.214 126.611  0.00  0.00    -0.392 OA
ATOM     24  H   LIG A   1      -3.042   1.283 126.343  0.00  0.00    +0.210 HD
ENDBRANCH  15  23
TORSDOF 2
ENDMDL
MODEL 4
REMARK VINA RESULT:      -7.3      2.516      4.740
REMARK  Name = NuBBE_2072
REMARK  3 active torsions:
REMARK  status: ('A' for Active; 'I' for Inactive)
REMARK    1  A    between atoms: C_3  and  C_4
REMARK    2  A    between atoms: C_5  and  O_6
REMARK    3  A    between atoms: C_16  and  O_18
REMARK                            x       y       z     vdW  Elec       q    Type
REMARK                         _______ _______ _______ _____ _____    ______ ____
ROOT
ATOM      1  O   LIG A   1      -8.650   4.818 125.641  0.00  0.00    -0.250 OA
ATOM      2  C   LIG A   1      -8.272   3.630 125.702  0.00  0.00    +0.319 C 
ATOM      3  C   LIG A   1      -7.834   2.739 124.584  0.00  0.00    +0.125 C 
ATOM      4  C   LIG A   1      -6.328   3.216 124.552  0.00  0.00    +0.029 C 
ATOM      5  C   LIG A   1      -8.309   2.489 123.131  0.00  0.00    +0.183 C 
ATOM      6  C   LIG A   1      -9.386   1.465 122.664  0.00  0.00    +0.066 C 
ATOM      7  C   LIG A   1      -9.268   0.141 123.407  0.00  0.00    +0.015 C 
ATOM      8  C   LIG A   1      -8.057   0.227 124.381  0.00  0.00    +0.005 C 
ATOM      9  C   LIG A   1      -6.880   0.550 123.380  0.00  0.00    +0.170 C 
ATOM     10  O   LIG A   1      -7.157   1.769 122.569  0.00  0.00    -0.347 OA
ATOM     11  C   LIG A   1      -7.867  -1.054 125.269  0.00  0.00    +0.003 C 
ATOM     12  C   LIG A   1      -8.744  -2.223 124.767  0.00  0.00    +0.004 C 
ATOM     13  C   LIG A   1      -8.816  -3.477 125.619  0.00  0.00    +0.003 C 
ATOM     14  C   LIG A   1      -8.755  -3.258 127.121  0.00  0.00    +0.031 C 
ATOM     15  C   LIG A   1      -7.867  -2.101 127.582  0.00  0.00    +0.118 C 
ATOM     16  C   LIG A   1      -8.169  -0.824 126.781  0.00  0.00    +0.025 C 
ATOM     17  C   LIG A   1      -7.487   0.467 127.322  0.00  0.00    +0.051 C 
ATOM     18  C   LIG A   1      -8.252   1.617 126.699  0.00  0.00    +0.182 C 
ATOM     19  O   LIG A   1      -7.935   2.984 126.898  0.00  0.00    -0.461 OA
ATOM     20  C   LIG A   1      -8.372   1.478 125.218  0.00  0.00    +0.060 C 
ENDROOT
BRANCH   5  21
ATOM     21  O   LIG A   1      -8.684   3.713 122.544  0.00  0.00    -0.364 OA
ATOM     22  H   LIG A   1      -9.263   3.461 121.795  0.00  0.00    +0.213 HD
ENDBRANCH   5  21
BRANCH  15  23
ATOM     23  O   LIG A   1      -8.163  -1.900 128.962  0.00  0.00    -0.392 OA
ATOM     24  H   LIG A   1      -8.516  -2.729 129.323  0.00  0.00    +0.210 HD
ENDBRANCH  15  23
TORSDOF 2
ENDMDL
MODEL 5
REMARK VINA RESULT:      -7.1      1.675      5.037
REMARK  Name = NuBBE_2072
REMARK  3 active torsions:
REMARK  status: ('A' for Active; 'I' for Inactive)
REMARK    1  A    between atoms: C_3  and  C_4
REMARK    2  A    between atoms: C_5  and  O_6
REMARK    3  A    between atoms: C_16  and  O_18
REMARK                            x       y       z     vdW  Elec       q    Type
REMARK                         _______ _______ _______ _____ _____    ______ ____
ROOT
ATOM      1  O   LIG A   1      -6.273   3.098 122.280  0.00  0.00    -0.250 OA
ATOM      2  C   LIG A   1      -6.856   2.418 123.150  0.00  0.00    +0.319 C 
ATOM      3  C   LIG A   1      -6.775   2.550 124.637  0.00  0.00    +0.125 C 
ATOM      4  C   LIG A   1      -7.875   3.675 124.779  0.00  0.00    +0.029 C 
ATOM      5  C   LIG A   1      -5.639   2.831 125.652  0.00  0.00    +0.183 C 
ATOM      6  C   LIG A   1      -4.722   1.779 126.343  0.00  0.00    +0.066 C 
ATOM      7  C   LIG A   1      -5.500   0.539 126.765  0.00  0.00    +0.015 C 
ATOM      8  C   LIG A   1      -6.999   0.750 126.400  0.00  0.00    +0.005 C 
ATOM      9  C   LIG A   1      -7.329   2.066 127.207  0.00  0.00    +0.170 C 
ATOM     10  O   LIG A   1      -6.406   3.182 126.856  0.00  0.00    -0.347 OA
ATOM     11  C   LIG A   1      -7.907  -0.491 126.717  0.00  0.00    +0.003 C 
ATOM     12  C   LIG A   1      -7.162  -1.528 127.587  0.00  0.00    +0.004 C 
ATOM     13  C   LIG A   1      -7.833  -2.867 127.832  0.00  0.00    +0.003 C 
ATOM     14  C   LIG A   1      -8.668  -3.407 126.683  0.00  0.00    +0.031 C 
ATOM     15  C   LIG A   1      -9.402  -2.352 125.852  0.00  0.00    +0.118 C 
ATOM     16  C   LIG A   1      -8.452  -1.213 125.447  0.00  0.00    +0.025 C 
ATOM     17  C   LIG A   1      -9.036  -0.209 124.410  0.00  0.00    +0.051 C 
ATOM     18  C   LIG A   1      -7.838   0.517 123.834  0.00  0.00    +0.182 C 
ATOM     19  O   LIG A   1      -7.922   1.554 122.872  0.00  0.00    -0.461 OA
ATOM     20  C   LIG A   1      -6.950   1.073 124.898  0.00  0.00    +0.060 C 
ENDROOT
BRANCH   5  21
ATOM     21  O   LIG A   1      -4.760   3.792 125.116  0.00  0.00    -0.364 OA
ATOM     22  H   LIG A   1      -5.174   4.062 124.270  0.00  0.00    +0.213 HD
ENDBRANCH   5  21
BRANCH  15  23
ATOM     23  O   LIG A   1      -9.885  -3.028 124.693  0.00  0.00    -0.392 OA
ATOM     24  H   LIG A   1      -9.130  -3.449 124.248  0.00  0.00    +0.210 HD
ENDBRANCH  15  23
TORSDOF 2
ENDMDL
MODEL 6
REMARK VINA RESULT:      -7.1      1.887      3.106
REMARK  Name = NuBBE_2072
REMARK  3 active torsions:
REMARK  status: ('A' for Active; 'I' for Inactive)
REMARK    1  A    between atoms: C_3  and  C_4
REMARK    2  A    between atoms: C_5  and  O_6
REMARK    3  A    between atoms: C_16  and  O_18
REMARK                            x       y       z     vdW  Elec       q    Type
REMARK                         _______ _______ _______ _____ _____    ______ ____
ROOT
ATOM      1  O   LIG A   1      -9.741  -2.974 123.837  0.00  0.00    -0.250 OA
ATOM      2  C   LIG A   1      -8.858  -2.098 123.942  0.00  0.00    +0.319 C 
ATOM      3  C   LIG A   1      -7.749  -2.017 124.942  0.00  0.00    +0.125 C 
ATOM      4  C   LIG A   1      -6.735  -2.946 124.162  0.00  0.00    +0.029 C 
ATOM      5  C   LIG A   1      -7.617  -2.299 126.459  0.00  0.00    +0.183 C 
ATOM      6  C   LIG A   1      -7.869  -1.292 127.621  0.00  0.00    +0.066 C 
ATOM      7  C   LIG A   1      -7.320   0.092 127.300  0.00  0.00    +0.015 C 
ATOM      8  C   LIG A   1      -6.632   0.039 125.904  0.00  0.00    +0.005 C 
ATOM      9  C   LIG A   1      -5.548  -1.084 126.139  0.00  0.00    +0.170 C 
ATOM     10  O   LIG A   1      -6.157  -2.356 126.618  0.00  0.00    -0.347 OA
ATOM     11  C   LIG A   1      -6.084   1.427 125.416  0.00  0.00    +0.003 C 
ATOM     12  C   LIG A   1      -6.091   2.468 126.557  0.00  0.00    +0.004 C 
ATOM     13  C   LIG A   1      -5.762   3.909 126.210  0.00  0.00    +0.003 C 
ATOM     14  C   LIG A   1      -6.234   4.382 124.845  0.00  0.00    +0.031 C 
ATOM     15  C   LIG A   1      -6.201   3.327 123.736  0.00  0.00    +0.118 C 
ATOM     16  C   LIG A   1      -6.863   2.020 124.202  0.00  0.00    +0.025 C 
ATOM     17  C   LIG A   1      -7.089   0.963 123.082  0.00  0.00    +0.051 C 
ATOM     18  C   LIG A   1      -8.118   0.001 123.639  0.00  0.00    +0.182 C 
ATOM     19  O   LIG A   1      -8.589  -1.146 122.952  0.00  0.00    -0.461 OA
ATOM     20  C   LIG A   1      -7.741  -0.508 124.990  0.00  0.00    +0.060 C 
ENDROOT
BRANCH   5  21
ATOM     21  O   LIG A   1      -8.371  -3.441 126.790  0.00  0.00    -0.364 OA
ATOM     22  H   LIG A   1      -8.901  -3.630 125.987  0.00  0.00    +0.213 HD
ENDBRANCH   5  21
BRANCH  15  23
ATOM     23  O   LIG A   1      -6.924   3.883 122.640  0.00  0.00    -0.392 OA
ATOM     24  H   LIG A   1      -7.873   3.748 122.800  0.00  0.00    +0.210 HD
ENDBRANCH  15  23
TORSDOF 2
ENDMDL
MODEL 7
REMARK VINA RESULT:      -7.0      2.823      6.021
REMARK  Name = NuBBE_2072
REMARK  3 active torsions:
REMARK  status: ('A' for Active; 'I' for Inactive)
REMARK    1  A    between atoms: C_3  and  C_4
REMARK    2  A    between atoms: C_5  and  O_6
REMARK    3  A    between atoms: C_16  and  O_18
REMARK                            x       y       z     vdW  Elec       q    Type
REMARK                         _______ _______ _______ _____ _____    ______ ____
ROOT
ATOM      1  O   LIG A   1      -8.144  -2.310 131.248  0.00  0.00    -0.250 OA
ATOM      2  C   LIG A   1      -7.870  -2.587 130.062  0.00  0.00    +0.319 C 
ATOM      3  C   LIG A   1      -6.545  -2.505 129.374  0.00  0.00    +0.125 C 
ATOM      4  C   LIG A   1      -6.019  -3.925 129.826  0.00  0.00    +0.029 C 
ATOM      5  C   LIG A   1      -5.361  -1.507 129.391  0.00  0.00    +0.183 C 
ATOM      6  C   LIG A   1      -5.182  -0.255 128.482  0.00  0.00    +0.066 C 
ATOM      7  C   LIG A   1      -5.607  -0.532 127.045  0.00  0.00    +0.015 C 
ATOM      8  C   LIG A   1      -6.050  -2.021 126.941  0.00  0.00    +0.005 C 
ATOM      9  C   LIG A   1      -4.742  -2.765 127.417  0.00  0.00    +0.170 C 
ATOM     10  O   LIG A   1      -4.298  -2.306 128.764  0.00  0.00    -0.347 OA
ATOM     11  C   LIG A   1      -6.586  -2.423 125.521  0.00  0.00    +0.003 C 
ATOM     12  C   LIG A   1      -6.278  -1.331 124.472  0.00  0.00    +0.004 C 
ATOM     13  C   LIG A   1      -6.885  -1.479 123.089  0.00  0.00    +0.003 C 
ATOM     14  C   LIG A   1      -8.267  -2.110 123.040  0.00  0.00    +0.031 C 
ATOM     15  C   LIG A   1      -8.531  -3.197 124.084  0.00  0.00    +0.118 C 
ATOM     16  C   LIG A   1      -8.116  -2.723 125.486  0.00  0.00    +0.025 C 
ATOM     17  C   LIG A   1      -8.553  -3.658 126.652  0.00  0.00    +0.051 C 
ATOM     18  C   LIG A   1      -8.456  -2.812 127.904  0.00  0.00    +0.182 C 
ATOM     19  O   LIG A   1      -8.731  -3.289 129.210  0.00  0.00    -0.461 OA
ATOM     20  C   LIG A   1      -7.128  -2.141 128.030  0.00  0.00    +0.060 C 
ENDROOT
BRANCH   5  21
ATOM     21  O   LIG A   1      -5.159  -1.041 130.705  0.00  0.00    -0.364 OA
ATOM     22  H   LIG A   1      -5.081  -1.854 131.246  0.00  0.00    +0.213 HD
ENDBRANCH   5  21
BRANCH  15  23
ATOM     23  O   LIG A   1      -9.933  -3.450 124.044  0.00  0.00    -0.392 OA
ATOM     24  H   LIG A   1     -10.151  -4.081 124.751  0.00  0.00    +0.210 HD
ENDBRANCH  15  23
TORSDOF 2
ENDMDL
MODEL 8
REMARK VINA RESULT:      -6.9      8.644      9.943
REMARK  Name = NuBBE_2072
REMARK  3 active torsions:
REMARK  status: ('A' for Active; 'I' for Inactive)
REMARK    1  A    between atoms: C_3  and  C_4
REMARK    2  A    between atoms: C_5  and  O_6
REMARK    3  A    between atoms: C_16  and  O_18
REMARK                            x       y       z     vdW  Elec       q    Type
REMARK                         _______ _______ _______ _____ _____    ______ ____
ROOT
ATOM      1  O   LIG A   1     -11.092   6.366 132.288  0.00  0.00    -0.250 OA
ATOM      2  C   LIG A   1      -9.898   6.183 131.974  0.00  0.00    +0.319 C 
ATOM      3  C   LIG A   1      -9.002   5.049 132.359  0.00  0.00    +0.125 C 
ATOM      4  C   LIG A   1      -9.455   4.063 131.211  0.00  0.00    +0.029 C 
ATOM      5  C   LIG A   1      -8.763   4.232 133.653  0.00  0.00    +0.183 C 
ATOM      6  C   LIG A   1      -7.758   4.565 134.795  0.00  0.00    +0.066 C 
ATOM      7  C   LIG A   1      -6.430   5.075 134.250  0.00  0.00    +0.015 C 
ATOM      8  C   LIG A   1      -6.495   5.056 132.695  0.00  0.00    +0.005 C 
ATOM      9  C   LIG A   1      -6.802   3.532 132.419  0.00  0.00    +0.170 C 
ATOM     10  O   LIG A   1      -8.027   3.072 133.132  0.00  0.00    -0.347 OA
ATOM     11  C   LIG A   1      -5.209   5.631 132.001  0.00  0.00    +0.003 C 
ATOM     12  C   LIG A   1      -4.056   5.811 133.013  0.00  0.00    +0.004 C 
ATOM     13  C   LIG A   1      -2.801   6.525 132.544  0.00  0.00    +0.003 C 
ATOM     14  C   LIG A   1      -3.015   7.644 131.539  0.00  0.00    +0.031 C 
ATOM     15  C   LIG A   1      -4.157   7.425 130.544  0.00  0.00    +0.118 C 
ATOM     16  C   LIG A   1      -5.441   6.988 131.269  0.00  0.00    +0.025 C 
ATOM     17  C   LIG A   1      -6.720   6.961 130.382  0.00  0.00    +0.051 C 
ATOM     18  C   LIG A   1      -7.883   6.957 131.352  0.00  0.00    +0.182 C 
ATOM     19  O   LIG A   1      -9.244   6.897 130.963  0.00  0.00    -0.461 OA
ATOM     20  C   LIG A   1      -7.749   5.891 132.389  0.00  0.00    +0.060 C 
ENDROOT
BRANCH   5  21
ATOM     21  O   LIG A   1      -9.994   4.007 134.299  0.00  0.00    -0.364 OA
ATOM     22  H   LIG A   1     -10.207   4.860 134.731  0.00  0.00    +0.213 HD
ENDBRANCH   5  21
BRANCH  15  23
ATOM     23  O   LIG A   1      -4.360   8.676 129.893  0.00  0.00    -0.392 OA
ATOM     24  H   LIG A   1      -4.311   9.380 130.560  0.00  0.00    +0.210 HD
ENDBRANCH  15  23
TORSDOF 2
ENDMDL
MODEL 9
REMARK VINA RESULT:      -6.8      2.132      4.325
REMARK  Name = NuBBE_2072
REMARK  3 active torsions:
REMARK  status: ('A' for Active; 'I' for Inactive)
REMARK    1  A    between atoms: C_3  and  C_4
REMARK    2  A    between atoms: C_5  and  O_6
REMARK    3  A    between atoms: C_16  and  O_18
REMARK                            x       y       z     vdW  Elec       q    Type
REMARK                         _______ _______ _______ _____ _____    ______ ____
ROOT
ATOM      1  O   LIG A   1      -5.272  -2.820 127.400  0.00  0.00    -0.250 OA
ATOM      2  C   LIG A   1      -5.715  -1.746 126.943  0.00  0.00    +0.319 C 
ATOM      3  C   LIG A   1      -6.845  -1.543 125.985  0.00  0.00    +0.125 C 
ATOM      4  C   LIG A   1      -8.000  -1.561 127.064  0.00  0.00    +0.029 C 
ATOM      5  C   LIG A   1      -7.343  -2.265 124.709  0.00  0.00    +0.183 C 
ATOM      6  C   LIG A   1      -6.903  -1.979 123.242  0.00  0.00    +0.066 C 
ATOM      7  C   LIG A   1      -6.762  -0.486 122.974  0.00  0.00    +0.015 C 
ATOM      8  C   LIG A   1      -7.155   0.287 124.267  0.00  0.00    +0.005 C 
ATOM      9  C   LIG A   1      -8.631  -0.226 124.494  0.00  0.00    +0.170 C 
ATOM     10  O   LIG A   1      -8.699  -1.712 124.573  0.00  0.00    -0.347 OA
ATOM     11  C   LIG A   1      -6.983   1.843 124.150  0.00  0.00    +0.003 C 
ATOM     12  C   LIG A   1      -6.743   2.275 122.686  0.00  0.00    +0.004 C 
ATOM     13  C   LIG A   1      -6.378   3.724 122.421  0.00  0.00    +0.003 C 
ATOM     14  C   LIG A   1      -5.523   4.394 123.485  0.00  0.00    +0.031 C 
ATOM     15  C   LIG A   1      -5.797   3.951 124.924  0.00  0.00    +0.118 C 
ATOM     16  C   LIG A   1      -5.830   2.418 125.029  0.00  0.00    +0.025 C 
ATOM     17  C   LIG A   1      -5.872   1.860 126.483  0.00  0.00    +0.051 C 
ATOM     18  C   LIG A   1      -5.450   0.410 126.369  0.00  0.00    +0.182 C 
ATOM     19  O   LIG A   1      -5.387  -0.488 127.464  0.00  0.00    -0.461 OA
ATOM     20  C   LIG A   1      -6.233  -0.327 125.333  0.00  0.00    +0.060 C 
ENDROOT
BRANCH   5  21
ATOM     21  O   LIG A   1      -7.202  -3.656 124.872  0.00  0.00    -0.364 OA
ATOM     22  H   LIG A   1      -7.119  -3.785 125.840  0.00  0.00    +0.213 HD
ENDBRANCH   5  21
BRANCH  15  23
ATOM     23  O   LIG A   1      -4.730   4.477 125.710  0.00  0.00    -0.392 OA
ATOM     24  H   LIG A   1      -5.113   4.959 126.462  0.00  0.00    +0.210 HD
ENDBRANCH  15  23
TORSDOF 2
ENDMDL
