MODEL 1
REMARK VINA RESULT:      -5.9      0.000      0.000
REMARK  Name = NuBBE_1280
REMARK  4 active torsions:
REMARK  status: ('A' for Active; 'I' for Inactive)
REMARK    1  A    between atoms: O_1  and  C_2
REMARK    2  A    between atoms: O_1  and  C_3
REMARK    3  A    between atoms: C_6  and  O_12
REMARK    4  A    between atoms: O_12  and  C_13
REMARK                            x       y       z     vdW  Elec       q    Type
REMARK                         _______ _______ _______ _____ _____    ______ ____
ROOT
ATOM      1  C   LIG A   1      -9.264   0.157 125.015  0.00  0.00    +0.206 A 
ATOM      2  C   LIG A   1      -8.754   0.443 126.291  0.00  0.00    +0.188 A 
ATOM      3  C   LIG A   1      -8.161  -0.520 127.113  0.00  0.00    +0.064 A 
ATOM      4  C   LIG A   1      -8.045  -1.855 126.659  0.00  0.00    +0.142 A 
ATOM      5  C   LIG A   1      -8.557  -2.191 125.377  0.00  0.00    +0.066 A 
ATOM      6  C   LIG A   1      -9.135  -1.177 124.603  0.00  0.00    +0.183 A 
ATOM      7  O   LIG A   1      -9.553  -1.690 123.408  0.00  0.00    -0.459 OA
ATOM      8  C   LIG A   1      -9.278  -3.013 123.407  0.00  0.00    +0.196 A 
ATOM      9  C   LIG A   1      -8.682  -3.375 124.589  0.00  0.00    +0.053 A 
ATOM     10  C   LIG A   1      -7.668  -0.095 128.424  0.00  0.00    +0.022 A 
ATOM     11  C   LIG A   1      -7.792   1.174 128.821  0.00  0.00    +0.093 A 
ATOM     12  C   LIG A   1      -8.420   2.203 127.980  0.00  0.00    +0.337 A 
ATOM     13  O   LIG A   1      -8.522   3.358 128.373  0.00  0.00    -0.245 OA
ATOM     14  O   LIG A   1      -8.874   1.787 126.740  0.00  0.00    -0.418 OA
ENDROOT
BRANCH   1  15
ATOM     15  O   LIG A   1      -9.831   1.214 124.325  0.00  0.00    -0.488 OA
ATOM     16  C   LIG A   1      -9.071   1.765 123.259  0.00  0.00    +0.277 C 
ENDBRANCH   1  15
BRANCH   4  17
ATOM     17  O   LIG A   1      -7.512  -2.755 127.572  0.00  0.00    -0.494 OA
ATOM     18  C   LIG A   1      -8.443  -3.574 128.265  0.00  0.00    +0.277 C 
ENDBRANCH   4  17
TORSDOF 2
ENDMDL
MODEL 2
REMARK VINA RESULT:      -5.9      1.097      4.426
REMARK  Name = NuBBE_1280
REMARK  4 active torsions:
REMARK  status: ('A' for Active; 'I' for Inactive)
REMARK    1  A    between atoms: O_1  and  C_2
REMARK    2  A    between atoms: O_1  and  C_3
REMARK    3  A    between atoms: C_6  and  O_12
REMARK    4  A    between atoms: O_12  and  C_13
REMARK                            x       y       z     vdW  Elec       q    Type
REMARK                         _______ _______ _______ _____ _____    ______ ____
ROOT
ATOM      1  C   LIG A   1      -9.253   0.529 125.866  0.00  0.00    +0.206 A 
ATOM      2  C   LIG A   1      -9.001  -0.843 125.711  0.00  0.00    +0.188 A 
ATOM      3  C   LIG A   1      -8.236  -1.589 126.612  0.00  0.00    +0.064 A 
ATOM      4  C   LIG A   1      -7.683  -0.958 127.752  0.00  0.00    +0.142 A 
ATOM      5  C   LIG A   1      -7.905   0.431 127.944  0.00  0.00    +0.066 A 
ATOM      6  C   LIG A   1      -8.684   1.118 127.004  0.00  0.00    +0.183 A 
ATOM      7  O   LIG A   1      -8.792   2.431 127.366  0.00  0.00    -0.459 OA
ATOM      8  C   LIG A   1      -8.081   2.608 128.501  0.00  0.00    +0.196 A 
ATOM      9  C   LIG A   1      -7.508   1.423 128.892  0.00  0.00    +0.053 A 
ATOM     10  C   LIG A   1      -8.045  -3.014 126.338  0.00  0.00    +0.022 A 
ATOM     11  C   LIG A   1      -8.583  -3.577 125.253  0.00  0.00    +0.093 A 
ATOM     12  C   LIG A   1      -9.383  -2.813 124.285  0.00  0.00    +0.337 A 
ATOM     13  O   LIG A   1      -9.860  -3.357 123.297  0.00  0.00    -0.245 OA
ATOM     14  O   LIG A   1      -9.560  -1.468 124.562  0.00  0.00    -0.418 OA
ENDROOT
BRANCH   1  15
ATOM     15  O   LIG A   1     -10.019   1.132 124.885  0.00  0.00    -0.488 OA
ATOM     16  C   LIG A   1      -9.347   2.012 123.995  0.00  0.00    +0.277 C 
ENDBRANCH   1  15
BRANCH   4  17
ATOM     17  O   LIG A   1      -6.877  -1.760 128.549  0.00  0.00    -0.494 OA
ATOM     18  C   LIG A   1      -7.417  -2.144 129.806  0.00  0.00    +0.277 C 
ENDBRANCH   4  17
TORSDOF 2
ENDMDL
MODEL 3
REMARK VINA RESULT:      -5.7      1.428      4.150
REMARK  Name = NuBBE_1280
REMARK  4 active torsions:
REMARK  status: ('A' for Active; 'I' for Inactive)
REMARK    1  A    between atoms: O_1  and  C_2
REMARK    2  A    between atoms: O_1  and  C_3
REMARK    3  A    between atoms: C_6  and  O_12
REMARK    4  A    between atoms: O_12  and  C_13
REMARK                            x       y       z     vdW  Elec       q    Type
REMARK                         _______ _______ _______ _____ _____    ______ ____
ROOT
ATOM      1  C   LIG A   1      -7.515  -0.056 126.953  0.00  0.00    +0.206 A 
ATOM      2  C   LIG A   1      -7.924  -1.340 127.344  0.00  0.00    +0.188 A 
ATOM      3  C   LIG A   1      -8.647  -2.200 126.513  0.00  0.00    +0.064 A 
ATOM      4  C   LIG A   1      -8.989  -1.787 125.203  0.00  0.00    +0.142 A 
ATOM      5  C   LIG A   1      -8.604  -0.491 124.769  0.00  0.00    +0.066 A 
ATOM      6  C   LIG A   1      -7.877   0.319 125.651  0.00  0.00    +0.183 A 
ATOM      7  O   LIG A   1      -7.591   1.513 125.052  0.00  0.00    -0.459 OA
ATOM      8  C   LIG A   1      -8.138   1.497 123.816  0.00  0.00    +0.196 A 
ATOM      9  C   LIG A   1      -8.779   0.304 123.595  0.00  0.00    +0.053 A 
ATOM     10  C   LIG A   1      -9.016  -3.516 127.038  0.00  0.00    +0.022 A 
ATOM     11  C   LIG A   1      -8.674  -3.874 128.278  0.00  0.00    +0.093 A 
ATOM     12  C   LIG A   1      -7.923  -2.985 129.175  0.00  0.00    +0.337 A 
ATOM     13  O   LIG A   1      -7.628  -3.341 130.309  0.00  0.00    -0.245 OA
ATOM     14  O   LIG A   1      -7.576  -1.748 128.661  0.00  0.00    -0.418 OA
ENDROOT
BRANCH   1  15
ATOM     15  O   LIG A   1      -6.814   0.682 127.891  0.00  0.00    -0.488 OA
ATOM     16  C   LIG A   1      -7.524   1.722 128.549  0.00  0.00    +0.277 C 
ENDBRANCH   1  15
BRANCH   4  17
ATOM     17  O   LIG A   1      -9.772  -2.677 124.479  0.00  0.00    -0.494 OA
ATOM     18  C   LIG A   1      -9.186  -3.215 123.301  0.00  0.00    +0.277 C 
ENDBRANCH   4  17
TORSDOF 2
ENDMDL
MODEL 4
REMARK VINA RESULT:      -5.6      1.241      3.854
REMARK  Name = NuBBE_1280
REMARK  4 active torsions:
REMARK  status: ('A' for Active; 'I' for Inactive)
REMARK    1  A    between atoms: O_1  and  C_2
REMARK    2  A    between atoms: O_1  and  C_3
REMARK    3  A    between atoms: C_6  and  O_12
REMARK    4  A    between atoms: O_12  and  C_13
REMARK                            x       y       z     vdW  Elec       q    Type
REMARK                         _______ _______ _______ _____ _____    ______ ____
ROOT
ATOM      1  C   LIG A   1      -7.943   0.156 127.318  0.00  0.00    +0.206 A 
ATOM      2  C   LIG A   1      -8.390   0.650 126.083  0.00  0.00    +0.188 A 
ATOM      3  C   LIG A   1      -8.966  -0.156 125.097  0.00  0.00    +0.064 A 
ATOM      4  C   LIG A   1      -9.129  -1.543 125.332  0.00  0.00    +0.142 A 
ATOM      5  C   LIG A   1      -8.681  -2.087 126.565  0.00  0.00    +0.066 A 
ATOM      6  C   LIG A   1      -8.116  -1.222 127.510  0.00  0.00    +0.183 A 
ATOM      7  O   LIG A   1      -7.762  -1.926 128.626  0.00  0.00    -0.459 OA
ATOM      8  C   LIG A   1      -8.063  -3.225 128.409  0.00  0.00    +0.196 A 
ATOM      9  C   LIG A   1      -8.615  -3.383 127.162  0.00  0.00    +0.053 A 
ATOM     10  C   LIG A   1      -9.392   0.480 123.850  0.00  0.00    +0.022 A 
ATOM     11  C   LIG A   1      -9.225   1.792 123.662  0.00  0.00    +0.093 A 
ATOM     12  C   LIG A   1      -8.614   2.660 124.679  0.00  0.00    +0.337 A 
ATOM     13  O   LIG A   1      -8.471   3.859 124.475  0.00  0.00    -0.245 OA
ATOM     14  O   LIG A   1      -8.223   2.044 125.855  0.00  0.00    -0.418 OA
ENDROOT
BRANCH   1  15
ATOM     15  O   LIG A   1      -7.385   1.077 128.187  0.00  0.00    -0.488 OA
ATOM     16  C   LIG A   1      -8.189   1.496 129.280  0.00  0.00    +0.277 C 
ENDBRANCH   1  15
BRANCH   4  17
ATOM     17  O   LIG A   1      -9.640  -2.275 124.269  0.00  0.00    -0.494 OA
ATOM     18  C   LIG A   1      -8.705  -3.050 123.531  0.00  0.00    +0.277 C 
ENDBRANCH   4  17
TORSDOF 2
ENDMDL
MODEL 5
REMARK VINA RESULT:      -5.5      1.224      4.411
REMARK  Name = NuBBE_1280
REMARK  4 active torsions:
REMARK  status: ('A' for Active; 'I' for Inactive)
REMARK    1  A    between atoms: O_1  and  C_2
REMARK    2  A    between atoms: O_1  and  C_3
REMARK    3  A    between atoms: C_6  and  O_12
REMARK    4  A    between atoms: O_12  and  C_13
REMARK                            x       y       z     vdW  Elec       q    Type
REMARK                         _______ _______ _______ _____ _____    ______ ____
ROOT
ATOM      1  C   LIG A   1      -8.964  -1.748 125.740  0.00  0.00    +0.206 A 
ATOM      2  C   LIG A   1      -9.057  -0.479 125.148  0.00  0.00    +0.188 A 
ATOM      3  C   LIG A   1      -8.571   0.685 125.750  0.00  0.00    +0.064 A 
ATOM      4  C   LIG A   1      -7.940   0.610 127.015  0.00  0.00    +0.142 A 
ATOM      5  C   LIG A   1      -7.833  -0.653 127.655  0.00  0.00    +0.066 A 
ATOM      6  C   LIG A   1      -8.337  -1.780 126.994  0.00  0.00    +0.183 A 
ATOM      7  O   LIG A   1      -8.131  -2.894 127.759  0.00  0.00    -0.459 OA
ATOM      8  C   LIG A   1      -7.528  -2.504 128.904  0.00  0.00    +0.196 A 
ATOM      9  C   LIG A   1      -7.334  -1.145 128.900  0.00  0.00    +0.053 A 
ATOM     10  C   LIG A   1      -8.730   1.949 125.030  0.00  0.00    +0.022 A 
ATOM     11  C   LIG A   1      -9.328   1.983 123.836  0.00  0.00    +0.093 A 
ATOM     12  C   LIG A   1      -9.856   0.775 123.187  0.00  0.00    +0.337 A 
ATOM     13  O   LIG A   1     -10.404   0.840 122.094  0.00  0.00    -0.245 OA
ATOM     14  O   LIG A   1      -9.692  -0.413 123.878  0.00  0.00    -0.418 OA
ENDROOT
BRANCH   1  15
ATOM     15  O   LIG A   1      -9.500  -2.805 125.026  0.00  0.00    -0.488 OA
ATOM     16  C   LIG A   1      -8.585  -3.643 124.335  0.00  0.00    +0.277 C 
ENDBRANCH   1  15
BRANCH   4  17
ATOM     17  O   LIG A   1      -7.558   1.826 127.567  0.00  0.00    -0.494 OA
ATOM     18  C   LIG A   1      -8.362   2.314 128.632  0.00  0.00    +0.277 C 
ENDBRANCH   4  17
TORSDOF 2
ENDMDL
MODEL 6
REMARK VINA RESULT:      -5.4      2.041      3.533
REMARK  Name = NuBBE_1280
REMARK  4 active torsions:
REMARK  status: ('A' for Active; 'I' for Inactive)
REMARK    1  A    between atoms: O_1  and  C_2
REMARK    2  A    between atoms: O_1  and  C_3
REMARK    3  A    between atoms: C_6  and  O_12
REMARK    4  A    between atoms: O_12  and  C_13
REMARK                            x       y       z     vdW  Elec       q    Type
REMARK                         _______ _______ _______ _____ _____    ______ ____
ROOT
ATOM      1  C   LIG A   1      -8.790  -1.798 125.399  0.00  0.00    +0.206 A 
ATOM      2  C   LIG A   1      -7.966  -0.664 125.331  0.00  0.00    +0.188 A 
ATOM      3  C   LIG A   1      -7.105  -0.279 126.363  0.00  0.00    +0.064 A 
ATOM      4  C   LIG A   1      -7.031  -1.058 127.542  0.00  0.00    +0.142 A 
ATOM      5  C   LIG A   1      -7.855  -2.209 127.658  0.00  0.00    +0.066 A 
ATOM      6  C   LIG A   1      -8.692  -2.540 126.585  0.00  0.00    +0.183 A 
ATOM      7  O   LIG A   1      -9.390  -3.678 126.879  0.00  0.00    -0.459 OA
ATOM      8  C   LIG A   1      -9.038  -4.069 128.123  0.00  0.00    +0.196 A 
ATOM      9  C   LIG A   1      -8.114  -3.202 128.651  0.00  0.00    +0.053 A 
ATOM     10  C   LIG A   1      -6.297   0.926 126.171  0.00  0.00    +0.022 A 
ATOM     11  C   LIG A   1      -6.391   1.637 125.043  0.00  0.00    +0.093 A 
ATOM     12  C   LIG A   1      -7.295   1.258 123.948  0.00  0.00    +0.337 A 
ATOM     13  O   LIG A   1      -7.361   1.933 122.928  0.00  0.00    -0.245 OA
ATOM     14  O   LIG A   1      -8.047   0.113 124.143  0.00  0.00    -0.418 OA
ENDROOT
BRANCH   1  15
ATOM     15  O   LIG A   1      -9.595  -2.044 124.302  0.00  0.00    -0.488 OA
ATOM     16  C   LIG A   1      -9.272  -3.178 123.509  0.00  0.00    +0.277 C 
ENDBRANCH   1  15
BRANCH   4  17
ATOM     17  O   LIG A   1      -6.206  -0.557 128.541  0.00  0.00    -0.494 OA
ATOM     18  C   LIG A   1      -5.065  -1.339 128.866  0.00  0.00    +0.277 C 
ENDBRANCH   4  17
TORSDOF 2
ENDMDL
MODEL 7
REMARK VINA RESULT:      -5.3      2.597      5.898
REMARK  Name = NuBBE_1280
REMARK  4 active torsions:
REMARK  status: ('A' for Active; 'I' for Inactive)
REMARK    1  A    between atoms: O_1  and  C_2
REMARK    2  A    between atoms: O_1  and  C_3
REMARK    3  A    between atoms: C_6  and  O_12
REMARK    4  A    between atoms: O_12  and  C_13
REMARK                            x       y       z     vdW  Elec       q    Type
REMARK                         _______ _______ _______ _____ _____    ______ ____
ROOT
ATOM      1  C   LIG A   1      -6.568  -1.533 126.739  0.00  0.00    +0.206 A 
ATOM      2  C   LIG A   1      -6.257  -1.868 125.412  0.00  0.00    +0.188 A 
ATOM      3  C   LIG A   1      -6.670  -1.110 124.313  0.00  0.00    +0.064 A 
ATOM      4  C   LIG A   1      -7.432   0.065 124.518  0.00  0.00    +0.142 A 
ATOM      5  C   LIG A   1      -7.779   0.436 125.844  0.00  0.00    +0.066 A 
ATOM      6  C   LIG A   1      -7.328  -0.367 126.900  0.00  0.00    +0.183 A 
ATOM      7  O   LIG A   1      -7.750   0.158 128.090  0.00  0.00    -0.459 OA
ATOM      8  C   LIG A   1      -8.479   1.263 127.820  0.00  0.00    +0.196 A 
ATOM      9  C   LIG A   1      -8.540   1.473 126.465  0.00  0.00    +0.053 A 
ATOM     10  C   LIG A   1      -6.281  -1.566 122.978  0.00  0.00    +0.022 A 
ATOM     11  C   LIG A   1      -5.558  -2.678 122.821  0.00  0.00    +0.093 A 
ATOM     12  C   LIG A   1      -5.120  -3.498 123.960  0.00  0.00    +0.337 A 
ATOM     13  O   LIG A   1      -4.462  -4.516 123.783  0.00  0.00    -0.245 OA
ATOM     14  O   LIG A   1      -5.490  -3.050 125.215  0.00  0.00    -0.418 OA
ENDROOT
BRANCH   1  15
ATOM     15  O   LIG A   1      -6.096  -2.388 127.720  0.00  0.00    -0.488 OA
ATOM     16  C   LIG A   1      -4.982  -1.941 128.479  0.00  0.00    +0.277 C 
ENDBRANCH   1  15
BRANCH   4  17
ATOM     17  O   LIG A   1      -7.860   0.710 123.365  0.00  0.00    -0.494 OA
ATOM     18  C   LIG A   1      -7.242   1.956 123.075  0.00  0.00    +0.277 C 
ENDBRANCH   4  17
TORSDOF 2
ENDMDL
MODEL 8
REMARK VINA RESULT:      -5.3      8.625      9.700
REMARK  Name = NuBBE_1280
REMARK  4 active torsions:
REMARK  status: ('A' for Active; 'I' for Inactive)
REMARK    1  A    between atoms: O_1  and  C_2
REMARK    2  A    between atoms: O_1  and  C_3
REMARK    3  A    between atoms: C_6  and  O_12
REMARK    4  A    between atoms: O_12  and  C_13
REMARK                            x       y       z     vdW  Elec       q    Type
REMARK                         _______ _______ _______ _____ _____    ______ ____
ROOT
ATOM      1  C   LIG A   1      -7.393   5.968 131.370  0.00  0.00    +0.206 A 
ATOM      2  C   LIG A   1      -6.088   6.478 131.449  0.00  0.00    +0.188 A 
ATOM      3  C   LIG A   1      -5.246   6.264 132.544  0.00  0.00    +0.064 A 
ATOM      4  C   LIG A   1      -5.701   5.489 133.637  0.00  0.00    +0.142 A 
ATOM      5  C   LIG A   1      -7.019   4.962 133.605  0.00  0.00    +0.066 A 
ATOM      6  C   LIG A   1      -7.809   5.212 132.475  0.00  0.00    +0.183 A 
ATOM      7  O   LIG A   1      -9.030   4.616 132.625  0.00  0.00    -0.459 OA
ATOM      8  C   LIG A   1      -9.049   4.012 133.833  0.00  0.00    +0.196 A 
ATOM      9  C   LIG A   1      -7.853   4.201 134.479  0.00  0.00    +0.053 A 
ATOM     10  C   LIG A   1      -3.905   6.850 132.505  0.00  0.00    +0.022 A 
ATOM     11  C   LIG A   1      -3.507   7.573 131.455  0.00  0.00    +0.093 A 
ATOM     12  C   LIG A   1      -4.377   7.821 130.297  0.00  0.00    +0.337 A 
ATOM     13  O   LIG A   1      -3.985   8.493 129.351  0.00  0.00    -0.245 OA
ATOM     14  O   LIG A   1      -5.639   7.255 130.346  0.00  0.00    -0.418 OA
ENDROOT
BRANCH   1  15
ATOM     15  O   LIG A   1      -8.109   6.274 130.226  0.00  0.00    -0.488 OA
ATOM     16  C   LIG A   1      -9.215   7.152 130.377  0.00  0.00    +0.277 C 
ENDBRANCH   1  15
BRANCH   4  17
ATOM     17  O   LIG A   1      -4.824   5.394 134.710  0.00  0.00    -0.494 OA
ATOM     18  C   LIG A   1      -4.197   4.132 134.900  0.00  0.00    +0.277 C 
ENDBRANCH   4  17
TORSDOF 2
ENDMDL
MODEL 9
REMARK VINA RESULT:      -5.2      4.835      8.096
REMARK  Name = NuBBE_1280
REMARK  4 active torsions:
REMARK  status: ('A' for Active; 'I' for Inactive)
REMARK    1  A    between atoms: O_1  and  C_2
REMARK    2  A    between atoms: O_1  and  C_3
REMARK    3  A    between atoms: C_6  and  O_12
REMARK    4  A    between atoms: O_12  and  C_13
REMARK                            x       y       z     vdW  Elec       q    Type
REMARK                         _______ _______ _______ _____ _____    ______ ____
ROOT
ATOM      1  C   LIG A   1      -8.500   4.219 129.734  0.00  0.00    +0.206 A 
ATOM      2  C   LIG A   1      -8.659   4.033 131.116  0.00  0.00    +0.188 A 
ATOM      3  C   LIG A   1      -9.456   4.858 131.914  0.00  0.00    +0.064 A 
ATOM      4  C   LIG A   1     -10.159   5.936 131.326  0.00  0.00    +0.142 A 
ATOM      5  C   LIG A   1     -10.019   6.168 129.932  0.00  0.00    +0.066 A 
ATOM      6  C   LIG A   1      -9.207   5.301 129.190  0.00  0.00    +0.183 A 
ATOM      7  O   LIG A   1      -9.210   5.677 127.876  0.00  0.00    -0.459 OA
ATOM      8  C   LIG A   1      -9.984   6.779 127.763  0.00  0.00    +0.196 A 
ATOM      9  C   LIG A   1     -10.493   7.130 128.988  0.00  0.00    +0.053 A 
ATOM     10  C   LIG A   1      -9.539   4.559 133.344  0.00  0.00    +0.022 A 
ATOM     11  C   LIG A   1      -8.865   3.531 133.866  0.00  0.00    +0.093 A 
ATOM     12  C   LIG A   1      -8.012   2.655 133.050  0.00  0.00    +0.337 A 
ATOM     13  O   LIG A   1      -7.402   1.722 133.559  0.00  0.00    -0.245 OA
ATOM     14  O   LIG A   1      -7.950   2.947 131.699  0.00  0.00    -0.418 OA
ENDROOT
BRANCH   1  15
ATOM     15  O   LIG A   1      -7.669   3.326 129.081  0.00  0.00    -0.488 OA
ATOM     16  C   LIG A   1      -8.297   2.288 128.343  0.00  0.00    +0.277 C 
ENDBRANCH   1  15
BRANCH   4  17
ATOM     17  O   LIG A   1     -10.864   6.745 132.208  0.00  0.00    -0.494 OA
ATOM     18  C   LIG A   1     -12.237   6.957 131.907  0.00  0.00    +0.277 C 
ENDBRANCH   4  17
TORSDOF 2
ENDMDL
