MODEL 1
REMARK VINA RESULT:      -7.8      0.000      0.000
REMARK  Name = NuBBE_2150
REMARK  10 active torsions:
REMARK  status: ('A' for Active; 'I' for Inactive)
REMARK    1  A    between atoms: C_1  and  O_2
REMARK    2  A    between atoms: O_2  and  C_3
REMARK    3  A    between atoms: C_10  and  C_11
REMARK    4  A    between atoms: C_13  and  C_15
REMARK    5  A    between atoms: C_16  and  C_17
REMARK    6  A    between atoms: C_17  and  C_18
REMARK    7  A    between atoms: C_20  and  O_21
REMARK    8  A    between atoms: C_25  and  O_27
REMARK    9  A    between atoms: C_28  and  O_29
REMARK   10  A    between atoms: O_29  and  C_30
REMARK                            x       y       z     vdW  Elec       q    Type
REMARK                         _______ _______ _______ _____ _____    ______ ____
ROOT
ATOM      1  C   LIG A   1      -7.856  -1.996 126.159  0.00  0.00    +0.060 C 
ATOM      2  C   LIG A   1      -7.236  -2.990 125.120  0.00  0.00    +0.006 C 
ATOM      3  C   LIG A   1      -8.237  -4.095 124.764  0.00  0.00    +0.009 C 
ATOM      4  C   LIG A   1      -6.703  -2.109 123.933  0.00  0.00    +0.013 C 
ATOM      5  C   LIG A   1      -6.440  -0.759 124.644  0.00  0.00    +0.157 C 
ATOM      6  C   LIG A   1      -7.738  -1.884 122.811  0.00  0.00    +0.087 C 
ATOM      7  C   LIG A   1      -9.019  -1.317 123.364  0.00  0.00    +0.165 C 
ATOM      8  C   LIG A   1      -8.921  -0.295 124.490  0.00  0.00    +0.215 C 
ATOM      9  C   LIG A   1      -7.736  -0.587 125.473  0.00  0.00    +0.135 C 
ATOM     10  O   LIG A   1     -10.112  -1.631 122.868  0.00  0.00    -0.294 OA
ENDROOT
BRANCH   1  18
ATOM     11  C   LIG A   1      -5.128  -2.508 128.852  0.00  0.00    +0.166 A 
ATOM     12  C   LIG A   1      -5.914  -2.752 129.962  0.00  0.00    +0.207 A 
ATOM     13  O   LIG A   1      -5.507  -3.096 131.217  0.00  0.00    -0.449 OA
ATOM     14  C   LIG A   1      -6.761  -3.363 131.864  0.00  0.00    +0.467 C 
ATOM     15  O   LIG A   1      -7.894  -2.964 131.073  0.00  0.00    -0.453 OA
ATOM     16  C   LIG A   1      -7.284  -2.681 129.888  0.00  0.00    +0.170 A 
ATOM     17  C   LIG A   1      -7.951  -2.389 128.714  0.00  0.00    +0.053 A 
ATOM     18  C   LIG A   1      -7.208  -2.203 127.538  0.00  0.00    -0.034 A 
ATOM     19  C   LIG A   1      -5.791  -2.235 127.639  0.00  0.00    +0.053 A 
BRANCH  11  21
ATOM     20  C   LIG A   1      -3.140  -3.799 128.956  0.00  0.00    +0.277 C 
ATOM     21  O   LIG A   1      -3.762  -2.527 128.791  0.00  0.00    -0.491 OA
ENDBRANCH  11  21
ENDBRANCH   1  18
BRANCH   5  22
ATOM     22  O   LIG A   1      -6.221   0.317 123.737  0.00  0.00    -0.388 OA
ATOM     23  H   LIG A   1      -5.384   0.112 123.271  0.00  0.00    +0.210 HD
ENDBRANCH   5  22
BRANCH   8  24
ATOM     24  O   LIG A   1      -8.817   1.014 123.918  0.00  0.00    -0.381 OA
ATOM     25  H   LIG A   1      -7.893   1.115 123.615  0.00  0.00    +0.210 HD
ENDBRANCH   8  24
BRANCH   9  26
ATOM     26  O   LIG A   1      -7.572   0.508 126.395  0.00  0.00    -0.370 OA
ATOM     27  C   LIG A   1      -8.770   0.937 127.044  0.00  0.00    +0.195 C 
ENDBRANCH   9  26
BRANCH   4  28
ATOM     28  C   LIG A   1      -5.379  -2.657 123.333  0.00  0.00    +0.037 C 
BRANCH  28  29
ATOM     29  C   LIG A   1      -4.778  -3.829 124.062  0.00  0.00    -0.034 C 
ATOM     30  C   LIG A   1      -4.275  -4.918 123.468  0.00  0.00    +0.004 C 
ENDBRANCH  28  29
ENDBRANCH   4  28
TORSDOF 7
ENDMDL
MODEL 2
REMARK VINA RESULT:      -7.8      0.800      2.136
REMARK  Name = NuBBE_2150
REMARK  10 active torsions:
REMARK  status: ('A' for Active; 'I' for Inactive)
REMARK    1  A    between atoms: C_1  and  O_2
REMARK    2  A    between atoms: O_2  and  C_3
REMARK    3  A    between atoms: C_10  and  C_11
REMARK    4  A    between atoms: C_13  and  C_15
REMARK    5  A    between atoms: C_16  and  C_17
REMARK    6  A    between atoms: C_17  and  C_18
REMARK    7  A    between atoms: C_20  and  O_21
REMARK    8  A    between atoms: C_25  and  O_27
REMARK    9  A    between atoms: C_28  and  O_29
REMARK   10  A    between atoms: O_29  and  C_30
REMARK                            x       y       z     vdW  Elec       q    Type
REMARK                         _______ _______ _______ _____ _____    ______ ____
ROOT
ATOM      1  C   LIG A   1      -7.759  -1.965 126.007  0.00  0.00    +0.060 C 
ATOM      2  C   LIG A   1      -7.153  -2.977 124.978  0.00  0.00    +0.006 C 
ATOM      3  C   LIG A   1      -8.129  -4.128 124.710  0.00  0.00    +0.009 C 
ATOM      4  C   LIG A   1      -6.706  -2.124 123.735  0.00  0.00    +0.013 C 
ATOM      5  C   LIG A   1      -6.458  -0.740 124.383  0.00  0.00    +0.157 C 
ATOM      6  C   LIG A   1      -7.798  -1.978 122.656  0.00  0.00    +0.087 C 
ATOM      7  C   LIG A   1      -9.072  -1.434 123.248  0.00  0.00    +0.165 C 
ATOM      8  C   LIG A   1      -8.959  -0.367 124.330  0.00  0.00    +0.215 C 
ATOM      9  C   LIG A   1      -7.720  -0.580 125.266  0.00  0.00    +0.135 C 
ATOM     10  O   LIG A   1     -10.174  -1.803 122.816  0.00  0.00    -0.294 OA
ENDROOT
BRANCH   1  18
ATOM     11  C   LIG A   1      -7.176  -1.914 129.830  0.00  0.00    +0.166 A 
ATOM     12  C   LIG A   1      -5.813  -2.134 129.879  0.00  0.00    +0.207 A 
ATOM     13  O   LIG A   1      -5.004  -2.133 130.977  0.00  0.00    -0.449 OA
ATOM     14  C   LIG A   1      -3.705  -2.259 130.377  0.00  0.00    +0.467 C 
ATOM     15  O   LIG A   1      -3.764  -2.556 128.972  0.00  0.00    -0.453 OA
ATOM     16  C   LIG A   1      -5.094  -2.374 128.733  0.00  0.00    +0.170 A 
ATOM     17  C   LIG A   1      -5.675  -2.387 127.480  0.00  0.00    +0.053 A 
ATOM     18  C   LIG A   1      -7.042  -2.098 127.361  0.00  0.00    -0.034 A 
ATOM     19  C   LIG A   1      -7.782  -1.896 128.558  0.00  0.00    +0.053 A 
BRANCH  11  21
ATOM     20  C   LIG A   1      -8.391  -0.326 131.107  0.00  0.00    +0.277 C 
ATOM     21  O   LIG A   1      -8.011  -1.682 130.888  0.00  0.00    -0.491 OA
ENDBRANCH  11  21
ENDBRANCH   1  18
BRANCH   5  22
ATOM     22  O   LIG A   1      -6.319   0.307 123.429  0.00  0.00    -0.388 OA
ATOM     23  H   LIG A   1      -5.483   0.767 123.651  0.00  0.00    +0.210 HD
ENDBRANCH   5  22
BRANCH   8  24
ATOM     24  O   LIG A   1      -8.928   0.922 123.706  0.00  0.00    -0.381 OA
ATOM     25  H   LIG A   1      -9.826   1.086 123.356  0.00  0.00    +0.210 HD
ENDBRANCH   8  24
BRANCH   9  26
ATOM     26  O   LIG A   1      -7.553   0.554 126.138  0.00  0.00    -0.370 OA
ATOM     27  C   LIG A   1      -8.752   1.025 126.754  0.00  0.00    +0.195 C 
ENDBRANCH   9  26
BRANCH   4  28
ATOM     28  C   LIG A   1      -5.393  -2.650 123.094  0.00  0.00    +0.037 C 
BRANCH  28  29
ATOM     29  C   LIG A   1      -4.646  -3.677 123.905  0.00  0.00    -0.034 C 
ATOM     30  C   LIG A   1      -4.297  -4.890 123.460  0.00  0.00    +0.004 C 
ENDBRANCH  28  29
ENDBRANCH   4  28
TORSDOF 7
ENDMDL
MODEL 3
REMARK VINA RESULT:      -7.5      2.927      4.881
REMARK  Name = NuBBE_2150
REMARK  10 active torsions:
REMARK  status: ('A' for Active; 'I' for Inactive)
REMARK    1  A    between atoms: C_1  and  O_2
REMARK    2  A    between atoms: O_2  and  C_3
REMARK    3  A    between atoms: C_10  and  C_11
REMARK    4  A    between atoms: C_13  and  C_15
REMARK    5  A    between atoms: C_16  and  C_17
REMARK    6  A    between atoms: C_17  and  C_18
REMARK    7  A    between atoms: C_20  and  O_21
REMARK    8  A    between atoms: C_25  and  O_27
REMARK    9  A    between atoms: C_28  and  O_29
REMARK   10  A    between atoms: O_29  and  C_30
REMARK                            x       y       z     vdW  Elec       q    Type
REMARK                         _______ _______ _______ _____ _____    ______ ____
ROOT
ATOM      1  C   LIG A   1      -7.170   0.087 126.151  0.00  0.00    +0.060 C 
ATOM      2  C   LIG A   1      -6.356  -1.245 126.265  0.00  0.00    +0.006 C 
ATOM      3  C   LIG A   1      -6.844  -2.079 127.455  0.00  0.00    +0.009 C 
ATOM      4  C   LIG A   1      -6.426  -1.924 124.849  0.00  0.00    +0.013 C 
ATOM      5  C   LIG A   1      -6.648  -0.699 123.929  0.00  0.00    +0.157 C 
ATOM      6  C   LIG A   1      -7.616  -2.892 124.681  0.00  0.00    +0.087 C 
ATOM      7  C   LIG A   1      -8.917  -2.209 125.011  0.00  0.00    +0.165 C 
ATOM      8  C   LIG A   1      -9.087  -0.754 124.592  0.00  0.00    +0.215 C 
ATOM      9  C   LIG A   1      -7.756   0.067 124.692  0.00  0.00    +0.135 C 
ATOM     10  O   LIG A   1      -9.839  -2.839 125.551  0.00  0.00    -0.294 OA
ENDROOT
BRANCH   1  18
ATOM     11  C   LIG A   1      -6.191   3.575 127.506  0.00  0.00    +0.166 A 
ATOM     12  C   LIG A   1      -4.837   3.579 127.233  0.00  0.00    +0.207 A 
ATOM     13  O   LIG A   1      -3.951   4.600 127.410  0.00  0.00    -0.449 OA
ATOM     14  C   LIG A   1      -2.764   4.058 126.808  0.00  0.00    +0.467 C 
ATOM     15  O   LIG A   1      -2.887   2.662 126.488  0.00  0.00    -0.453 OA
ATOM     16  C   LIG A   1      -4.219   2.472 126.702  0.00  0.00    +0.170 A 
ATOM     17  C   LIG A   1      -4.906   1.315 126.391  0.00  0.00    +0.053 A 
ATOM     18  C   LIG A   1      -6.296   1.278 126.578  0.00  0.00    -0.034 A 
ATOM     19  C   LIG A   1      -6.915   2.412 127.170  0.00  0.00    +0.053 A 
BRANCH  11  21
ATOM     20  C   LIG A   1      -8.101   4.215 128.760  0.00  0.00    +0.277 C 
ATOM     21  O   LIG A   1      -6.925   4.593 128.048  0.00  0.00    -0.491 OA
ENDBRANCH  11  21
ENDBRANCH   1  18
BRANCH   5  22
ATOM     22  O   LIG A   1      -7.038  -1.056 122.607  0.00  0.00    -0.388 OA
ATOM     23  H   LIG A   1      -6.541  -0.462 122.008  0.00  0.00    +0.210 HD
ENDBRANCH   5  22
BRANCH   8  24
ATOM     24  O   LIG A   1      -9.628  -0.715 123.267  0.00  0.00    -0.381 OA
ATOM     25  H   LIG A   1      -9.083  -0.081 122.760  0.00  0.00    +0.210 HD
ENDBRANCH   8  24
BRANCH   9  26
ATOM     26  O   LIG A   1      -7.928   1.370 124.105  0.00  0.00    -0.370 OA
ATOM     27  C   LIG A   1      -9.136   2.041 124.465  0.00  0.00    +0.195 C 
ENDBRANCH   9  26
BRANCH   4  28
ATOM     28  C   LIG A   1      -5.102  -2.640 124.466  0.00  0.00    +0.037 C 
BRANCH  28  29
ATOM     29  C   LIG A   1      -5.257  -4.033 123.918  0.00  0.00    -0.034 C 
ATOM     30  C   LIG A   1      -4.246  -4.805 123.502  0.00  0.00    +0.004 C 
ENDBRANCH  28  29
ENDBRANCH   4  28
TORSDOF 7
ENDMDL
MODEL 4
REMARK VINA RESULT:      -6.9      2.812      5.502
REMARK  Name = NuBBE_2150
REMARK  10 active torsions:
REMARK  status: ('A' for Active; 'I' for Inactive)
REMARK    1  A    between atoms: C_1  and  O_2
REMARK    2  A    between atoms: O_2  and  C_3
REMARK    3  A    between atoms: C_10  and  C_11
REMARK    4  A    between atoms: C_13  and  C_15
REMARK    5  A    between atoms: C_16  and  C_17
REMARK    6  A    between atoms: C_17  and  C_18
REMARK    7  A    between atoms: C_20  and  O_21
REMARK    8  A    between atoms: C_25  and  O_27
REMARK    9  A    between atoms: C_28  and  O_29
REMARK   10  A    between atoms: O_29  and  C_30
REMARK                            x       y       z     vdW  Elec       q    Type
REMARK                         _______ _______ _______ _____ _____    ______ ____
ROOT
ATOM      1  C   LIG A   1      -6.664   1.147 125.073  0.00  0.00    +0.060 C 
ATOM      2  C   LIG A   1      -6.133   2.025 126.255  0.00  0.00    +0.006 C 
ATOM      3  C   LIG A   1      -4.611   2.186 126.170  0.00  0.00    +0.009 C 
ATOM      4  C   LIG A   1      -6.986   3.345 126.239  0.00  0.00    +0.013 C 
ATOM      5  C   LIG A   1      -8.292   2.861 125.564  0.00  0.00    +0.157 C 
ATOM      6  C   LIG A   1      -6.373   4.472 125.382  0.00  0.00    +0.087 C 
ATOM      7  C   LIG A   1      -6.100   3.995 123.979  0.00  0.00    +0.165 C 
ATOM      8  C   LIG A   1      -7.106   3.046 123.338  0.00  0.00    +0.215 C 
ATOM      9  C   LIG A   1      -7.741   2.049 124.367  0.00  0.00    +0.135 C 
ATOM     10  O   LIG A   1      -5.117   4.417 123.351  0.00  0.00    -0.294 OA
ENDROOT
BRANCH   1  18
ATOM     11  C   LIG A   1      -7.872  -2.527 125.056  0.00  0.00    +0.166 A 
ATOM     12  C   LIG A   1      -8.041  -2.742 126.411  0.00  0.00    +0.207 A 
ATOM     13  O   LIG A   1      -8.543  -3.850 127.026  0.00  0.00    -0.449 OA
ATOM     14  C   LIG A   1      -8.611  -3.414 128.393  0.00  0.00    +0.467 C 
ATOM     15  O   LIG A   1      -7.950  -2.156 128.612  0.00  0.00    -0.453 OA
ATOM     16  C   LIG A   1      -7.706  -1.774 127.327  0.00  0.00    +0.170 A 
ATOM     17  C   LIG A   1      -7.210  -0.539 126.957  0.00  0.00    +0.053 A 
ATOM     18  C   LIG A   1      -7.087  -0.237 125.592  0.00  0.00    -0.034 A 
ATOM     19  C   LIG A   1      -7.394  -1.262 124.657  0.00  0.00    +0.053 A 
BRANCH  11  21
ATOM     20  C   LIG A   1      -9.444  -3.310 123.460  0.00  0.00    +0.277 C 
ATOM     21  O   LIG A   1      -8.146  -3.404 124.043  0.00  0.00    -0.491 OA
ENDBRANCH  11  21
ENDBRANCH   1  18
BRANCH   5  22
ATOM     22  O   LIG A   1      -9.141   3.930 125.158  0.00  0.00    -0.388 OA
ATOM     23  H   LIG A   1      -8.763   4.273 124.321  0.00  0.00    +0.210 HD
ENDBRANCH   5  22
BRANCH   8  24
ATOM     24  O   LIG A   1      -8.110   3.820 122.671  0.00  0.00    -0.381 OA
ATOM     25  H   LIG A   1      -8.279   4.604 123.231  0.00  0.00    +0.210 HD
ENDBRANCH   8  24
BRANCH   9  26
ATOM     26  O   LIG A   1      -8.816   1.315 123.751  0.00  0.00    -0.370 OA
ATOM     27  C   LIG A   1     -10.022   1.254 124.514  0.00  0.00    +0.195 C 
ENDBRANCH   9  26
BRANCH   4  28
ATOM     28  C   LIG A   1      -7.293   3.872 127.667  0.00  0.00    +0.037 C 
BRANCH  28  29
ATOM     29  C   LIG A   1      -7.430   2.813 128.729  0.00  0.00    -0.034 C 
ATOM     30  C   LIG A   1      -8.595   2.333 129.178  0.00  0.00    +0.004 C 
ENDBRANCH  28  29
ENDBRANCH   4  28
TORSDOF 7
ENDMDL
MODEL 5
REMARK VINA RESULT:      -6.9      2.997      5.756
REMARK  Name = NuBBE_2150
REMARK  10 active torsions:
REMARK  status: ('A' for Active; 'I' for Inactive)
REMARK    1  A    between atoms: C_1  and  O_2
REMARK    2  A    between atoms: O_2  and  C_3
REMARK    3  A    between atoms: C_10  and  C_11
REMARK    4  A    between atoms: C_13  and  C_15
REMARK    5  A    between atoms: C_16  and  C_17
REMARK    6  A    between atoms: C_17  and  C_18
REMARK    7  A    between atoms: C_20  and  O_21
REMARK    8  A    between atoms: C_25  and  O_27
REMARK    9  A    between atoms: C_28  and  O_29
REMARK   10  A    between atoms: O_29  and  C_30
REMARK                            x       y       z     vdW  Elec       q    Type
REMARK                         _______ _______ _______ _____ _____    ______ ____
ROOT
ATOM      1  C   LIG A   1      -6.513  -0.830 125.067  0.00  0.00    +0.060 C 
ATOM      2  C   LIG A   1      -7.123  -0.925 123.629  0.00  0.00    +0.006 C 
ATOM      3  C   LIG A   1      -6.194  -1.710 122.696  0.00  0.00    +0.009 C 
ATOM      4  C   LIG A   1      -8.582  -1.483 123.807  0.00  0.00    +0.013 C 
ATOM      5  C   LIG A   1      -8.912  -1.029 125.249  0.00  0.00    +0.157 C 
ATOM      6  C   LIG A   1      -8.673  -3.022 123.738  0.00  0.00    +0.087 C 
ATOM      7  C   LIG A   1      -7.731  -3.662 124.724  0.00  0.00    +0.165 C 
ATOM      8  C   LIG A   1      -7.557  -2.995 126.083  0.00  0.00    +0.215 C 
ATOM      9  C   LIG A   1      -7.622  -1.431 126.005  0.00  0.00    +0.135 C 
ATOM     10  O   LIG A   1      -7.169  -4.734 124.452  0.00  0.00    -0.294 OA
ENDROOT
BRANCH   1  18
ATOM     11  C   LIG A   1      -6.082   2.996 124.699  0.00  0.00    +0.166 A 
ATOM     12  C   LIG A   1      -5.063   3.222 125.604  0.00  0.00    +0.207 A 
ATOM     13  O   LIG A   1      -4.410   4.392 125.854  0.00  0.00    -0.449 OA
ATOM     14  C   LIG A   1      -3.378   3.960 126.755  0.00  0.00    +0.467 C 
ATOM     15  O   LIG A   1      -3.559   2.606 127.203  0.00  0.00    -0.453 OA
ATOM     16  C   LIG A   1      -4.567   2.202 126.379  0.00  0.00    +0.170 A 
ATOM     17  C   LIG A   1      -5.032   0.905 126.287  0.00  0.00    +0.053 A 
ATOM     18  C   LIG A   1      -6.016   0.601 125.335  0.00  0.00    -0.034 A 
ATOM     19  C   LIG A   1      -6.552   1.673 124.571  0.00  0.00    +0.053 A 
BRANCH  11  21
ATOM     20  C   LIG A   1      -6.979   3.486 122.558  0.00  0.00    +0.277 C 
ATOM     21  O   LIG A   1      -6.678   3.918 123.883  0.00  0.00    -0.491 OA
ENDBRANCH  11  21
ENDBRANCH   1  18
BRANCH   5  22
ATOM     22  O   LIG A   1     -10.076  -1.655 125.780  0.00  0.00    -0.388 OA
ATOM     23  H   LIG A   1     -10.687  -1.777 125.024  0.00  0.00    +0.210 HD
ENDBRANCH   5  22
BRANCH   8  24
ATOM     24  O   LIG A   1      -8.542  -3.515 126.983  0.00  0.00    -0.381 OA
ATOM     25  H   LIG A   1      -8.561  -2.916 127.755  0.00  0.00    +0.210 HD
ENDBRANCH   8  24
BRANCH   9  26
ATOM     26  O   LIG A   1      -7.647  -0.866 127.329  0.00  0.00    -0.370 OA
ATOM     27  C   LIG A   1      -6.736  -1.458 128.257  0.00  0.00    +0.195 C 
ENDBRANCH   9  26
BRANCH   4  28
ATOM     28  C   LIG A   1      -9.589  -0.847 122.809  0.00  0.00    +0.037 C 
BRANCH  28  29
ATOM     29  C   LIG A   1      -9.601   0.659 122.780  0.00  0.00    -0.034 C 
ATOM     30  C   LIG A   1     -10.285   1.431 123.633  0.00  0.00    +0.004 C 
ENDBRANCH  28  29
ENDBRANCH   4  28
TORSDOF 7
ENDMDL
MODEL 6
REMARK VINA RESULT:      -6.8      2.312      3.855
REMARK  Name = NuBBE_2150
REMARK  10 active torsions:
REMARK  status: ('A' for Active; 'I' for Inactive)
REMARK    1  A    between atoms: C_1  and  O_2
REMARK    2  A    between atoms: O_2  and  C_3
REMARK    3  A    between atoms: C_10  and  C_11
REMARK    4  A    between atoms: C_13  and  C_15
REMARK    5  A    between atoms: C_16  and  C_17
REMARK    6  A    between atoms: C_17  and  C_18
REMARK    7  A    between atoms: C_20  and  O_21
REMARK    8  A    between atoms: C_25  and  O_27
REMARK    9  A    between atoms: C_28  and  O_29
REMARK   10  A    between atoms: O_29  and  C_30
REMARK                            x       y       z     vdW  Elec       q    Type
REMARK                         _______ _______ _______ _____ _____    ______ ____
ROOT
ATOM      1  C   LIG A   1      -7.266  -1.041 126.292  0.00  0.00    +0.060 C 
ATOM      2  C   LIG A   1      -6.509   0.234 125.792  0.00  0.00    +0.006 C 
ATOM      3  C   LIG A   1      -5.063  -0.108 125.413  0.00  0.00    +0.009 C 
ATOM      4  C   LIG A   1      -7.406   0.865 124.666  0.00  0.00    +0.013 C 
ATOM      5  C   LIG A   1      -8.811   0.354 125.067  0.00  0.00    +0.157 C 
ATOM      6  C   LIG A   1      -7.077   0.351 123.248  0.00  0.00    +0.087 C 
ATOM      7  C   LIG A   1      -7.130  -1.154 123.195  0.00  0.00    +0.165 C 
ATOM      8  C   LIG A   1      -8.213  -1.861 124.002  0.00  0.00    +0.215 C 
ATOM      9  C   LIG A   1      -8.527  -1.140 125.358  0.00  0.00    +0.135 C 
ATOM     10  O   LIG A   1      -6.353  -1.785 122.463  0.00  0.00    -0.294 OA
ENDROOT
BRANCH   1  18
ATOM     11  C   LIG A   1      -7.597  -2.174 129.975  0.00  0.00    +0.166 A 
ATOM     12  C   LIG A   1      -8.016  -0.996 130.563  0.00  0.00    +0.207 A 
ATOM     13  O   LIG A   1      -8.388  -0.794 131.859  0.00  0.00    -0.449 OA
ATOM     14  C   LIG A   1      -8.859   0.562 131.816  0.00  0.00    +0.467 C 
ATOM     15  O   LIG A   1      -8.559   1.218 130.572  0.00  0.00    -0.453 OA
ATOM     16  C   LIG A   1      -8.120   0.162 129.831  0.00  0.00    +0.170 A 
ATOM     17  C   LIG A   1      -7.839   0.215 128.480  0.00  0.00    +0.053 A 
ATOM     18  C   LIG A   1      -7.479  -0.966 127.813  0.00  0.00    -0.034 A 
ATOM     19  C   LIG A   1      -7.332  -2.147 128.591  0.00  0.00    +0.053 A 
BRANCH  11  21
ATOM     20  C   LIG A   1      -6.248  -4.106 130.253  0.00  0.00    +0.277 C 
ATOM     21  O   LIG A   1      -7.433  -3.387 130.586  0.00  0.00    -0.491 OA
ENDBRANCH  11  21
ENDBRANCH   1  18
BRANCH   5  22
ATOM     22  O   LIG A   1      -9.786   0.539 124.046  0.00  0.00    -0.388 OA
ATOM     23  H   LIG A   1     -10.657   0.418 124.478  0.00  0.00    +0.210 HD
ENDBRANCH   5  22
BRANCH   8  24
ATOM     24  O   LIG A   1      -9.387  -1.985 123.191  0.00  0.00    -0.381 OA
ATOM     25  H   LIG A   1     -10.125  -1.601 123.705  0.00  0.00    +0.210 HD
ENDBRANCH   8  24
BRANCH   9  26
ATOM     26  O   LIG A   1      -9.681  -1.734 125.982  0.00  0.00    -0.370 OA
ATOM     27  C   LIG A   1      -9.660  -3.160 126.061  0.00  0.00    +0.195 C 
ENDBRANCH   9  26
BRANCH   4  28
ATOM     28  C   LIG A   1      -7.382   2.417 124.686  0.00  0.00    +0.037 C 
BRANCH  28  29
ATOM     29  C   LIG A   1      -6.855   3.070 123.436  0.00  0.00    -0.034 C 
ATOM     30  C   LIG A   1      -5.837   3.939 123.402  0.00  0.00    +0.004 C 
ENDBRANCH  28  29
ENDBRANCH   4  28
TORSDOF 7
ENDMDL
MODEL 7
REMARK VINA RESULT:      -6.7      2.481      4.573
REMARK  Name = NuBBE_2150
REMARK  10 active torsions:
REMARK  status: ('A' for Active; 'I' for Inactive)
REMARK    1  A    between atoms: C_1  and  O_2
REMARK    2  A    between atoms: O_2  and  C_3
REMARK    3  A    between atoms: C_10  and  C_11
REMARK    4  A    between atoms: C_13  and  C_15
REMARK    5  A    between atoms: C_16  and  C_17
REMARK    6  A    between atoms: C_17  and  C_18
REMARK    7  A    between atoms: C_20  and  O_21
REMARK    8  A    between atoms: C_25  and  O_27
REMARK    9  A    between atoms: C_28  and  O_29
REMARK   10  A    between atoms: O_29  and  C_30
REMARK                            x       y       z     vdW  Elec       q    Type
REMARK                         _______ _______ _______ _____ _____    ______ ____
ROOT
ATOM      1  C   LIG A   1      -7.110  -1.143 126.573  0.00  0.00    +0.060 C 
ATOM      2  C   LIG A   1      -6.519  -0.113 125.554  0.00  0.00    +0.006 C 
ATOM      3  C   LIG A   1      -4.991  -0.218 125.500  0.00  0.00    +0.009 C 
ATOM      4  C   LIG A   1      -7.292  -0.338 124.203  0.00  0.00    +0.013 C 
ATOM      5  C   LIG A   1      -8.630  -0.932 124.709  0.00  0.00    +0.157 C 
ATOM      6  C   LIG A   1      -6.619  -1.360 123.264  0.00  0.00    +0.087 C 
ATOM      7  C   LIG A   1      -6.385  -2.670 123.972  0.00  0.00    +0.165 C 
ATOM      8  C   LIG A   1      -7.450  -3.156 124.947  0.00  0.00    +0.215 C 
ATOM      9  C   LIG A   1      -8.136  -1.985 125.731  0.00  0.00    +0.135 C 
ATOM     10  O   LIG A   1      -5.383  -3.354 123.713  0.00  0.00    -0.294 OA
ENDROOT
BRANCH   1  18
ATOM     11  C   LIG A   1      -8.510   1.673 128.825  0.00  0.00    +0.166 A 
ATOM     12  C   LIG A   1      -8.384   1.085 130.069  0.00  0.00    +0.207 A 
ATOM     13  O   LIG A   1      -8.639   1.642 131.287  0.00  0.00    -0.449 OA
ATOM     14  C   LIG A   1      -8.176   0.613 132.176  0.00  0.00    +0.467 C 
ATOM     15  O   LIG A   1      -7.866  -0.615 131.497  0.00  0.00    -0.453 OA
ATOM     16  C   LIG A   1      -7.938  -0.208 130.198  0.00  0.00    +0.170 A 
ATOM     17  C   LIG A   1      -7.573  -0.980 129.113  0.00  0.00    +0.053 A 
ATOM     18  C   LIG A   1      -7.611  -0.413 127.831  0.00  0.00    -0.034 A 
ATOM     19  C   LIG A   1      -8.116   0.910 127.707  0.00  0.00    +0.053 A 
BRANCH  11  21
ATOM     20  C   LIG A   1      -8.026   3.995 128.776  0.00  0.00    +0.277 C 
ATOM     21  O   LIG A   1      -8.955   2.937 128.552  0.00  0.00    -0.491 OA
ENDBRANCH  11  21
ENDBRANCH   1  18
BRANCH   5  22
ATOM     22  O   LIG A   1      -9.416  -1.503 123.668  0.00  0.00    -0.388 OA
ATOM     23  H   LIG A   1      -9.309  -2.474 123.750  0.00  0.00    +0.210 HD
ENDBRANCH   5  22
BRANCH   8  24
ATOM     24  O   LIG A   1      -8.411  -3.939 124.230  0.00  0.00    -0.381 OA
ATOM     25  H   LIG A   1      -8.897  -4.466 124.895  0.00  0.00    +0.210 HD
ENDBRANCH   8  24
BRANCH   9  26
ATOM     26  O   LIG A   1      -9.257  -2.480 126.487  0.00  0.00    -0.370 OA
ATOM     27  C   LIG A   1      -8.993  -3.646 127.267  0.00  0.00    +0.195 C 
ENDBRANCH   9  26
BRANCH   4  28
ATOM     28  C   LIG A   1      -7.557   0.989 123.441  0.00  0.00    +0.037 C 
BRANCH  28  29
ATOM     29  C   LIG A   1      -7.606   2.226 124.298  0.00  0.00    -0.034 C 
ATOM     30  C   LIG A   1      -8.723   2.894 124.607  0.00  0.00    +0.004 C 
ENDBRANCH  28  29
ENDBRANCH   4  28
TORSDOF 7
ENDMDL
MODEL 8
REMARK VINA RESULT:      -6.7      2.277      4.047
REMARK  Name = NuBBE_2150
REMARK  10 active torsions:
REMARK  status: ('A' for Active; 'I' for Inactive)
REMARK    1  A    between atoms: C_1  and  O_2
REMARK    2  A    between atoms: O_2  and  C_3
REMARK    3  A    between atoms: C_10  and  C_11
REMARK    4  A    between atoms: C_13  and  C_15
REMARK    5  A    between atoms: C_16  and  C_17
REMARK    6  A    between atoms: C_17  and  C_18
REMARK    7  A    between atoms: C_20  and  O_21
REMARK    8  A    between atoms: C_25  and  O_27
REMARK    9  A    between atoms: C_28  and  O_29
REMARK   10  A    between atoms: O_29  and  C_30
REMARK                            x       y       z     vdW  Elec       q    Type
REMARK                         _______ _______ _______ _____ _____    ______ ____
ROOT
ATOM      1  C   LIG A   1      -7.379  -1.099 126.318  0.00  0.00    +0.060 C 
ATOM      2  C   LIG A   1      -6.668   0.235 125.915  0.00  0.00    +0.006 C 
ATOM      3  C   LIG A   1      -5.207  -0.024 125.529  0.00  0.00    +0.009 C 
ATOM      4  C   LIG A   1      -7.580   0.906 124.824  0.00  0.00    +0.013 C 
ATOM      5  C   LIG A   1      -8.967   0.316 125.175  0.00  0.00    +0.157 C 
ATOM      6  C   LIG A   1      -7.220   0.503 123.378  0.00  0.00    +0.087 C 
ATOM      7  C   LIG A   1      -7.214  -0.995 123.223  0.00  0.00    +0.165 C 
ATOM      8  C   LIG A   1      -8.274  -1.796 123.968  0.00  0.00    +0.215 C 
ATOM      9  C   LIG A   1      -8.627  -1.183 125.367  0.00  0.00    +0.135 C 
ATOM     10  O   LIG A   1      -6.406  -1.545 122.458  0.00  0.00    -0.294 OA
ENDROOT
BRANCH   1  18
ATOM     11  C   LIG A   1      -8.020   0.135 129.927  0.00  0.00    +0.166 A 
ATOM     12  C   LIG A   1      -7.863  -1.046 130.628  0.00  0.00    +0.207 A 
ATOM     13  O   LIG A   1      -7.885  -1.227 131.979  0.00  0.00    -0.449 OA
ATOM     14  C   LIG A   1      -7.513  -2.609 132.091  0.00  0.00    +0.467 C 
ATOM     15  O   LIG A   1      -7.494  -3.288 130.823  0.00  0.00    -0.453 OA
ATOM     16  C   LIG A   1      -7.636  -2.232 129.972  0.00  0.00    +0.170 A 
ATOM     17  C   LIG A   1      -7.529  -2.313 128.598  0.00  0.00    +0.053 A 
ATOM     18  C   LIG A   1      -7.607  -1.136 127.839  0.00  0.00    -0.034 A 
ATOM     19  C   LIG A   1      -7.887   0.077 128.525  0.00  0.00    +0.053 A 
BRANCH  11  21
ATOM     20  C   LIG A   1      -8.491   2.422 129.507  0.00  0.00    +0.277 C 
ATOM     21  O   LIG A   1      -8.268   1.375 130.449  0.00  0.00    -0.491 OA
ENDBRANCH  11  21
ENDBRANCH   1  18
BRANCH   5  22
ATOM     22  O   LIG A   1      -9.940   0.532 124.158  0.00  0.00    -0.388 OA
ATOM     23  H   LIG A   1     -10.809   0.349 124.572  0.00  0.00    +0.210 HD
ENDBRANCH   5  22
BRANCH   8  24
ATOM     24  O   LIG A   1      -9.436  -1.910 123.138  0.00  0.00    -0.381 OA
ATOM     25  H   LIG A   1     -10.193  -1.590 123.669  0.00  0.00    +0.210 HD
ENDBRANCH   8  24
BRANCH   9  26
ATOM     26  O   LIG A   1      -9.762  -1.861 125.936  0.00  0.00    -0.370 OA
ATOM     27  C   LIG A   1      -9.699  -3.287 125.894  0.00  0.00    +0.195 C 
ENDBRANCH   9  26
BRANCH   4  28
ATOM     28  C   LIG A   1      -7.617   2.454 124.949  0.00  0.00    +0.037 C 
BRANCH  28  29
ATOM     29  C   LIG A   1      -6.779   3.202 123.946  0.00  0.00    -0.034 C 
ATOM     30  C   LIG A   1      -5.638   3.839 124.232  0.00  0.00    +0.004 C 
ENDBRANCH  28  29
ENDBRANCH   4  28
TORSDOF 7
ENDMDL
MODEL 9
REMARK VINA RESULT:      -6.5      7.747     10.542
REMARK  Name = NuBBE_2150
REMARK  10 active torsions:
REMARK  status: ('A' for Active; 'I' for Inactive)
REMARK    1  A    between atoms: C_1  and  O_2
REMARK    2  A    between atoms: O_2  and  C_3
REMARK    3  A    between atoms: C_10  and  C_11
REMARK    4  A    between atoms: C_13  and  C_15
REMARK    5  A    between atoms: C_16  and  C_17
REMARK    6  A    between atoms: C_17  and  C_18
REMARK    7  A    between atoms: C_20  and  O_21
REMARK    8  A    between atoms: C_25  and  O_27
REMARK    9  A    between atoms: C_28  and  O_29
REMARK   10  A    between atoms: O_29  and  C_30
REMARK                            x       y       z     vdW  Elec       q    Type
REMARK                         _______ _______ _______ _____ _____    ______ ____
ROOT
ATOM      1  C   LIG A   1      -5.215   6.571 131.420  0.00  0.00    +0.060 C 
ATOM      2  C   LIG A   1      -4.345   6.826 130.145  0.00  0.00    +0.006 C 
ATOM      3  C   LIG A   1      -4.117   8.327 129.934  0.00  0.00    +0.009 C 
ATOM      4  C   LIG A   1      -3.062   5.931 130.303  0.00  0.00    +0.013 C 
ATOM      5  C   LIG A   1      -3.585   4.801 131.223  0.00  0.00    +0.157 C 
ATOM      6  C   LIG A   1      -1.889   6.643 131.009  0.00  0.00    +0.087 C 
ATOM      7  C   LIG A   1      -2.321   7.200 132.341  0.00  0.00    +0.165 C 
ATOM      8  C   LIG A   1      -3.295   6.380 133.177  0.00  0.00    +0.215 C 
ATOM      9  C   LIG A   1      -4.344   5.608 132.305  0.00  0.00    +0.135 C 
ATOM     10  O   LIG A   1      -1.842   8.263 132.762  0.00  0.00    -0.294 OA
ENDROOT
BRANCH   1  18
ATOM     11  C   LIG A   1      -8.037   4.735 129.516  0.00  0.00    +0.166 A 
ATOM     12  C   LIG A   1      -9.148   5.353 130.058  0.00  0.00    +0.207 A 
ATOM     13  O   LIG A   1     -10.455   5.182 129.707  0.00  0.00    -0.449 OA
ATOM     14  C   LIG A   1     -11.100   6.192 130.500  0.00  0.00    +0.467 C 
ATOM     15  O   LIG A   1     -10.220   6.791 131.466  0.00  0.00    -0.453 OA
ATOM     16  C   LIG A   1      -9.022   6.279 131.065  0.00  0.00    +0.170 A 
ATOM     17  C   LIG A   1      -7.796   6.662 131.573  0.00  0.00    +0.053 A 
ATOM     18  C   LIG A   1      -6.629   6.122 131.013  0.00  0.00    -0.034 A 
ATOM     19  C   LIG A   1      -6.776   5.132 130.003  0.00  0.00    +0.053 A 
BRANCH  11  21
ATOM     20  C   LIG A   1      -7.826   2.441 128.952  0.00  0.00    +0.277 C 
ATOM     21  O   LIG A   1      -8.020   3.788 128.530  0.00  0.00    -0.491 OA
ENDBRANCH  11  21
ENDBRANCH   1  18
BRANCH   5  22
ATOM     22  O   LIG A   1      -2.544   3.996 131.767  0.00  0.00    -0.388 OA
ATOM     23  H   LIG A   1      -1.889   4.620 132.144  0.00  0.00    +0.210 HD
ENDBRANCH   5  22
BRANCH   8  24
ATOM     24  O   LIG A   1      -2.550   5.486 134.012  0.00  0.00    -0.381 OA
ATOM     25  H   LIG A   1      -3.048   4.645 134.039  0.00  0.00    +0.210 HD
ENDBRANCH   8  24
BRANCH   9  26
ATOM     26  O   LIG A   1      -5.108   4.705 133.127  0.00  0.00    -0.370 OA
ATOM     27  C   LIG A   1      -5.706   5.297 134.281  0.00  0.00    +0.195 C 
ENDBRANCH   9  26
BRANCH   4  28
ATOM     28  C   LIG A   1      -2.584   5.333 128.952  0.00  0.00    +0.037 C 
BRANCH  28  29
ATOM     29  C   LIG A   1      -3.572   5.425 127.820  0.00  0.00    -0.034 C 
ATOM     30  C   LIG A   1      -4.250   4.388 127.315  0.00  0.00    +0.004 C 
ENDBRANCH  28  29
ENDBRANCH   4  28
TORSDOF 7
ENDMDL
