MODEL 1
REMARK VINA RESULT:      -6.2      0.000      0.000
REMARK  Name = NuBBE_168
REMARK  21 active torsions:
REMARK  status: ('A' for Active; 'I' for Inactive)
REMARK    1  A    between atoms: O_1  and  C_2
REMARK    2  A    between atoms: C_4  and  C_6
REMARK    3  A    between atoms: C_8  and  O_9
REMARK    4  A    between atoms: O_9  and  C_10
REMARK    5  A    between atoms: C_10  and  C_11
REMARK    6  A    between atoms: C_10  and  C_12
REMARK    7  A    between atoms: C_10  and  C_13
REMARK    8  A    between atoms: C_15  and  C_17
REMARK    9  A    between atoms: C_17  and  C_18
REMARK   10  A    between atoms: C_18  and  C_19
REMARK   11  A    between atoms: C_19  and  C_20
REMARK   12  A    between atoms: C_20  and  C_21
REMARK   13  A    between atoms: C_21  and  C_22
REMARK   14  A    between atoms: C_22  and  C_23
REMARK   15  A    between atoms: C_23  and  C_24
REMARK   16  A    between atoms: C_24  and  C_25
REMARK   17  A    between atoms: C_25  and  C_26
REMARK   18  A    between atoms: C_26  and  C_27
REMARK   19  A    between atoms: C_27  and  C_28
REMARK   20  A    between atoms: C_28  and  C_29
REMARK   21  A    between atoms: C_29  and  C_30
REMARK                            x       y       z     vdW  Elec       q    Type
REMARK                         _______ _______ _______ _____ _____    ______ ____
ROOT
ATOM      1  C   LIG A   1      -8.189   3.630 125.058  0.00  0.00    +0.135 C 
ATOM      2  C   LIG A   1      -6.767   3.465 124.458  0.00  0.00    +0.105 C 
ATOM      3  C   LIG A   1      -5.917   4.730 124.612  0.00  0.00    +0.030 C 
ATOM      4  N   LIG A   1      -6.163   2.184 124.925  0.00  0.00    -0.259 N 
ATOM      5  C   LIG A   1      -5.450   2.076 126.111  0.00  0.00    +0.404 C 
ATOM      6  O   LIG A   1      -5.042   1.004 126.570  0.00  0.00    -0.226 OA
ATOM      7  C   LIG A   1      -6.947   1.019 124.475  0.00  0.00    +0.080 C 
ATOM      8  C   LIG A   1      -8.312   1.080 125.194  0.00  0.00    +0.025 C 
ATOM      9  C   LIG A   1      -9.047   2.377 124.829  0.00  0.00    +0.035 C 
ENDROOT
BRANCH   1  10
ATOM     10  O   LIG A   1      -8.145   3.896 126.459  0.00  0.00    -0.390 OA
ATOM     11  H   LIG A   1      -7.496   4.607 126.599  0.00  0.00    +0.210 HD
ENDBRANCH   1  10
BRANCH   5  12
ATOM     12  O   LIG A   1      -5.300   3.254 126.760  0.00  0.00    -0.445 OA
BRANCH  12  13
ATOM     13  C   LIG A   1      -4.053   3.613 127.405  0.00  0.00    +0.107 C 
ATOM     14  C   LIG A   1      -3.894   2.855 128.726  0.00  0.00    +0.055 C 
ATOM     15  C   LIG A   1      -2.875   3.371 126.460  0.00  0.00    +0.055 C 
ATOM     16  C   LIG A   1      -4.137   5.125 127.694  0.00  0.00    +0.055 C 
ENDBRANCH  12  13
ENDBRANCH   5  12
BRANCH   7  17
ATOM     17  C   LIG A   1      -6.372  -0.407 124.585  0.00  0.00    +0.022 C 
BRANCH  17  18
ATOM     18  C   LIG A   1      -6.866  -1.394 123.526  0.00  0.00    +0.002 C 
BRANCH  18  19
ATOM     19  C   LIG A   1      -6.350  -2.829 123.736  0.00  0.00    +0.000 C 
BRANCH  19  20
ATOM     20  C   LIG A   1      -7.280  -3.733 124.561  0.00  0.00    -0.000 C 
BRANCH  20  21
ATOM     21  C   LIG A   1      -8.774  -3.418 124.390  0.00  0.00    -0.000 C 
BRANCH  21  22
ATOM     22  C   LIG A   1      -9.437  -2.908 125.676  0.00  0.00    -0.000 C 
BRANCH  22  23
ATOM     23  C   LIG A   1      -8.583  -3.217 126.908  0.00  0.00    -0.000 C 
BRANCH  23  24
ATOM     24  C   LIG A   1      -8.028  -1.940 127.554  0.00  0.00    -0.000 C 
BRANCH  24  25
ATOM     25  C   LIG A   1      -7.253  -2.179 128.866  0.00  0.00    +0.000 C 
BRANCH  25  26
ATOM     26  C   LIG A   1      -7.259  -3.650 129.320  0.00  0.00    +0.000 C 
BRANCH  26  27
ATOM     27  C   LIG A   1      -6.280  -3.952 130.464  0.00  0.00    +0.007 C 
BRANCH  27  28
ATOM     28  C   LIG A   1      -5.335  -2.788 130.801  0.00  0.00    +0.074 C 
BRANCH  28  29
ATOM     29  C   LIG A   1      -3.872  -3.006 130.450  0.00  0.00    +0.130 C 
ATOM     30  C   LIG A   1      -3.553  -3.673 129.136  0.00  0.00    +0.086 C 
ATOM     31  O   LIG A   1      -2.973  -2.705 131.239  0.00  0.00    -0.298 OA
ENDBRANCH  28  29
ENDBRANCH  27  28
ENDBRANCH  26  27
ENDBRANCH  25  26
ENDBRANCH  24  25
ENDBRANCH  23  24
ENDBRANCH  22  23
ENDBRANCH  21  22
ENDBRANCH  20  21
ENDBRANCH  19  20
ENDBRANCH  18  19
ENDBRANCH  17  18
ENDBRANCH   7  17
TORSDOF 16
ENDMDL
MODEL 2
REMARK VINA RESULT:      -6.2      3.037      6.998
REMARK  Name = NuBBE_168
REMARK  21 active torsions:
REMARK  status: ('A' for Active; 'I' for Inactive)
REMARK    1  A    between atoms: O_1  and  C_2
REMARK    2  A    between atoms: C_4  and  C_6
REMARK    3  A    between atoms: C_8  and  O_9
REMARK    4  A    between atoms: O_9  and  C_10
REMARK    5  A    between atoms: C_10  and  C_11
REMARK    6  A    between atoms: C_10  and  C_12
REMARK    7  A    between atoms: C_10  and  C_13
REMARK    8  A    between atoms: C_15  and  C_17
REMARK    9  A    between atoms: C_17  and  C_18
REMARK   10  A    between atoms: C_18  and  C_19
REMARK   11  A    between atoms: C_19  and  C_20
REMARK   12  A    between atoms: C_20  and  C_21
REMARK   13  A    between atoms: C_21  and  C_22
REMARK   14  A    between atoms: C_22  and  C_23
REMARK   15  A    between atoms: C_23  and  C_24
REMARK   16  A    between atoms: C_24  and  C_25
REMARK   17  A    between atoms: C_25  and  C_26
REMARK   18  A    between atoms: C_26  and  C_27
REMARK   19  A    between atoms: C_27  and  C_28
REMARK   20  A    between atoms: C_28  and  C_29
REMARK   21  A    between atoms: C_29  and  C_30
REMARK                            x       y       z     vdW  Elec       q    Type
REMARK                         _______ _______ _______ _____ _____    ______ ____
ROOT
ATOM      1  C   LIG A   1      -5.853  -3.792 132.357  0.00  0.00    +0.135 C 
ATOM      2  C   LIG A   1      -7.234  -3.085 132.400  0.00  0.00    +0.105 C 
ATOM      3  C   LIG A   1      -7.456  -2.314 133.705  0.00  0.00    +0.030 C 
ATOM      4  N   LIG A   1      -7.464  -2.341 131.128  0.00  0.00    -0.259 N 
ATOM      5  C   LIG A   1      -7.034  -1.036 130.930  0.00  0.00    +0.404 C 
ATOM      6  O   LIG A   1      -7.114  -0.445 129.849  0.00  0.00    -0.226 OA
ATOM      7  C   LIG A   1      -7.492  -3.249 129.966  0.00  0.00    +0.080 C 
ATOM      8  C   LIG A   1      -6.073  -3.838 129.811  0.00  0.00    +0.025 C 
ATOM      9  C   LIG A   1      -5.680  -4.617 131.073  0.00  0.00    +0.035 C 
ENDROOT
BRANCH   1  10
ATOM     10  O   LIG A   1      -4.777  -2.858 132.441  0.00  0.00    -0.390 OA
ATOM     11  H   LIG A   1      -4.633  -2.500 131.547  0.00  0.00    +0.210 HD
ENDBRANCH   1  10
BRANCH   5  12
ATOM     12  O   LIG A   1      -6.452  -0.489 132.022  0.00  0.00    -0.445 OA
BRANCH  12  13
ATOM     13  C   LIG A   1      -5.414   0.517 131.905  0.00  0.00    +0.107 C 
ATOM     14  C   LIG A   1      -4.388   0.110 130.844  0.00  0.00    +0.055 C 
ATOM     15  C   LIG A   1      -6.029   1.886 131.611  0.00  0.00    +0.055 C 
ATOM     16  C   LIG A   1      -4.722   0.584 133.281  0.00  0.00    +0.055 C 
ENDBRANCH  12  13
ENDBRANCH   5  12
BRANCH   7  17
ATOM     17  C   LIG A   1      -7.998  -2.758 128.595  0.00  0.00    +0.022 C 
BRANCH  17  18
ATOM     18  C   LIG A   1      -8.726  -3.807 127.754  0.00  0.00    +0.002 C 
BRANCH  18  19
ATOM     19  C   LIG A   1      -9.236  -3.266 126.406  0.00  0.00    +0.000 C 
BRANCH  19  20
ATOM     20  C   LIG A   1      -8.538  -3.856 125.170  0.00  0.00    -0.000 C 
BRANCH  20  21
ATOM     21  C   LIG A   1      -8.868  -3.130 123.856  0.00  0.00    -0.000 C 
BRANCH  21  22
ATOM     22  C   LIG A   1      -7.681  -2.348 123.280  0.00  0.00    -0.000 C 
BRANCH  22  23
ATOM     23  C   LIG A   1      -6.359  -2.782 123.921  0.00  0.00    -0.000 C 
BRANCH  23  24
ATOM     24  C   LIG A   1      -5.598  -1.592 124.522  0.00  0.00    -0.000 C 
BRANCH  24  25
ATOM     25  C   LIG A   1      -6.156  -1.101 125.873  0.00  0.00    +0.000 C 
BRANCH  25  26
ATOM     26  C   LIG A   1      -6.827   0.281 125.791  0.00  0.00    +0.000 C 
BRANCH  26  27
ATOM     27  C   LIG A   1      -8.192   0.353 126.492  0.00  0.00    +0.007 C 
BRANCH  27  28
ATOM     28  C   LIG A   1      -9.390   0.221 125.540  0.00  0.00    +0.074 C 
BRANCH  28  29
ATOM     29  C   LIG A   1      -9.577   1.365 124.556  0.00  0.00    +0.130 C 
ATOM     30  C   LIG A   1      -9.901   1.020 123.125  0.00  0.00    +0.086 C 
ATOM     31  O   LIG A   1      -9.412   2.537 124.900  0.00  0.00    -0.298 OA
ENDBRANCH  28  29
ENDBRANCH  27  28
ENDBRANCH  26  27
ENDBRANCH  25  26
ENDBRANCH  24  25
ENDBRANCH  23  24
ENDBRANCH  22  23
ENDBRANCH  21  22
ENDBRANCH  20  21
ENDBRANCH  19  20
ENDBRANCH  18  19
ENDBRANCH  17  18
ENDBRANCH   7  17
TORSDOF 16
ENDMDL
MODEL 3
REMARK VINA RESULT:      -6.2      1.846      2.326
REMARK  Name = NuBBE_168
REMARK  21 active torsions:
REMARK  status: ('A' for Active; 'I' for Inactive)
REMARK    1  A    between atoms: O_1  and  C_2
REMARK    2  A    between atoms: C_4  and  C_6
REMARK    3  A    between atoms: C_8  and  O_9
REMARK    4  A    between atoms: O_9  and  C_10
REMARK    5  A    between atoms: C_10  and  C_11
REMARK    6  A    between atoms: C_10  and  C_12
REMARK    7  A    between atoms: C_10  and  C_13
REMARK    8  A    between atoms: C_15  and  C_17
REMARK    9  A    between atoms: C_17  and  C_18
REMARK   10  A    between atoms: C_18  and  C_19
REMARK   11  A    between atoms: C_19  and  C_20
REMARK   12  A    between atoms: C_20  and  C_21
REMARK   13  A    between atoms: C_21  and  C_22
REMARK   14  A    between atoms: C_22  and  C_23
REMARK   15  A    between atoms: C_23  and  C_24
REMARK   16  A    between atoms: C_24  and  C_25
REMARK   17  A    between atoms: C_25  and  C_26
REMARK   18  A    between atoms: C_26  and  C_27
REMARK   19  A    between atoms: C_27  and  C_28
REMARK   20  A    between atoms: C_28  and  C_29
REMARK   21  A    between atoms: C_29  and  C_30
REMARK                            x       y       z     vdW  Elec       q    Type
REMARK                         _______ _______ _______ _____ _____    ______ ____
ROOT
ATOM      1  C   LIG A   1      -8.435   3.064 123.613  0.00  0.00    +0.135 C 
ATOM      2  C   LIG A   1      -6.914   2.833 123.409  0.00  0.00    +0.105 C 
ATOM      3  C   LIG A   1      -6.096   4.111 123.615  0.00  0.00    +0.030 C 
ATOM      4  N   LIG A   1      -6.479   1.622 124.162  0.00  0.00    -0.259 N 
ATOM      5  C   LIG A   1      -6.083   1.663 125.491  0.00  0.00    +0.404 C 
ATOM      6  O   LIG A   1      -5.829   0.658 126.163  0.00  0.00    -0.226 OA
ATOM      7  C   LIG A   1      -7.158   0.407 123.675  0.00  0.00    +0.080 C 
ATOM      8  C   LIG A   1      -8.656   0.550 124.019  0.00  0.00    +0.025 C 
ATOM      9  C   LIG A   1      -9.244   1.789 123.330  0.00  0.00    +0.035 C 
ENDROOT
BRANCH   1  10
ATOM     10  O   LIG A   1      -8.732   3.501 124.939  0.00  0.00    -0.390 OA
ATOM     11  H   LIG A   1      -9.063   4.414 124.876  0.00  0.00    +0.210 HD
ENDBRANCH   1  10
BRANCH   5  12
ATOM     12  O   LIG A   1      -6.067   2.912 126.011  0.00  0.00    -0.445 OA
BRANCH  12  13
ATOM     13  C   LIG A   1      -5.032   3.340 126.930  0.00  0.00    +0.107 C 
ATOM     14  C   LIG A   1      -5.346   2.863 128.352  0.00  0.00    +0.055 C 
ATOM     15  C   LIG A   1      -3.661   2.856 126.454  0.00  0.00    +0.055 C 
ATOM     16  C   LIG A   1      -5.037   4.882 126.900  0.00  0.00    +0.055 C 
ENDBRANCH  12  13
ENDBRANCH   5  12
BRANCH   7  17
ATOM     17  C   LIG A   1      -6.666  -0.992 124.094  0.00  0.00    +0.022 C 
BRANCH  17  18
ATOM     18  C   LIG A   1      -7.146  -2.146 123.212  0.00  0.00    +0.002 C 
BRANCH  18  19
ATOM     19  C   LIG A   1      -7.691  -3.344 124.010  0.00  0.00    +0.000 C 
BRANCH  19  20
ATOM     20  C   LIG A   1      -9.214  -3.340 124.217  0.00  0.00    -0.000 C 
BRANCH  20  21
ATOM     21  C   LIG A   1      -9.650  -3.047 125.662  0.00  0.00    -0.000 C 
BRANCH  21  22
ATOM     22  C   LIG A   1      -8.490  -3.086 126.665  0.00  0.00    -0.000 C 
BRANCH  22  23
ATOM     23  C   LIG A   1      -8.852  -3.903 127.909  0.00  0.00    -0.000 C 
BRANCH  23  24
ATOM     24  C   LIG A   1      -8.367  -3.226 129.198  0.00  0.00    -0.000 C 
BRANCH  24  25
ATOM     25  C   LIG A   1      -6.852  -3.360 129.451  0.00  0.00    +0.000 C 
BRANCH  25  26
ATOM     26  C   LIG A   1      -6.498  -3.600 130.930  0.00  0.00    +0.000 C 
BRANCH  26  27
ATOM     27  C   LIG A   1      -7.337  -2.771 131.913  0.00  0.00    +0.007 C 
BRANCH  27  28
ATOM     28  C   LIG A   1      -6.662  -1.466 132.364  0.00  0.00    +0.074 C 
BRANCH  28  29
ATOM     29  C   LIG A   1      -7.580  -0.259 132.484  0.00  0.00    +0.130 C 
ATOM     30  C   LIG A   1      -8.716  -0.136 131.501  0.00  0.00    +0.086 C 
ATOM     31  O   LIG A   1      -7.370   0.623 133.319  0.00  0.00    -0.298 OA
ENDBRANCH  28  29
ENDBRANCH  27  28
ENDBRANCH  26  27
ENDBRANCH  25  26
ENDBRANCH  24  25
ENDBRANCH  23  24
ENDBRANCH  22  23
ENDBRANCH  21  22
ENDBRANCH  20  21
ENDBRANCH  19  20
ENDBRANCH  18  19
ENDBRANCH  17  18
ENDBRANCH   7  17
TORSDOF 16
ENDMDL
MODEL 4
REMARK VINA RESULT:      -6.1      3.807      5.991
REMARK  Name = NuBBE_168
REMARK  21 active torsions:
REMARK  status: ('A' for Active; 'I' for Inactive)
REMARK    1  A    between atoms: O_1  and  C_2
REMARK    2  A    between atoms: C_4  and  C_6
REMARK    3  A    between atoms: C_8  and  O_9
REMARK    4  A    between atoms: O_9  and  C_10
REMARK    5  A    between atoms: C_10  and  C_11
REMARK    6  A    between atoms: C_10  and  C_12
REMARK    7  A    between atoms: C_10  and  C_13
REMARK    8  A    between atoms: C_15  and  C_17
REMARK    9  A    between atoms: C_17  and  C_18
REMARK   10  A    between atoms: C_18  and  C_19
REMARK   11  A    between atoms: C_19  and  C_20
REMARK   12  A    between atoms: C_20  and  C_21
REMARK   13  A    between atoms: C_21  and  C_22
REMARK   14  A    between atoms: C_22  and  C_23
REMARK   15  A    between atoms: C_23  and  C_24
REMARK   16  A    between atoms: C_24  and  C_25
REMARK   17  A    between atoms: C_25  and  C_26
REMARK   18  A    between atoms: C_26  and  C_27
REMARK   19  A    between atoms: C_27  and  C_28
REMARK   20  A    between atoms: C_28  and  C_29
REMARK   21  A    between atoms: C_29  and  C_30
REMARK                            x       y       z     vdW  Elec       q    Type
REMARK                         _______ _______ _______ _____ _____    ______ ____
ROOT
ATOM      1  C   LIG A   1      -7.293   2.047 131.325  0.00  0.00    +0.135 C 
ATOM      2  C   LIG A   1      -8.705   2.093 130.681  0.00  0.00    +0.105 C 
ATOM      3  C   LIG A   1      -9.799   2.439 131.696  0.00  0.00    +0.030 C 
ATOM      4  N   LIG A   1      -8.665   2.899 129.427  0.00  0.00    -0.259 N 
ATOM      5  C   LIG A   1      -8.841   4.275 129.411  0.00  0.00    +0.404 C 
ATOM      6  O   LIG A   1      -8.699   4.973 128.401  0.00  0.00    -0.226 OA
ATOM      7  C   LIG A   1      -7.765   2.299 128.425  0.00  0.00    +0.080 C 
ATOM      8  C   LIG A   1      -6.329   2.395 128.983  0.00  0.00    +0.025 C 
ATOM      9  C   LIG A   1      -6.221   1.628 130.307  0.00  0.00    +0.035 C 
ENDROOT
BRANCH   1  10
ATOM     10  O   LIG A   1      -6.920   3.310 131.877  0.00  0.00    -0.390 OA
ATOM     11  H   LIG A   1      -7.312   3.364 132.766  0.00  0.00    +0.210 HD
ENDBRANCH   1  10
BRANCH   5  12
ATOM     12  O   LIG A   1      -9.116   4.799 130.628  0.00  0.00    -0.445 OA
BRANCH  12  13
ATOM     13  C   LIG A   1     -10.079   5.869 130.795  0.00  0.00    +0.107 C 
ATOM     14  C   LIG A   1      -9.540   7.175 130.204  0.00  0.00    +0.055 C 
ATOM     15  C   LIG A   1     -11.425   5.476 130.182  0.00  0.00    +0.055 C 
ATOM     16  C   LIG A   1     -10.273   6.042 132.315  0.00  0.00    +0.055 C 
ENDBRANCH  12  13
ENDBRANCH   5  12
BRANCH   7  17
ATOM     17  C   LIG A   1      -7.782   2.784 126.962  0.00  0.00    +0.022 C 
BRANCH  17  18
ATOM     18  C   LIG A   1      -8.419   1.819 125.960  0.00  0.00    +0.002 C 
BRANCH  18  19
ATOM     19  C   LIG A   1      -7.870   0.385 126.055  0.00  0.00    +0.000 C 
BRANCH  19  20
ATOM     20  C   LIG A   1      -6.362   0.254 125.787  0.00  0.00    -0.000 C 
BRANCH  20  21
ATOM     21  C   LIG A   1      -5.680  -0.872 126.580  0.00  0.00    -0.000 C 
BRANCH  21  22
ATOM     22  C   LIG A   1      -6.346  -1.153 127.932  0.00  0.00    -0.000 C 
BRANCH  22  23
ATOM     23  C   LIG A   1      -6.631  -2.646 128.119  0.00  0.00    -0.000 C 
BRANCH  23  24
ATOM     24  C   LIG A   1      -8.099  -2.907 128.481  0.00  0.00    -0.000 C 
BRANCH  24  25
ATOM     25  C   LIG A   1      -8.862  -3.764 127.450  0.00  0.00    +0.000 C 
BRANCH  25  26
ATOM     26  C   LIG A   1      -9.134  -3.028 126.126  0.00  0.00    +0.000 C 
BRANCH  26  27
ATOM     27  C   LIG A   1      -8.622  -3.773 124.884  0.00  0.00    +0.007 C 
BRANCH  27  28
ATOM     28  C   LIG A   1      -7.240  -3.307 124.402  0.00  0.00    +0.074 C 
BRANCH  28  29
ATOM     29  C   LIG A   1      -7.247  -2.262 123.297  0.00  0.00    +0.130 C 
ATOM     30  C   LIG A   1      -8.582  -1.802 122.769  0.00  0.00    +0.086 C 
ATOM     31  O   LIG A   1      -6.197  -1.844 122.805  0.00  0.00    -0.298 OA
ENDBRANCH  28  29
ENDBRANCH  27  28
ENDBRANCH  26  27
ENDBRANCH  25  26
ENDBRANCH  24  25
ENDBRANCH  23  24
ENDBRANCH  22  23
ENDBRANCH  21  22
ENDBRANCH  20  21
ENDBRANCH  19  20
ENDBRANCH  18  19
ENDBRANCH  17  18
ENDBRANCH   7  17
TORSDOF 16
ENDMDL
MODEL 5
REMARK VINA RESULT:      -6.1      2.584      6.717
REMARK  Name = NuBBE_168
REMARK  21 active torsions:
REMARK  status: ('A' for Active; 'I' for Inactive)
REMARK    1  A    between atoms: O_1  and  C_2
REMARK    2  A    between atoms: C_4  and  C_6
REMARK    3  A    between atoms: C_8  and  O_9
REMARK    4  A    between atoms: O_9  and  C_10
REMARK    5  A    between atoms: C_10  and  C_11
REMARK    6  A    between atoms: C_10  and  C_12
REMARK    7  A    between atoms: C_10  and  C_13
REMARK    8  A    between atoms: C_15  and  C_17
REMARK    9  A    between atoms: C_17  and  C_18
REMARK   10  A    between atoms: C_18  and  C_19
REMARK   11  A    between atoms: C_19  and  C_20
REMARK   12  A    between atoms: C_20  and  C_21
REMARK   13  A    between atoms: C_21  and  C_22
REMARK   14  A    between atoms: C_22  and  C_23
REMARK   15  A    between atoms: C_23  and  C_24
REMARK   16  A    between atoms: C_24  and  C_25
REMARK   17  A    between atoms: C_25  and  C_26
REMARK   18  A    between atoms: C_26  and  C_27
REMARK   19  A    between atoms: C_27  and  C_28
REMARK   20  A    between atoms: C_28  and  C_29
REMARK   21  A    between atoms: C_29  and  C_30
REMARK                            x       y       z     vdW  Elec       q    Type
REMARK                         _______ _______ _______ _____ _____    ______ ____
ROOT
ATOM      1  C   LIG A   1      -3.552  -2.829 130.152  0.00  0.00    +0.135 C 
ATOM      2  C   LIG A   1      -4.558  -3.221 131.268  0.00  0.00    +0.105 C 
ATOM      3  C   LIG A   1      -4.031  -2.898 132.669  0.00  0.00    +0.030 C 
ATOM      4  N   LIG A   1      -5.919  -2.719 130.924  0.00  0.00    -0.259 N 
ATOM      5  C   LIG A   1      -6.360  -1.447 131.261  0.00  0.00    +0.404 C 
ATOM      6  O   LIG A   1      -7.438  -0.973 130.887  0.00  0.00    -0.226 OA
ATOM      7  C   LIG A   1      -6.420  -3.321 129.675  0.00  0.00    +0.080 C 
ATOM      8  C   LIG A   1      -5.525  -2.808 128.527  0.00  0.00    +0.025 C 
ATOM      9  C   LIG A   1      -4.068  -3.227 128.761  0.00  0.00    +0.035 C 
ENDROOT
BRANCH   1  10
ATOM     10  O   LIG A   1      -3.284  -1.427 130.149  0.00  0.00    -0.390 OA
ATOM     11  H   LIG A   1      -4.030  -0.990 129.702  0.00  0.00    +0.210 HD
ENDBRANCH   1  10
BRANCH   5  12
ATOM     12  O   LIG A   1      -5.463  -0.739 131.986  0.00  0.00    -0.445 OA
BRANCH  12  13
ATOM     13  C   LIG A   1      -5.401   0.707 131.915  0.00  0.00    +0.107 C 
ATOM     14  C   LIG A   1      -5.503   1.179 130.462  0.00  0.00    +0.055 C 
ATOM     15  C   LIG A   1      -6.483   1.332 132.798  0.00  0.00    +0.055 C 
ATOM     16  C   LIG A   1      -4.024   1.108 132.483  0.00  0.00    +0.055 C 
ENDBRANCH  12  13
ENDBRANCH   5  12
BRANCH   7  17
ATOM     17  C   LIG A   1      -7.902  -3.182 129.272  0.00  0.00    +0.022 C 
BRANCH  17  18
ATOM     18  C   LIG A   1      -8.150  -2.587 127.886  0.00  0.00    +0.002 C 
BRANCH  18  19
ATOM     19  C   LIG A   1      -8.943  -3.518 126.951  0.00  0.00    +0.000 C 
BRANCH  19  20
ATOM     20  C   LIG A   1      -9.451  -2.854 125.661  0.00  0.00    -0.000 C 
BRANCH  20  21
ATOM     21  C   LIG A   1      -8.893  -3.479 124.372  0.00  0.00    -0.000 C 
BRANCH  21  22
ATOM     22  C   LIG A   1      -7.432  -3.927 124.498  0.00  0.00    -0.000 C 
BRANCH  22  23
ATOM     23  C   LIG A   1      -6.479  -2.929 123.834  0.00  0.00    -0.000 C 
BRANCH  23  24
ATOM     24  C   LIG A   1      -5.686  -2.121 124.870  0.00  0.00    -0.000 C 
BRANCH  24  25
ATOM     25  C   LIG A   1      -6.224  -0.696 125.107  0.00  0.00    +0.000 C 
BRANCH  25  26
ATOM     26  C   LIG A   1      -6.915  -0.089 123.873  0.00  0.00    +0.000 C 
BRANCH  26  27
ATOM     27  C   LIG A   1      -8.388   0.280 124.102  0.00  0.00    +0.007 C 
BRANCH  27  28
ATOM     28  C   LIG A   1      -8.700   0.742 125.534  0.00  0.00    +0.074 C 
BRANCH  28  29
ATOM     29  C   LIG A   1      -8.385   2.198 125.839  0.00  0.00    +0.130 C 
ATOM     30  C   LIG A   1      -7.355   2.490 126.900  0.00  0.00    +0.086 C 
ATOM     31  O   LIG A   1      -8.993   3.114 125.281  0.00  0.00    -0.298 OA
ENDBRANCH  28  29
ENDBRANCH  27  28
ENDBRANCH  26  27
ENDBRANCH  25  26
ENDBRANCH  24  25
ENDBRANCH  23  24
ENDBRANCH  22  23
ENDBRANCH  21  22
ENDBRANCH  20  21
ENDBRANCH  19  20
ENDBRANCH  18  19
ENDBRANCH  17  18
ENDBRANCH   7  17
TORSDOF 16
ENDMDL
MODEL 6
REMARK VINA RESULT:      -6.0      3.064      7.695
REMARK  Name = NuBBE_168
REMARK  21 active torsions:
REMARK  status: ('A' for Active; 'I' for Inactive)
REMARK    1  A    between atoms: O_1  and  C_2
REMARK    2  A    between atoms: C_4  and  C_6
REMARK    3  A    between atoms: C_8  and  O_9
REMARK    4  A    between atoms: O_9  and  C_10
REMARK    5  A    between atoms: C_10  and  C_11
REMARK    6  A    between atoms: C_10  and  C_12
REMARK    7  A    between atoms: C_10  and  C_13
REMARK    8  A    between atoms: C_15  and  C_17
REMARK    9  A    between atoms: C_17  and  C_18
REMARK   10  A    between atoms: C_18  and  C_19
REMARK   11  A    between atoms: C_19  and  C_20
REMARK   12  A    between atoms: C_20  and  C_21
REMARK   13  A    between atoms: C_21  and  C_22
REMARK   14  A    between atoms: C_22  and  C_23
REMARK   15  A    between atoms: C_23  and  C_24
REMARK   16  A    between atoms: C_24  and  C_25
REMARK   17  A    between atoms: C_25  and  C_26
REMARK   18  A    between atoms: C_26  and  C_27
REMARK   19  A    between atoms: C_27  and  C_28
REMARK   20  A    between atoms: C_28  and  C_29
REMARK   21  A    between atoms: C_29  and  C_30
REMARK                            x       y       z     vdW  Elec       q    Type
REMARK                         _______ _______ _______ _____ _____    ______ ____
ROOT
ATOM      1  C   LIG A   1      -3.856  -3.847 130.345  0.00  0.00    +0.135 C 
ATOM      2  C   LIG A   1      -5.128  -4.551 130.888  0.00  0.00    +0.105 C 
ATOM      3  C   LIG A   1      -4.924  -5.123 132.294  0.00  0.00    +0.030 C 
ATOM      4  N   LIG A   1      -6.320  -3.679 130.678  0.00  0.00    -0.259 N 
ATOM      5  C   LIG A   1      -6.716  -2.713 131.593  0.00  0.00    +0.404 C 
ATOM      6  O   LIG A   1      -7.629  -1.907 131.386  0.00  0.00    -0.226 OA
ATOM      7  C   LIG A   1      -6.560  -3.423 129.246  0.00  0.00    +0.080 C 
ATOM      8  C   LIG A   1      -5.376  -2.580 128.727  0.00  0.00    +0.025 C 
ATOM      9  C   LIG A   1      -4.058  -3.345 128.907  0.00  0.00    +0.035 C 
ENDROOT
BRANCH   1  10
ATOM     10  O   LIG A   1      -3.474  -2.739 131.159  0.00  0.00    -0.390 OA
ATOM     11  H   LIG A   1      -2.937  -2.144 130.607  0.00  0.00    +0.210 HD
ENDBRANCH   1  10
BRANCH   5  12
ATOM     12  O   LIG A   1      -5.960  -2.688 132.714  0.00  0.00    -0.445 OA
BRANCH  12  13
ATOM     13  C   LIG A   1      -6.517  -2.314 133.998  0.00  0.00    +0.107 C 
ATOM     14  C   LIG A   1      -6.453  -0.795 134.190  0.00  0.00    +0.055 C 
ATOM     15  C   LIG A   1      -7.943  -2.848 134.138  0.00  0.00    +0.055 C 
ATOM     16  C   LIG A   1      -5.638  -2.997 135.066  0.00  0.00    +0.055 C 
ENDBRANCH  12  13
ENDBRANCH   5  12
BRANCH   7  17
ATOM     17  C   LIG A   1      -7.885  -2.798 128.769  0.00  0.00    +0.022 C 
BRANCH  17  18
ATOM     18  C   LIG A   1      -8.703  -3.656 127.802  0.00  0.00    +0.002 C 
BRANCH  18  19
ATOM     19  C   LIG A   1      -8.990  -2.962 126.459  0.00  0.00    +0.000 C 
BRANCH  19  20
ATOM     20  C   LIG A   1      -8.548  -3.755 125.218  0.00  0.00    -0.000 C 
BRANCH  20  21
ATOM     21  C   LIG A   1      -8.806  -3.031 123.887  0.00  0.00    -0.000 C 
BRANCH  21  22
ATOM     22  C   LIG A   1      -7.522  -2.553 123.197  0.00  0.00    -0.000 C 
BRANCH  22  23
ATOM     23  C   LIG A   1      -6.275  -2.968 123.983  0.00  0.00    -0.000 C 
BRANCH  23  24
ATOM     24  C   LIG A   1      -5.477  -1.751 124.472  0.00  0.00    -0.000 C 
BRANCH  24  25
ATOM     25  C   LIG A   1      -6.102  -1.027 125.681  0.00  0.00    +0.000 C 
BRANCH  25  26
ATOM     26  C   LIG A   1      -5.964   0.504 125.615  0.00  0.00    +0.000 C 
BRANCH  26  27
ATOM     27  C   LIG A   1      -7.298   1.242 125.426  0.00  0.00    +0.007 C 
BRANCH  27  28
ATOM     28  C   LIG A   1      -7.923   1.055 124.035  0.00  0.00    +0.074 C 
BRANCH  28  29
ATOM     29  C   LIG A   1      -9.369   0.584 124.023  0.00  0.00    +0.130 C 
ATOM     30  C   LIG A   1     -10.054   0.443 122.688  0.00  0.00    +0.086 C 
ATOM     31  O   LIG A   1      -9.984   0.381 125.072  0.00  0.00    -0.298 OA
ENDBRANCH  28  29
ENDBRANCH  27  28
ENDBRANCH  26  27
ENDBRANCH  25  26
ENDBRANCH  24  25
ENDBRANCH  23  24
ENDBRANCH  22  23
ENDBRANCH  21  22
ENDBRANCH  20  21
ENDBRANCH  19  20
ENDBRANCH  18  19
ENDBRANCH  17  18
ENDBRANCH   7  17
TORSDOF 16
ENDMDL
MODEL 7
REMARK VINA RESULT:      -5.9      3.458      6.448
REMARK  Name = NuBBE_168
REMARK  21 active torsions:
REMARK  status: ('A' for Active; 'I' for Inactive)
REMARK    1  A    between atoms: O_1  and  C_2
REMARK    2  A    between atoms: C_4  and  C_6
REMARK    3  A    between atoms: C_8  and  O_9
REMARK    4  A    between atoms: O_9  and  C_10
REMARK    5  A    between atoms: C_10  and  C_11
REMARK    6  A    between atoms: C_10  and  C_12
REMARK    7  A    between atoms: C_10  and  C_13
REMARK    8  A    between atoms: C_15  and  C_17
REMARK    9  A    between atoms: C_17  and  C_18
REMARK   10  A    between atoms: C_18  and  C_19
REMARK   11  A    between atoms: C_19  and  C_20
REMARK   12  A    between atoms: C_20  and  C_21
REMARK   13  A    between atoms: C_21  and  C_22
REMARK   14  A    between atoms: C_22  and  C_23
REMARK   15  A    between atoms: C_23  and  C_24
REMARK   16  A    between atoms: C_24  and  C_25
REMARK   17  A    between atoms: C_25  and  C_26
REMARK   18  A    between atoms: C_26  and  C_27
REMARK   19  A    between atoms: C_27  and  C_28
REMARK   20  A    between atoms: C_28  and  C_29
REMARK   21  A    between atoms: C_29  and  C_30
REMARK                            x       y       z     vdW  Elec       q    Type
REMARK                         _______ _______ _______ _____ _____    ______ ____
ROOT
ATOM      1  C   LIG A   1      -8.678  -2.569 123.309  0.00  0.00    +0.135 C 
ATOM      2  C   LIG A   1      -7.322  -2.056 123.865  0.00  0.00    +0.105 C 
ATOM      3  C   LIG A   1      -6.556  -1.208 122.845  0.00  0.00    +0.030 C 
ATOM      4  N   LIG A   1      -7.519  -1.470 125.222  0.00  0.00    -0.259 N 
ATOM      5  C   LIG A   1      -7.868  -0.143 125.425  0.00  0.00    +0.404 C 
ATOM      6  O   LIG A   1      -8.146   0.332 126.531  0.00  0.00    -0.226 OA
ATOM      7  C   LIG A   1      -8.014  -2.475 126.181  0.00  0.00    +0.080 C 
ATOM      8  C   LIG A   1      -9.435  -2.877 125.731  0.00  0.00    +0.025 C 
ATOM      9  C   LIG A   1      -9.396  -3.477 124.319  0.00  0.00    +0.035 C 
ENDROOT
BRANCH   1  10
ATOM     10  O   LIG A   1      -9.552  -1.494 122.968  0.00  0.00    -0.390 OA
ATOM     11  H   LIG A   1      -9.001  -0.703 122.836  0.00  0.00    +0.210 HD
ENDBRANCH   1  10
BRANCH   5  12
ATOM     12  O   LIG A   1      -7.945   0.577 124.281  0.00  0.00    -0.445 OA
BRANCH  12  13
ATOM     13  C   LIG A   1      -7.486   1.950 124.215  0.00  0.00    +0.107 C 
ATOM     14  C   LIG A   1      -7.104   2.320 122.779  0.00  0.00    +0.055 C 
ATOM     15  C   LIG A   1      -8.543   2.895 124.788  0.00  0.00    +0.055 C 
ATOM     16  C   LIG A   1      -6.232   2.029 125.110  0.00  0.00    +0.055 C 
ENDBRANCH  12  13
ENDBRANCH   5  12
BRANCH   7  17
ATOM     17  C   LIG A   1      -8.016  -2.185 127.695  0.00  0.00    +0.022 C 
BRANCH  17  18
ATOM     18  C   LIG A   1      -8.262  -3.398 128.592  0.00  0.00    +0.002 C 
BRANCH  18  19
ATOM     19  C   LIG A   1      -7.125  -3.659 129.597  0.00  0.00    +0.000 C 
BRANCH  19  20
ATOM     20  C   LIG A   1      -7.375  -3.105 131.009  0.00  0.00    -0.000 C 
BRANCH  20  21
ATOM     21  C   LIG A   1      -6.280  -2.151 131.512  0.00  0.00    -0.000 C 
BRANCH  21  22
ATOM     22  C   LIG A   1      -6.067  -0.937 130.599  0.00  0.00    -0.000 C 
BRANCH  22  23
ATOM     23  C   LIG A   1      -6.801   0.298 131.128  0.00  0.00    -0.000 C 
BRANCH  23  24
ATOM     24  C   LIG A   1      -8.240   0.376 130.602  0.00  0.00    -0.000 C 
BRANCH  24  25
ATOM     25  C   LIG A   1      -9.316   0.425 131.705  0.00  0.00    +0.000 C 
BRANCH  25  26
ATOM     26  C   LIG A   1      -9.762   1.855 132.061  0.00  0.00    +0.000 C 
BRANCH  26  27
ATOM     27  C   LIG A   1      -9.828   2.805 130.856  0.00  0.00    +0.007 C 
BRANCH  27  28
ATOM     28  C   LIG A   1      -9.131   4.154 131.086  0.00  0.00    +0.074 C 
BRANCH  28  29
ATOM     29  C   LIG A   1     -10.010   5.384 130.921  0.00  0.00    +0.130 C 
ATOM     30  C   LIG A   1      -9.348   6.737 130.979  0.00  0.00    +0.086 C 
ATOM     31  O   LIG A   1     -11.233   5.285 130.804  0.00  0.00    -0.298 OA
ENDBRANCH  28  29
ENDBRANCH  27  28
ENDBRANCH  26  27
ENDBRANCH  25  26
ENDBRANCH  24  25
ENDBRANCH  23  24
ENDBRANCH  22  23
ENDBRANCH  21  22
ENDBRANCH  20  21
ENDBRANCH  19  20
ENDBRANCH  18  19
ENDBRANCH  17  18
ENDBRANCH   7  17
TORSDOF 16
ENDMDL
MODEL 8
REMARK VINA RESULT:      -5.9      5.649      9.677
REMARK  Name = NuBBE_168
REMARK  21 active torsions:
REMARK  status: ('A' for Active; 'I' for Inactive)
REMARK    1  A    between atoms: O_1  and  C_2
REMARK    2  A    between atoms: C_4  and  C_6
REMARK    3  A    between atoms: C_8  and  O_9
REMARK    4  A    between atoms: O_9  and  C_10
REMARK    5  A    between atoms: C_10  and  C_11
REMARK    6  A    between atoms: C_10  and  C_12
REMARK    7  A    between atoms: C_10  and  C_13
REMARK    8  A    between atoms: C_15  and  C_17
REMARK    9  A    between atoms: C_17  and  C_18
REMARK   10  A    between atoms: C_18  and  C_19
REMARK   11  A    between atoms: C_19  and  C_20
REMARK   12  A    between atoms: C_20  and  C_21
REMARK   13  A    between atoms: C_21  and  C_22
REMARK   14  A    between atoms: C_22  and  C_23
REMARK   15  A    between atoms: C_23  and  C_24
REMARK   16  A    between atoms: C_24  and  C_25
REMARK   17  A    between atoms: C_25  and  C_26
REMARK   18  A    between atoms: C_26  and  C_27
REMARK   19  A    between atoms: C_27  and  C_28
REMARK   20  A    between atoms: C_28  and  C_29
REMARK   21  A    between atoms: C_29  and  C_30
REMARK                            x       y       z     vdW  Elec       q    Type
REMARK                         _______ _______ _______ _____ _____    ______ ____
ROOT
ATOM      1  C   LIG A   1      -9.556   2.644 131.208  0.00  0.00    +0.135 C 
ATOM      2  C   LIG A   1      -8.880   3.978 130.788  0.00  0.00    +0.105 C 
ATOM      3  C   LIG A   1      -9.208   4.369 129.344  0.00  0.00    +0.030 C 
ATOM      4  N   LIG A   1      -9.105   5.013 131.838  0.00  0.00    -0.259 N 
ATOM      5  C   LIG A   1     -10.226   5.829 131.862  0.00  0.00    +0.404 C 
ATOM      6  O   LIG A   1     -10.485   6.611 132.783  0.00  0.00    -0.226 OA
ATOM      7  C   LIG A   1      -8.500   4.621 133.124  0.00  0.00    +0.080 C 
ATOM      8  C   LIG A   1      -9.272   3.387 133.637  0.00  0.00    +0.025 C 
ATOM      9  C   LIG A   1      -9.156   2.233 132.633  0.00  0.00    +0.035 C 
ENDROOT
BRANCH   1  10
ATOM     10  O   LIG A   1     -10.979   2.728 131.145  0.00  0.00    -0.390 OA
ATOM     11  H   LIG A   1     -11.336   2.013 131.701  0.00  0.00    +0.210 HD
ENDBRANCH   1  10
BRANCH   5  12
ATOM     12  O   LIG A   1     -11.055   5.640 130.810  0.00  0.00    -0.445 OA
BRANCH  12  13
ATOM     13  C   LIG A   1     -11.703   6.752 130.143  0.00  0.00    +0.107 C 
ATOM     14  C   LIG A   1     -10.661   7.743 129.615  0.00  0.00    +0.055 C 
ATOM     15  C   LIG A   1     -12.625   6.245 129.033  0.00  0.00    +0.055 C 
ATOM     16  C   LIG A   1     -12.571   7.449 131.210  0.00  0.00    +0.055 C 
ENDBRANCH  12  13
ENDBRANCH   5  12
BRANCH   7  17
ATOM     17  C   LIG A   1      -8.348   5.644 134.267  0.00  0.00    +0.022 C 
BRANCH  17  18
ATOM     18  C   LIG A   1      -7.070   5.514 135.096  0.00  0.00    +0.002 C 
BRANCH  18  19
ATOM     19  C   LIG A   1      -5.876   4.956 134.301  0.00  0.00    +0.000 C 
BRANCH  19  20
ATOM     20  C   LIG A   1      -5.000   6.021 133.622  0.00  0.00    -0.000 C 
BRANCH  20  21
ATOM     21  C   LIG A   1      -5.419   6.354 132.182  0.00  0.00    -0.000 C 
BRANCH  21  22
ATOM     22  C   LIG A   1      -4.385   7.200 131.429  0.00  0.00    -0.000 C 
BRANCH  22  23
ATOM     23  C   LIG A   1      -3.026   7.183 132.134  0.00  0.00    -0.000 C 
BRANCH  23  24
ATOM     24  C   LIG A   1      -1.940   6.532 131.267  0.00  0.00    -0.000 C 
BRANCH  24  25
ATOM     25  C   LIG A   1      -2.485   5.617 130.152  0.00  0.00    +0.000 C 
BRANCH  25  26
ATOM     26  C   LIG A   1      -2.177   6.131 128.734  0.00  0.00    +0.000 C 
BRANCH  26  27
ATOM     27  C   LIG A   1      -2.918   5.375 127.622  0.00  0.00    +0.007 C 
BRANCH  27  28
ATOM     28  C   LIG A   1      -2.409   3.943 127.396  0.00  0.00    +0.074 C 
BRANCH  28  29
ATOM     29  C   LIG A   1      -3.465   2.851 127.471  0.00  0.00    +0.130 C 
ATOM     30  C   LIG A   1      -3.915   2.398 128.836  0.00  0.00    +0.086 C 
ATOM     31  O   LIG A   1      -3.898   2.308 126.452  0.00  0.00    -0.298 OA
ENDBRANCH  28  29
ENDBRANCH  27  28
ENDBRANCH  26  27
ENDBRANCH  25  26
ENDBRANCH  24  25
ENDBRANCH  23  24
ENDBRANCH  22  23
ENDBRANCH  21  22
ENDBRANCH  20  21
ENDBRANCH  19  20
ENDBRANCH  18  19
ENDBRANCH  17  18
ENDBRANCH   7  17
TORSDOF 16
ENDMDL
MODEL 9
REMARK VINA RESULT:      -5.9      1.856      2.745
REMARK  Name = NuBBE_168
REMARK  21 active torsions:
REMARK  status: ('A' for Active; 'I' for Inactive)
REMARK    1  A    between atoms: O_1  and  C_2
REMARK    2  A    between atoms: C_4  and  C_6
REMARK    3  A    between atoms: C_8  and  O_9
REMARK    4  A    between atoms: O_9  and  C_10
REMARK    5  A    between atoms: C_10  and  C_11
REMARK    6  A    between atoms: C_10  and  C_12
REMARK    7  A    between atoms: C_10  and  C_13
REMARK    8  A    between atoms: C_15  and  C_17
REMARK    9  A    between atoms: C_17  and  C_18
REMARK   10  A    between atoms: C_18  and  C_19
REMARK   11  A    between atoms: C_19  and  C_20
REMARK   12  A    between atoms: C_20  and  C_21
REMARK   13  A    between atoms: C_21  and  C_22
REMARK   14  A    between atoms: C_22  and  C_23
REMARK   15  A    between atoms: C_23  and  C_24
REMARK   16  A    between atoms: C_24  and  C_25
REMARK   17  A    between atoms: C_25  and  C_26
REMARK   18  A    between atoms: C_26  and  C_27
REMARK   19  A    between atoms: C_27  and  C_28
REMARK   20  A    between atoms: C_28  and  C_29
REMARK   21  A    between atoms: C_29  and  C_30
REMARK                            x       y       z     vdW  Elec       q    Type
REMARK                         _______ _______ _______ _____ _____    ______ ____
ROOT
ATOM      1  C   LIG A   1      -4.756   4.090 125.988  0.00  0.00    +0.135 C 
ATOM      2  C   LIG A   1      -4.011   2.863 126.579  0.00  0.00    +0.105 C 
ATOM      3  C   LIG A   1      -3.097   3.242 127.749  0.00  0.00    +0.030 C 
ATOM      4  N   LIG A   1      -4.972   1.746 126.806  0.00  0.00    -0.259 N 
ATOM      5  C   LIG A   1      -5.701   1.606 127.978  0.00  0.00    +0.404 C 
ATOM      6  O   LIG A   1      -6.583   0.756 128.140  0.00  0.00    -0.226 OA
ATOM      7  C   LIG A   1      -5.588   1.296 125.544  0.00  0.00    +0.080 C 
ATOM      8  C   LIG A   1      -6.467   2.454 125.025  0.00  0.00    +0.025 C 
ATOM      9  C   LIG A   1      -5.610   3.700 124.772  0.00  0.00    +0.035 C 
ENDROOT
BRANCH   1  10
ATOM     10  O   LIG A   1      -5.604   4.711 126.954  0.00  0.00    -0.390 OA
ATOM     11  H   LIG A   1      -6.258   5.242 126.466  0.00  0.00    +0.210 HD
ENDBRANCH   1  10
BRANCH   5  12
ATOM     12  O   LIG A   1      -5.405   2.539 128.913  0.00  0.00    -0.445 OA
BRANCH  12  13
ATOM     13  C   LIG A   1      -6.383   2.972 129.890  0.00  0.00    +0.107 C 
ATOM     14  C   LIG A   1      -7.729   3.254 129.215  0.00  0.00    +0.055 C 
ATOM     15  C   LIG A   1      -6.510   1.941 131.013  0.00  0.00    +0.055 C 
ATOM     16  C   LIG A   1      -5.837   4.281 130.497  0.00  0.00    +0.055 C 
ENDBRANCH  12  13
ENDBRANCH   5  12
BRANCH   7  17
ATOM     17  C   LIG A   1      -6.385  -0.022 125.483  0.00  0.00    +0.022 C 
BRANCH  17  18
ATOM     18  C   LIG A   1      -5.549  -1.283 125.259  0.00  0.00    +0.002 C 
BRANCH  18  19
ATOM     19  C   LIG A   1      -5.964  -2.081 124.010  0.00  0.00    +0.000 C 
BRANCH  19  20
ATOM     20  C   LIG A   1      -7.112  -1.458 123.200  0.00  0.00    -0.000 C 
BRANCH  20  21
ATOM     21  C   LIG A   1      -8.341  -2.369 123.051  0.00  0.00    -0.000 C 
BRANCH  21  22
ATOM     22  C   LIG A   1      -8.462  -3.413 124.169  0.00  0.00    -0.000 C 
BRANCH  22  23
ATOM     23  C   LIG A   1      -9.242  -2.863 125.366  0.00  0.00    -0.000 C 
BRANCH  23  24
ATOM     24  C   LIG A   1      -8.901  -3.612 126.662  0.00  0.00    -0.000 C 
BRANCH  24  25
ATOM     25  C   LIG A   1      -8.045  -2.801 127.655  0.00  0.00    +0.000 C 
BRANCH  25  26
ATOM     26  C   LIG A   1      -8.304  -3.169 129.128  0.00  0.00    +0.000 C 
BRANCH  26  27
ATOM     27  C   LIG A   1      -7.468  -2.357 130.128  0.00  0.00    +0.007 C 
BRANCH  27  28
ATOM     28  C   LIG A   1      -6.677  -3.219 131.124  0.00  0.00    +0.074 C 
BRANCH  28  29
ATOM     29  C   LIG A   1      -5.641  -4.149 130.510  0.00  0.00    +0.130 C 
ATOM     30  C   LIG A   1      -4.601  -3.544 129.603  0.00  0.00    +0.086 C 
ATOM     31  O   LIG A   1      -5.684  -5.366 130.698  0.00  0.00    -0.298 OA
ENDBRANCH  28  29
ENDBRANCH  27  28
ENDBRANCH  26  27
ENDBRANCH  25  26
ENDBRANCH  24  25
ENDBRANCH  23  24
ENDBRANCH  22  23
ENDBRANCH  21  22
ENDBRANCH  20  21
ENDBRANCH  19  20
ENDBRANCH  18  19
ENDBRANCH  17  18
ENDBRANCH   7  17
TORSDOF 16
ENDMDL
