MODEL 1
REMARK VINA RESULT:      -7.9      0.000      0.000
REMARK  Name = NuBBE_1213
REMARK  13 active torsions:
REMARK  status: ('A' for Active; 'I' for Inactive)
REMARK    1  A    between atoms: O_1  and  C_2
REMARK    2  A    between atoms: C_4  and  O_6
REMARK    3  A    between atoms: C_9  and  C_10
REMARK    4  A    between atoms: C_18  and  C_19
REMARK    5  A    between atoms: C_23  and  C_24
REMARK    6  A    between atoms: C_24  and  C_25
REMARK    7  A    between atoms: C_24  and  C_33
REMARK    8  A    between atoms: C_25  and  O_26
REMARK    9  A    between atoms: C_25  and  C_27
REMARK   10  A    between atoms: C_27  and  C_28
REMARK   11  A    between atoms: C_28  and  C_29
REMARK   12  A    between atoms: C_29  and  C_30
REMARK   13  A    between atoms: C_29  and  C_31
REMARK                            x       y       z     vdW  Elec       q    Type
REMARK                         _______ _______ _______ _____ _____    ______ ____
ROOT
ATOM      1  C   LIG A   1      -6.659  -4.759 135.408  0.00  0.00    +0.147 C 
ATOM      2  C   LIG A   1      -5.508  -4.878 134.389  0.00  0.00    +0.169 C 
ATOM      3  C   LIG A   1      -7.373  -3.411 135.338  0.00  0.00    +0.035 C 
ATOM      4  C   LIG A   1      -7.806  -3.074 133.908  0.00  0.00    +0.014 C 
ATOM      5  C   LIG A   1      -6.629  -3.041 132.893  0.00  0.00    -0.005 C 
ATOM      6  C   LIG A   1      -5.671  -1.879 133.266  0.00  0.00    +0.016 C 
ATOM      7  C   LIG A   1      -5.877  -4.385 133.002  0.00  0.00    -0.037 C 
ATOM      8  C   LIG A   1      -5.594  -5.148 131.928  0.00  0.00    -0.024 C 
ATOM      9  C   LIG A   1      -5.905  -4.770 130.513  0.00  0.00    +0.031 C 
ATOM     10  C   LIG A   1      -6.193  -3.270 130.360  0.00  0.00    +0.000 C 
ATOM     11  C   LIG A   1      -7.221  -2.817 131.424  0.00  0.00    +0.003 C 
ATOM     12  C   LIG A   1      -7.725  -1.375 131.170  0.00  0.00    +0.005 C 
ATOM     13  C   LIG A   1      -8.105  -1.077 129.715  0.00  0.00    +0.007 C 
ATOM     14  C   LIG A   1      -6.973  -1.416 128.715  0.00  0.00    -0.026 C 
ATOM     15  C   LIG A   1      -5.750  -0.504 128.939  0.00  0.00    +0.012 C 
ATOM     16  C   LIG A   1      -6.553  -2.897 128.910  0.00  0.00    -0.001 C 
ATOM     17  C   LIG A   1      -7.691  -3.688 128.260  0.00  0.00    +0.004 C 
ATOM     18  C   LIG A   1      -8.243  -2.778 127.160  0.00  0.00    +0.005 C 
ATOM     19  C   LIG A   1      -7.444  -1.453 127.216  0.00  0.00    +0.001 C 
ENDROOT
BRANCH   1  20
ATOM     20  O   LIG A   1      -6.144  -4.925 136.735  0.00  0.00    -0.389 OA
ATOM     21  H   LIG A   1      -6.855  -4.586 137.320  0.00  0.00    +0.210 HD
ENDBRANCH   1  20
BRANCH   2  22
ATOM     22  O   LIG A   1      -4.382  -4.137 134.876  0.00  0.00    -0.385 OA
ATOM     23  H   LIG A   1      -4.351  -3.315 134.355  0.00  0.00    +0.210 HD
ENDBRANCH   2  22
BRANCH  19  24
ATOM     24  C   LIG A   1      -8.201  -0.226 126.582  0.00  0.00    +0.018 C 
ATOM     25  C   LIG A   1      -7.228   0.725 125.869  0.00  0.00    +0.010 C 
BRANCH  24  26
ATOM     26  C   LIG A   1      -9.340  -0.672 125.586  0.00  0.00    +0.122 C 
BRANCH  26  27
ATOM     27  O   LIG A   1     -10.401   0.287 125.605  0.00  0.00    -0.391 OA
ATOM     28  H   LIG A   1     -10.564   0.577 124.692  0.00  0.00    +0.210 HD
ENDBRANCH  26  27
BRANCH  26  29
ATOM     29  C   LIG A   1      -8.880  -0.831 124.110  0.00  0.00    +0.062 C 
BRANCH  29  30
ATOM     30  C   LIG A   1      -8.519  -2.246 123.652  0.00  0.00    -0.072 C 
ATOM     31  C   LIG A   1      -9.478  -3.201 123.638  0.00  0.00    +0.008 C 
BRANCH  30  32
ATOM     32  C   LIG A   1      -7.097  -2.511 123.156  0.00  0.00    +0.008 C 
ATOM     33  C   LIG A   1      -6.391  -1.206 122.776  0.00  0.00    +0.012 C 
ATOM     34  C   LIG A   1      -6.203  -3.282 124.146  0.00  0.00    +0.012 C 
ENDBRANCH  30  32
ENDBRANCH  29  30
ENDBRANCH  26  29
ENDBRANCH  24  26
ENDBRANCH  19  24
TORSDOF 8
ENDMDL
MODEL 2
REMARK VINA RESULT:      -7.6      1.673      8.853
REMARK  Name = NuBBE_1213
REMARK  13 active torsions:
REMARK  status: ('A' for Active; 'I' for Inactive)
REMARK    1  A    between atoms: O_1  and  C_2
REMARK    2  A    between atoms: C_4  and  O_6
REMARK    3  A    between atoms: C_9  and  C_10
REMARK    4  A    between atoms: C_18  and  C_19
REMARK    5  A    between atoms: C_23  and  C_24
REMARK    6  A    between atoms: C_24  and  C_25
REMARK    7  A    between atoms: C_24  and  C_33
REMARK    8  A    between atoms: C_25  and  O_26
REMARK    9  A    between atoms: C_25  and  C_27
REMARK   10  A    between atoms: C_27  and  C_28
REMARK   11  A    between atoms: C_28  and  C_29
REMARK   12  A    between atoms: C_29  and  C_30
REMARK   13  A    between atoms: C_29  and  C_31
REMARK                            x       y       z     vdW  Elec       q    Type
REMARK                         _______ _______ _______ _____ _____    ______ ____
ROOT
ATOM      1  C   LIG A   1      -8.097  -2.520 123.625  0.00  0.00    +0.147 C 
ATOM      2  C   LIG A   1      -9.028  -2.332 124.839  0.00  0.00    +0.169 C 
ATOM      3  C   LIG A   1      -6.723  -1.884 123.828  0.00  0.00    +0.035 C 
ATOM      4  C   LIG A   1      -6.082  -2.331 125.145  0.00  0.00    +0.014 C 
ATOM      5  C   LIG A   1      -6.945  -2.010 126.398  0.00  0.00    -0.005 C 
ATOM      6  C   LIG A   1      -7.058  -0.471 126.554  0.00  0.00    +0.016 C 
ATOM      7  C   LIG A   1      -8.349  -2.610 126.168  0.00  0.00    -0.037 C 
ATOM      8  C   LIG A   1      -8.955  -3.406 127.071  0.00  0.00    -0.024 C 
ATOM      9  C   LIG A   1      -8.389  -3.752 128.413  0.00  0.00    +0.031 C 
ATOM     10  C   LIG A   1      -7.264  -2.796 128.835  0.00  0.00    +0.000 C 
ATOM     11  C   LIG A   1      -6.240  -2.644 127.686  0.00  0.00    +0.003 C 
ATOM     12  C   LIG A   1      -4.969  -1.883 128.136  0.00  0.00    +0.005 C 
ATOM     13  C   LIG A   1      -4.391  -2.341 129.480  0.00  0.00    +0.007 C 
ATOM     14  C   LIG A   1      -5.437  -2.327 130.622  0.00  0.00    -0.026 C 
ATOM     15  C   LIG A   1      -5.901  -0.889 130.925  0.00  0.00    +0.012 C 
ATOM     16  C   LIG A   1      -6.660  -3.183 130.197  0.00  0.00    -0.001 C 
ATOM     17  C   LIG A   1      -6.165  -4.625 130.343  0.00  0.00    +0.004 C 
ATOM     18  C   LIG A   1      -5.113  -4.583 131.454  0.00  0.00    +0.005 C 
ATOM     19  C   LIG A   1      -4.981  -3.109 131.907  0.00  0.00    +0.001 C 
ENDROOT
BRANCH   1  20
ATOM     20  O   LIG A   1      -8.697  -1.930 122.465  0.00  0.00    -0.389 OA
ATOM     21  H   LIG A   1      -8.579  -0.964 122.589  0.00  0.00    +0.210 HD
ENDBRANCH   1  20
BRANCH   2  22
ATOM     22  O   LIG A   1      -9.532  -0.991 124.832  0.00  0.00    -0.385 OA
ATOM     23  H   LIG A   1      -9.728  -0.779 123.902  0.00  0.00    +0.210 HD
ENDBRANCH   2  22
BRANCH  19  24
ATOM     24  C   LIG A   1      -3.607  -2.776 132.602  0.00  0.00    +0.018 C 
ATOM     25  C   LIG A   1      -3.605  -1.357 133.190  0.00  0.00    +0.010 C 
BRANCH  24  26
ATOM     26  C   LIG A   1      -3.233  -3.821 133.724  0.00  0.00    +0.122 C 
BRANCH  26  27
ATOM     27  O   LIG A   1      -1.852  -3.684 134.070  0.00  0.00    -0.391 OA
ATOM     28  H   LIG A   1      -1.707  -4.131 134.921  0.00  0.00    +0.210 HD
ENDBRANCH  26  27
BRANCH  26  29
ATOM     29  C   LIG A   1      -4.059  -3.685 135.033  0.00  0.00    +0.062 C 
BRANCH  29  30
ATOM     30  C   LIG A   1      -5.398  -4.425 135.080  0.00  0.00    -0.072 C 
ATOM     31  C   LIG A   1      -5.409  -5.776 135.006  0.00  0.00    +0.008 C 
BRANCH  30  32
ATOM     32  C   LIG A   1      -6.675  -3.609 135.283  0.00  0.00    +0.008 C 
ATOM     33  C   LIG A   1      -6.359  -2.121 135.461  0.00  0.00    +0.012 C 
ATOM     34  C   LIG A   1      -7.719  -3.758 134.160  0.00  0.00    +0.012 C 
ENDBRANCH  30  32
ENDBRANCH  29  30
ENDBRANCH  26  29
ENDBRANCH  24  26
ENDBRANCH  19  24
TORSDOF 8
ENDMDL
MODEL 3
REMARK VINA RESULT:      -7.6      8.510     10.637
REMARK  Name = NuBBE_1213
REMARK  13 active torsions:
REMARK  status: ('A' for Active; 'I' for Inactive)
REMARK    1  A    between atoms: O_1  and  C_2
REMARK    2  A    between atoms: C_4  and  O_6
REMARK    3  A    between atoms: C_9  and  C_10
REMARK    4  A    between atoms: C_18  and  C_19
REMARK    5  A    between atoms: C_23  and  C_24
REMARK    6  A    between atoms: C_24  and  C_25
REMARK    7  A    between atoms: C_24  and  C_33
REMARK    8  A    between atoms: C_25  and  O_26
REMARK    9  A    between atoms: C_25  and  C_27
REMARK   10  A    between atoms: C_27  and  C_28
REMARK   11  A    between atoms: C_28  and  C_29
REMARK   12  A    between atoms: C_29  and  C_30
REMARK   13  A    between atoms: C_29  and  C_31
REMARK                            x       y       z     vdW  Elec       q    Type
REMARK                         _______ _______ _______ _____ _____    ______ ____
ROOT
ATOM      1  C   LIG A   1      -1.415   8.345 134.111  0.00  0.00    +0.147 C 
ATOM      2  C   LIG A   1      -1.919   7.058 134.794  0.00  0.00    +0.169 C 
ATOM      3  C   LIG A   1      -1.662   8.350 132.603  0.00  0.00    +0.035 C 
ATOM      4  C   LIG A   1      -3.122   8.030 132.269  0.00  0.00    +0.014 C 
ATOM      5  C   LIG A   1      -3.602   6.659 132.825  0.00  0.00    -0.005 C 
ATOM      6  C   LIG A   1      -2.811   5.524 132.123  0.00  0.00    +0.016 C 
ATOM      7  C   LIG A   1      -3.304   6.636 134.339  0.00  0.00    -0.037 C 
ATOM      8  C   LIG A   1      -4.236   6.314 135.258  0.00  0.00    -0.024 C 
ATOM      9  C   LIG A   1      -5.633   5.883 134.935  0.00  0.00    +0.031 C 
ATOM     10  C   LIG A   1      -5.782   5.441 133.472  0.00  0.00    +0.000 C 
ATOM     11  C   LIG A   1      -5.167   6.504 132.533  0.00  0.00    +0.003 C 
ATOM     12  C   LIG A   1      -5.496   6.226 131.045  0.00  0.00    +0.005 C 
ATOM     13  C   LIG A   1      -6.962   5.870 130.770  0.00  0.00    +0.007 C 
ATOM     14  C   LIG A   1      -7.471   4.697 131.643  0.00  0.00    -0.026 C 
ATOM     15  C   LIG A   1      -6.733   3.390 131.292  0.00  0.00    +0.012 C 
ATOM     16  C   LIG A   1      -7.230   5.037 133.137  0.00  0.00    -0.001 C 
ATOM     17  C   LIG A   1      -8.320   6.065 133.458  0.00  0.00    +0.004 C 
ATOM     18  C   LIG A   1      -9.482   5.729 132.521  0.00  0.00    +0.005 C 
ATOM     19  C   LIG A   1      -9.034   4.538 131.640  0.00  0.00    +0.001 C 
ENDROOT
BRANCH   1  20
ATOM     20  O   LIG A   1      -0.007   8.487 134.334  0.00  0.00    -0.389 OA
ATOM     21  H   LIG A   1       0.258   9.243 133.768  0.00  0.00    +0.210 HD
ENDBRANCH   1  20
BRANCH   2  22
ATOM     22  O   LIG A   1      -0.988   6.000 134.532  0.00  0.00    -0.385 OA
ATOM     23  H   LIG A   1      -0.962   5.455 135.338  0.00  0.00    +0.210 HD
ENDBRANCH   2  22
BRANCH  19  24
ATOM     24  C   LIG A   1      -9.825   4.417 130.283  0.00  0.00    +0.018 C 
ATOM     25  C   LIG A   1     -11.012   3.449 130.410  0.00  0.00    +0.010 C 
BRANCH  24  26
ATOM     26  C   LIG A   1     -10.330   5.815 129.754  0.00  0.00    +0.122 C 
BRANCH  26  27
ATOM     27  O   LIG A   1      -9.771   6.074 128.464  0.00  0.00    -0.391 OA
ATOM     28  H   LIG A   1      -9.945   5.303 127.898  0.00  0.00    +0.210 HD
ENDBRANCH  26  27
BRANCH  26  29
ATOM     29  C   LIG A   1     -11.875   5.937 129.629  0.00  0.00    +0.062 C 
BRANCH  29  30
ATOM     30  C   LIG A   1     -12.491   7.285 130.010  0.00  0.00    -0.072 C 
ATOM     31  C   LIG A   1     -12.793   7.530 131.306  0.00  0.00    +0.008 C 
BRANCH  30  32
ATOM     32  C   LIG A   1     -12.676   8.337 128.916  0.00  0.00    +0.008 C 
ATOM     33  C   LIG A   1     -13.682   7.867 127.861  0.00  0.00    +0.012 C 
ATOM     34  C   LIG A   1     -13.111   9.725 129.425  0.00  0.00    +0.012 C 
ENDBRANCH  30  32
ENDBRANCH  29  30
ENDBRANCH  26  29
ENDBRANCH  24  26
ENDBRANCH  19  24
TORSDOF 8
ENDMDL
MODEL 4
REMARK VINA RESULT:      -7.4      3.001      4.553
REMARK  Name = NuBBE_1213
REMARK  13 active torsions:
REMARK  status: ('A' for Active; 'I' for Inactive)
REMARK    1  A    between atoms: O_1  and  C_2
REMARK    2  A    between atoms: C_4  and  O_6
REMARK    3  A    between atoms: C_9  and  C_10
REMARK    4  A    between atoms: C_18  and  C_19
REMARK    5  A    between atoms: C_23  and  C_24
REMARK    6  A    between atoms: C_24  and  C_25
REMARK    7  A    between atoms: C_24  and  C_33
REMARK    8  A    between atoms: C_25  and  O_26
REMARK    9  A    between atoms: C_25  and  C_27
REMARK   10  A    between atoms: C_27  and  C_28
REMARK   11  A    between atoms: C_28  and  C_29
REMARK   12  A    between atoms: C_29  and  C_30
REMARK   13  A    between atoms: C_29  and  C_31
REMARK                            x       y       z     vdW  Elec       q    Type
REMARK                         _______ _______ _______ _____ _____    ______ ____
ROOT
ATOM      1  C   LIG A   1      -8.046   2.419 133.129  0.00  0.00    +0.147 C 
ATOM      2  C   LIG A   1      -7.010   1.277 133.116  0.00  0.00    +0.169 C 
ATOM      3  C   LIG A   1      -8.242   3.056 131.755  0.00  0.00    +0.035 C 
ATOM      4  C   LIG A   1      -8.529   2.004 130.680  0.00  0.00    +0.014 C 
ATOM      5  C   LIG A   1      -7.415   0.927 130.550  0.00  0.00    -0.005 C 
ATOM      6  C   LIG A   1      -6.111   1.606 130.055  0.00  0.00    +0.016 C 
ATOM      7  C   LIG A   1      -7.183   0.320 131.950  0.00  0.00    -0.037 C 
ATOM      8  C   LIG A   1      -7.185  -1.009 132.176  0.00  0.00    -0.024 C 
ATOM      9  C   LIG A   1      -7.344  -2.050 131.111  0.00  0.00    +0.031 C 
ATOM     10  C   LIG A   1      -7.088  -1.489 129.705  0.00  0.00    +0.000 C 
ATOM     11  C   LIG A   1      -7.891  -0.183 129.502  0.00  0.00    +0.003 C 
ATOM     12  C   LIG A   1      -7.857   0.298 128.030  0.00  0.00    +0.005 C 
ATOM     13  C   LIG A   1      -8.109  -0.802 126.991  0.00  0.00    +0.007 C 
ATOM     14  C   LIG A   1      -7.168  -2.019 127.163  0.00  0.00    -0.026 C 
ATOM     15  C   LIG A   1      -5.703  -1.625 126.889  0.00  0.00    +0.012 C 
ATOM     16  C   LIG A   1      -7.293  -2.555 128.613  0.00  0.00    -0.001 C 
ATOM     17  C   LIG A   1      -8.637  -3.290 128.616  0.00  0.00    +0.004 C 
ATOM     18  C   LIG A   1      -8.834  -3.782 127.181  0.00  0.00    +0.005 C 
ATOM     19  C   LIG A   1      -7.622  -3.289 126.355  0.00  0.00    +0.001 C 
ENDROOT
BRANCH   1  20
ATOM     20  O   LIG A   1      -7.622   3.440 134.041  0.00  0.00    -0.389 OA
ATOM     21  H   LIG A   1      -6.831   3.836 133.617  0.00  0.00    +0.210 HD
ENDBRANCH   1  20
BRANCH   2  22
ATOM     22  O   LIG A   1      -5.695   1.846 133.076  0.00  0.00    -0.385 OA
ATOM     23  H   LIG A   1      -5.088   1.113 132.874  0.00  0.00    +0.210 HD
ENDBRANCH   2  22
BRANCH  19  24
ATOM     24  C   LIG A   1      -7.901  -3.197 124.807  0.00  0.00    +0.018 C 
ATOM     25  C   LIG A   1      -9.380  -2.896 124.520  0.00  0.00    +0.010 C 
BRANCH  24  26
ATOM     26  C   LIG A   1      -6.990  -2.124 124.095  0.00  0.00    +0.122 C 
BRANCH  26  27
ATOM     27  O   LIG A   1      -5.967  -2.781 123.342  0.00  0.00    -0.391 OA
ATOM     28  H   LIG A   1      -6.229  -3.710 123.223  0.00  0.00    +0.210 HD
ENDBRANCH  26  27
BRANCH  26  29
ATOM     29  C   LIG A   1      -7.748  -1.174 123.125  0.00  0.00    +0.062 C 
BRANCH  29  30
ATOM     30  C   LIG A   1      -7.854   0.294 123.543  0.00  0.00    -0.072 C 
ATOM     31  C   LIG A   1      -6.778   0.903 124.095  0.00  0.00    +0.008 C 
BRANCH  30  32
ATOM     32  C   LIG A   1      -9.156   1.042 123.255  0.00  0.00    +0.008 C 
ATOM     33  C   LIG A   1     -10.137   0.164 122.473  0.00  0.00    +0.012 C 
ATOM     34  C   LIG A   1      -9.875   1.587 124.504  0.00  0.00    +0.012 C 
ENDBRANCH  30  32
ENDBRANCH  29  30
ENDBRANCH  26  29
ENDBRANCH  24  26
ENDBRANCH  19  24
TORSDOF 8
ENDMDL
MODEL 5
REMARK VINA RESULT:      -7.3      4.045      5.829
REMARK  Name = NuBBE_1213
REMARK  13 active torsions:
REMARK  status: ('A' for Active; 'I' for Inactive)
REMARK    1  A    between atoms: O_1  and  C_2
REMARK    2  A    between atoms: C_4  and  O_6
REMARK    3  A    between atoms: C_9  and  C_10
REMARK    4  A    between atoms: C_18  and  C_19
REMARK    5  A    between atoms: C_23  and  C_24
REMARK    6  A    between atoms: C_24  and  C_25
REMARK    7  A    between atoms: C_24  and  C_33
REMARK    8  A    between atoms: C_25  and  O_26
REMARK    9  A    between atoms: C_25  and  C_27
REMARK   10  A    between atoms: C_27  and  C_28
REMARK   11  A    between atoms: C_28  and  C_29
REMARK   12  A    between atoms: C_29  and  C_30
REMARK   13  A    between atoms: C_29  and  C_31
REMARK                            x       y       z     vdW  Elec       q    Type
REMARK                         _______ _______ _______ _____ _____    ______ ____
ROOT
ATOM      1  C   LIG A   1      -9.854   5.188 132.788  0.00  0.00    +0.147 C 
ATOM      2  C   LIG A   1      -8.532   4.487 133.161  0.00  0.00    +0.169 C 
ATOM      3  C   LIG A   1     -10.025   5.366 131.281  0.00  0.00    +0.035 C 
ATOM      4  C   LIG A   1      -9.816   4.049 130.529  0.00  0.00    +0.014 C 
ATOM      5  C   LIG A   1      -8.423   3.404 130.776  0.00  0.00    -0.005 C 
ATOM      6  C   LIG A   1      -7.325   4.333 130.194  0.00  0.00    +0.016 C 
ATOM      7  C   LIG A   1      -8.231   3.272 132.302  0.00  0.00    -0.037 C 
ATOM      8  C   LIG A   1      -7.866   2.116 132.891  0.00  0.00    -0.024 C 
ATOM      9  C   LIG A   1      -7.542   0.854 132.154  0.00  0.00    +0.031 C 
ATOM     10  C   LIG A   1      -7.258   1.105 130.666  0.00  0.00    +0.000 C 
ATOM     11  C   LIG A   1      -8.378   1.979 130.054  0.00  0.00    +0.003 C 
ATOM     12  C   LIG A   1      -8.271   2.066 128.511  0.00  0.00    +0.005 C 
ATOM     13  C   LIG A   1      -8.020   0.726 127.810  0.00  0.00    +0.007 C 
ATOM     14  C   LIG A   1      -6.792  -0.029 128.375  0.00  0.00    -0.026 C 
ATOM     15  C   LIG A   1      -5.491   0.748 128.094  0.00  0.00    +0.012 C 
ATOM     16  C   LIG A   1      -6.966  -0.203 129.907  0.00  0.00    -0.001 C 
ATOM     17  C   LIG A   1      -8.010  -1.316 130.032  0.00  0.00    +0.004 C 
ATOM     18  C   LIG A   1      -7.832  -2.182 128.782  0.00  0.00    +0.005 C 
ATOM     19  C   LIG A   1      -6.715  -1.534 127.929  0.00  0.00    +0.001 C 
ENDROOT
BRANCH   1  20
ATOM     20  O   LIG A   1      -9.900   6.482 133.401  0.00  0.00    -0.389 OA
ATOM     21  H   LIG A   1      -9.321   6.404 134.189  0.00  0.00    +0.210 HD
ENDBRANCH   1  20
BRANCH   2  22
ATOM     22  O   LIG A   1      -7.460   5.432 133.045  0.00  0.00    -0.385 OA
ATOM     23  H   LIG A   1      -6.937   5.349 133.862  0.00  0.00    +0.210 HD
ENDBRANCH   2  22
BRANCH  19  24
ATOM     24  C   LIG A   1      -6.773  -1.922 126.404  0.00  0.00    +0.018 C 
ATOM     25  C   LIG A   1      -5.442  -2.526 125.928  0.00  0.00    +0.010 C 
BRANCH  24  26
ATOM     26  C   LIG A   1      -7.956  -2.915 126.080  0.00  0.00    +0.122 C 
BRANCH  26  27
ATOM     27  O   LIG A   1      -9.195  -2.203 126.073  0.00  0.00    -0.391 OA
ATOM     28  H   LIG A   1      -8.999  -1.254 125.994  0.00  0.00    +0.210 HD
ENDBRANCH  26  27
BRANCH  26  29
ATOM     29  C   LIG A   1      -7.828  -3.648 124.715  0.00  0.00    +0.062 C 
BRANCH  29  30
ATOM     30  C   LIG A   1      -8.582  -3.035 123.533  0.00  0.00    -0.072 C 
ATOM     31  C   LIG A   1      -9.841  -3.452 123.265  0.00  0.00    +0.008 C 
BRANCH  30  32
ATOM     32  C   LIG A   1      -7.906  -1.917 122.738  0.00  0.00    +0.008 C 
ATOM     33  C   LIG A   1      -8.247  -0.541 123.318  0.00  0.00    +0.012 C 
ATOM     34  C   LIG A   1      -6.374  -2.038 122.631  0.00  0.00    +0.012 C 
ENDBRANCH  30  32
ENDBRANCH  29  30
ENDBRANCH  26  29
ENDBRANCH  24  26
ENDBRANCH  19  24
TORSDOF 8
ENDMDL
MODEL 6
REMARK VINA RESULT:      -7.2      2.191      8.619
REMARK  Name = NuBBE_1213
REMARK  13 active torsions:
REMARK  status: ('A' for Active; 'I' for Inactive)
REMARK    1  A    between atoms: O_1  and  C_2
REMARK    2  A    between atoms: C_4  and  O_6
REMARK    3  A    between atoms: C_9  and  C_10
REMARK    4  A    between atoms: C_18  and  C_19
REMARK    5  A    between atoms: C_23  and  C_24
REMARK    6  A    between atoms: C_24  and  C_25
REMARK    7  A    between atoms: C_24  and  C_33
REMARK    8  A    between atoms: C_25  and  O_26
REMARK    9  A    between atoms: C_25  and  C_27
REMARK   10  A    between atoms: C_27  and  C_28
REMARK   11  A    between atoms: C_28  and  C_29
REMARK   12  A    between atoms: C_29  and  C_30
REMARK   13  A    between atoms: C_29  and  C_31
REMARK                            x       y       z     vdW  Elec       q    Type
REMARK                         _______ _______ _______ _____ _____    ______ ____
ROOT
ATOM      1  C   LIG A   1      -7.806   2.743 123.730  0.00  0.00    +0.147 C 
ATOM      2  C   LIG A   1      -7.793   1.252 123.339  0.00  0.00    +0.169 C 
ATOM      3  C   LIG A   1      -8.467   2.994 125.083  0.00  0.00    +0.035 C 
ATOM      4  C   LIG A   1      -7.877   2.097 126.175  0.00  0.00    +0.014 C 
ATOM      5  C   LIG A   1      -7.994   0.578 125.864  0.00  0.00    -0.005 C 
ATOM      6  C   LIG A   1      -9.494   0.181 125.838  0.00  0.00    +0.016 C 
ATOM      7  C   LIG A   1      -7.371   0.335 124.472  0.00  0.00    -0.037 C 
ATOM      8  C   LIG A   1      -6.439  -0.613 124.249  0.00  0.00    -0.024 C 
ATOM      9  C   LIG A   1      -5.943  -1.575 125.284  0.00  0.00    +0.031 C 
ATOM     10  C   LIG A   1      -6.882  -1.663 126.496  0.00  0.00    +0.000 C 
ATOM     11  C   LIG A   1      -7.226  -0.242 127.002  0.00  0.00    +0.003 C 
ATOM     12  C   LIG A   1      -7.974  -0.273 128.358  0.00  0.00    +0.005 C 
ATOM     13  C   LIG A   1      -7.368  -1.218 129.402  0.00  0.00    +0.007 C 
ATOM     14  C   LIG A   1      -7.188  -2.662 128.874  0.00  0.00    -0.026 C 
ATOM     15  C   LIG A   1      -8.553  -3.315 128.580  0.00  0.00    +0.012 C 
ATOM     16  C   LIG A   1      -6.345  -2.624 127.572  0.00  0.00    -0.001 C 
ATOM     17  C   LIG A   1      -4.918  -2.370 128.068  0.00  0.00    +0.004 C 
ATOM     18  C   LIG A   1      -4.858  -2.989 129.466  0.00  0.00    +0.005 C 
ATOM     19  C   LIG A   1      -6.264  -3.555 129.780  0.00  0.00    +0.001 C 
ENDROOT
BRANCH   1  20
ATOM     20  O   LIG A   1      -8.518   3.493 122.737  0.00  0.00    -0.389 OA
ATOM     21  H   LIG A   1      -9.439   3.531 123.070  0.00  0.00    +0.210 HD
ENDBRANCH   1  20
BRANCH   2  22
ATOM     22  O   LIG A   1      -9.102   0.881 122.887  0.00  0.00    -0.385 OA
ATOM     23  H   LIG A   1      -9.665   1.665 123.013  0.00  0.00    +0.210 HD
ENDBRANCH   2  22
BRANCH  19  24
ATOM     24  C   LIG A   1      -6.559  -3.711 131.319  0.00  0.00    +0.018 C 
ATOM     25  C   LIG A   1      -5.536  -4.637 131.995  0.00  0.00    +0.010 C 
BRANCH  24  26
ATOM     26  C   LIG A   1      -6.599  -2.323 132.067  0.00  0.00    +0.122 C 
BRANCH  26  27
ATOM     27  O   LIG A   1      -7.735  -2.275 132.934  0.00  0.00    -0.391 OA
ATOM     28  H   LIG A   1      -8.131  -3.162 132.965  0.00  0.00    +0.210 HD
ENDBRANCH  26  27
BRANCH  26  29
ATOM     29  C   LIG A   1      -5.341  -2.016 132.926  0.00  0.00    +0.062 C 
BRANCH  29  30
ATOM     30  C   LIG A   1      -4.393  -0.937 132.396  0.00  0.00    -0.072 C 
ATOM     31  C   LIG A   1      -3.063  -1.064 132.610  0.00  0.00    +0.008 C 
BRANCH  30  32
ATOM     32  C   LIG A   1      -4.983   0.212 131.578  0.00  0.00    +0.008 C 
ATOM     33  C   LIG A   1      -5.144   1.473 132.432  0.00  0.00    +0.012 C 
ATOM     34  C   LIG A   1      -4.185   0.576 130.312  0.00  0.00    +0.012 C 
ENDBRANCH  30  32
ENDBRANCH  29  30
ENDBRANCH  26  29
ENDBRANCH  24  26
ENDBRANCH  19  24
TORSDOF 8
ENDMDL
MODEL 7
REMARK VINA RESULT:      -7.2      5.294      7.321
REMARK  Name = NuBBE_1213
REMARK  13 active torsions:
REMARK  status: ('A' for Active; 'I' for Inactive)
REMARK    1  A    between atoms: O_1  and  C_2
REMARK    2  A    between atoms: C_4  and  O_6
REMARK    3  A    between atoms: C_9  and  C_10
REMARK    4  A    between atoms: C_18  and  C_19
REMARK    5  A    between atoms: C_23  and  C_24
REMARK    6  A    between atoms: C_24  and  C_25
REMARK    7  A    between atoms: C_24  and  C_33
REMARK    8  A    between atoms: C_25  and  O_26
REMARK    9  A    between atoms: C_25  and  C_27
REMARK   10  A    between atoms: C_27  and  C_28
REMARK   11  A    between atoms: C_28  and  C_29
REMARK   12  A    between atoms: C_29  and  C_30
REMARK   13  A    between atoms: C_29  and  C_31
REMARK                            x       y       z     vdW  Elec       q    Type
REMARK                         _______ _______ _______ _____ _____    ______ ____
ROOT
ATOM      1  C   LIG A   1      -1.163   5.694 132.215  0.00  0.00    +0.147 C 
ATOM      2  C   LIG A   1      -1.760   6.436 131.002  0.00  0.00    +0.169 C 
ATOM      3  C   LIG A   1      -2.181   4.803 132.923  0.00  0.00    +0.035 C 
ATOM      4  C   LIG A   1      -2.891   3.866 131.942  0.00  0.00    +0.014 C 
ATOM      5  C   LIG A   1      -3.629   4.610 130.793  0.00  0.00    -0.005 C 
ATOM      6  C   LIG A   1      -4.786   5.450 131.396  0.00  0.00    +0.016 C 
ATOM      7  C   LIG A   1      -2.610   5.549 130.112  0.00  0.00    -0.037 C 
ATOM      8  C   LIG A   1      -2.416   5.564 128.778  0.00  0.00    -0.024 C 
ATOM      9  C   LIG A   1      -3.191   4.738 127.798  0.00  0.00    +0.031 C 
ATOM     10  C   LIG A   1      -4.494   4.192 128.399  0.00  0.00    +0.000 C 
ATOM     11  C   LIG A   1      -4.209   3.530 129.767  0.00  0.00    +0.003 C 
ATOM     12  C   LIG A   1      -5.438   2.757 130.307  0.00  0.00    +0.005 C 
ATOM     13  C   LIG A   1      -6.138   1.866 129.274  0.00  0.00    +0.007 C 
ATOM     14  C   LIG A   1      -6.529   2.630 127.986  0.00  0.00    -0.026 C 
ATOM     15  C   LIG A   1      -7.595   3.704 128.284  0.00  0.00    +0.012 C 
ATOM     16  C   LIG A   1      -5.265   3.311 127.398  0.00  0.00    -0.001 C 
ATOM     17  C   LIG A   1      -4.488   2.153 126.764  0.00  0.00    +0.004 C 
ATOM     18  C   LIG A   1      -5.549   1.131 126.350  0.00  0.00    +0.005 C 
ATOM     19  C   LIG A   1      -6.924   1.691 126.789  0.00  0.00    +0.001 C 
ENDROOT
BRANCH   1  20
ATOM     20  O   LIG A   1      -0.665   6.646 133.162  0.00  0.00    -0.389 OA
ATOM     21  H   LIG A   1      -1.155   6.452 133.989  0.00  0.00    +0.210 HD
ENDBRANCH   1  20
BRANCH   2  22
ATOM     22  O   LIG A   1      -2.549   7.534 131.476  0.00  0.00    -0.385 OA
ATOM     23  H   LIG A   1      -2.647   8.144 130.722  0.00  0.00    +0.210 HD
ENDBRANCH   2  22
BRANCH  19  24
ATOM     24  C   LIG A   1      -8.033   0.588 126.967  0.00  0.00    +0.018 C 
ATOM     25  C   LIG A   1      -9.138   0.727 125.908  0.00  0.00    +0.010 C 
BRANCH  24  26
ATOM     26  C   LIG A   1      -7.440  -0.873 126.931  0.00  0.00    +0.122 C 
BRANCH  26  27
ATOM     27  O   LIG A   1      -7.363  -1.396 128.260  0.00  0.00    -0.391 OA
ATOM     28  H   LIG A   1      -6.461  -1.730 128.403  0.00  0.00    +0.210 HD
ENDBRANCH  26  27
BRANCH  26  29
ATOM     29  C   LIG A   1      -8.259  -1.882 126.077  0.00  0.00    +0.062 C 
BRANCH  29  30
ATOM     30  C   LIG A   1      -7.506  -2.603 124.957  0.00  0.00    -0.072 C 
ATOM     31  C   LIG A   1      -7.906  -3.842 124.584  0.00  0.00    +0.008 C 
BRANCH  30  32
ATOM     32  C   LIG A   1      -6.370  -1.865 124.249  0.00  0.00    +0.008 C 
ATOM     33  C   LIG A   1      -5.438  -2.844 123.528  0.00  0.00    +0.012 C 
ATOM     34  C   LIG A   1      -6.828  -0.792 123.243  0.00  0.00    +0.012 C 
ENDBRANCH  30  32
ENDBRANCH  29  30
ENDBRANCH  26  29
ENDBRANCH  24  26
ENDBRANCH  19  24
TORSDOF 8
ENDMDL
MODEL 8
REMARK VINA RESULT:      -7.0      6.159      8.145
REMARK  Name = NuBBE_1213
REMARK  13 active torsions:
REMARK  status: ('A' for Active; 'I' for Inactive)
REMARK    1  A    between atoms: O_1  and  C_2
REMARK    2  A    between atoms: C_4  and  O_6
REMARK    3  A    between atoms: C_9  and  C_10
REMARK    4  A    between atoms: C_18  and  C_19
REMARK    5  A    between atoms: C_23  and  C_24
REMARK    6  A    between atoms: C_24  and  C_25
REMARK    7  A    between atoms: C_24  and  C_33
REMARK    8  A    between atoms: C_25  and  O_26
REMARK    9  A    between atoms: C_25  and  C_27
REMARK   10  A    between atoms: C_27  and  C_28
REMARK   11  A    between atoms: C_28  and  C_29
REMARK   12  A    between atoms: C_29  and  C_30
REMARK   13  A    between atoms: C_29  and  C_31
REMARK                            x       y       z     vdW  Elec       q    Type
REMARK                         _______ _______ _______ _____ _____    ______ ____
ROOT
ATOM      1  C   LIG A   1      -1.997   8.058 133.263  0.00  0.00    +0.147 C 
ATOM      2  C   LIG A   1      -1.267   6.719 133.039  0.00  0.00    +0.169 C 
ATOM      3  C   LIG A   1      -2.734   8.545 132.017  0.00  0.00    +0.035 C 
ATOM      4  C   LIG A   1      -3.645   7.459 131.438  0.00  0.00    +0.014 C 
ATOM      5  C   LIG A   1      -2.893   6.150 131.064  0.00  0.00    -0.005 C 
ATOM      6  C   LIG A   1      -1.903   6.448 129.908  0.00  0.00    +0.016 C 
ATOM      7  C   LIG A   1      -2.109   5.687 132.310  0.00  0.00    -0.037 C 
ATOM      8  C   LIG A   1      -2.190   4.432 132.795  0.00  0.00    -0.024 C 
ATOM      9  C   LIG A   1      -2.984   3.329 132.166  0.00  0.00    +0.031 C 
ATOM     10  C   LIG A   1      -3.354   3.637 130.708  0.00  0.00    +0.000 C 
ATOM     11  C   LIG A   1      -3.964   5.054 130.604  0.00  0.00    +0.003 C 
ATOM     12  C   LIG A   1      -4.570   5.327 129.205  0.00  0.00    +0.005 C 
ATOM     13  C   LIG A   1      -5.439   4.191 128.653  0.00  0.00    +0.007 C 
ATOM     14  C   LIG A   1      -4.713   2.824 128.648  0.00  0.00    -0.026 C 
ATOM     15  C   LIG A   1      -3.518   2.839 127.675  0.00  0.00    +0.012 C 
ATOM     16  C   LIG A   1      -4.205   2.516 130.081  0.00  0.00    -0.001 C 
ATOM     17  C   LIG A   1      -5.472   2.112 130.840  0.00  0.00    +0.004 C 
ATOM     18  C   LIG A   1      -6.399   1.501 129.786  0.00  0.00    +0.005 C 
ATOM     19  C   LIG A   1      -5.672   1.599 128.422  0.00  0.00    +0.001 C 
ENDROOT
BRANCH   1  20
ATOM     20  O   LIG A   1      -1.050   9.062 133.646  0.00  0.00    -0.389 OA
ATOM     21  H   LIG A   1      -0.560   9.267 132.821  0.00  0.00    +0.210 HD
ENDBRANCH   1  20
BRANCH   2  22
ATOM     22  O   LIG A   1      -0.066   6.966 132.298  0.00  0.00    -0.385 OA
ATOM     23  H   LIG A   1      -0.278   6.779 131.366  0.00  0.00    +0.210 HD
ENDBRANCH   2  22
BRANCH  19  24
ATOM     24  C   LIG A   1      -6.640   1.557 127.180  0.00  0.00    +0.018 C 
ATOM     25  C   LIG A   1      -5.951   0.941 125.953  0.00  0.00    +0.010 C 
BRANCH  24  26
ATOM     26  C   LIG A   1      -7.979   0.780 127.487  0.00  0.00    +0.122 C 
BRANCH  26  27
ATOM     27  O   LIG A   1      -9.080   1.691 127.472  0.00  0.00    -0.391 OA
ATOM     28  H   LIG A   1      -8.730   2.592 127.579  0.00  0.00    +0.210 HD
ENDBRANCH  26  27
BRANCH  26  29
ATOM     29  C   LIG A   1      -8.304  -0.365 126.488  0.00  0.00    +0.062 C 
BRANCH  29  30
ATOM     30  C   LIG A   1      -8.247  -1.793 127.036  0.00  0.00    -0.072 C 
ATOM     31  C   LIG A   1      -8.800  -2.798 126.319  0.00  0.00    +0.008 C 
BRANCH  30  32
ATOM     32  C   LIG A   1      -7.501  -2.041 128.347  0.00  0.00    +0.008 C 
ATOM     33  C   LIG A   1      -8.058  -3.266 129.078  0.00  0.00    +0.012 C 
ATOM     34  C   LIG A   1      -5.976  -2.209 128.198  0.00  0.00    +0.012 C 
ENDBRANCH  30  32
ENDBRANCH  29  30
ENDBRANCH  26  29
ENDBRANCH  24  26
ENDBRANCH  19  24
TORSDOF 8
ENDMDL
MODEL 9
REMARK VINA RESULT:      -6.9      4.038      8.130
REMARK  Name = NuBBE_1213
REMARK  13 active torsions:
REMARK  status: ('A' for Active; 'I' for Inactive)
REMARK    1  A    between atoms: O_1  and  C_2
REMARK    2  A    between atoms: C_4  and  O_6
REMARK    3  A    between atoms: C_9  and  C_10
REMARK    4  A    between atoms: C_18  and  C_19
REMARK    5  A    between atoms: C_23  and  C_24
REMARK    6  A    between atoms: C_24  and  C_25
REMARK    7  A    between atoms: C_24  and  C_33
REMARK    8  A    between atoms: C_25  and  O_26
REMARK    9  A    between atoms: C_25  and  C_27
REMARK   10  A    between atoms: C_27  and  C_28
REMARK   11  A    between atoms: C_28  and  C_29
REMARK   12  A    between atoms: C_29  and  C_30
REMARK   13  A    between atoms: C_29  and  C_31
REMARK                            x       y       z     vdW  Elec       q    Type
REMARK                         _______ _______ _______ _____ _____    ______ ____
ROOT
ATOM      1  C   LIG A   1      -9.614   5.071 132.469  0.00  0.00    +0.147 C 
ATOM      2  C   LIG A   1      -9.768   4.398 131.090  0.00  0.00    +0.169 C 
ATOM      3  C   LIG A   1      -9.476   4.061 133.607  0.00  0.00    +0.035 C 
ATOM      4  C   LIG A   1      -8.379   3.032 133.320  0.00  0.00    +0.014 C 
ATOM      5  C   LIG A   1      -8.602   2.236 132.003  0.00  0.00    -0.005 C 
ATOM      6  C   LIG A   1      -9.883   1.372 132.145  0.00  0.00    +0.016 C 
ATOM      7  C   LIG A   1      -8.792   3.258 130.863  0.00  0.00    -0.037 C 
ATOM      8  C   LIG A   1      -8.089   3.204 129.714  0.00  0.00    -0.024 C 
ATOM      9  C   LIG A   1      -7.101   2.132 129.374  0.00  0.00    +0.031 C 
ATOM     10  C   LIG A   1      -7.265   0.887 130.257  0.00  0.00    +0.000 C 
ATOM     11  C   LIG A   1      -7.331   1.299 131.746  0.00  0.00    +0.003 C 
ATOM     12  C   LIG A   1      -7.259   0.076 132.693  0.00  0.00    +0.005 C 
ATOM     13  C   LIG A   1      -6.172  -0.945 132.337  0.00  0.00    +0.007 C 
ATOM     14  C   LIG A   1      -6.256  -1.428 130.869  0.00  0.00    -0.026 C 
ATOM     15  C   LIG A   1      -7.556  -2.219 130.623  0.00  0.00    +0.012 C 
ATOM     16  C   LIG A   1      -6.219  -0.195 129.928  0.00  0.00    -0.001 C 
ATOM     17  C   LIG A   1      -4.751   0.240 129.954  0.00  0.00    +0.004 C 
ATOM     18  C   LIG A   1      -3.953  -1.039 130.215  0.00  0.00    +0.005 C 
ATOM     19  C   LIG A   1      -4.972  -2.192 130.380  0.00  0.00    +0.001 C 
ENDROOT
BRANCH   1  20
ATOM     20  O   LIG A   1     -10.758   5.891 132.733  0.00  0.00    -0.389 OA
ATOM     21  H   LIG A   1     -11.487   5.467 132.232  0.00  0.00    +0.210 HD
ENDBRANCH   1  20
BRANCH   2  22
ATOM     22  O   LIG A   1     -11.110   3.911 130.961  0.00  0.00    -0.385 OA
ATOM     23  H   LIG A   1     -11.037   3.000 130.624  0.00  0.00    +0.210 HD
ENDBRANCH   2  22
BRANCH  19  24
ATOM     24  C   LIG A   1      -4.415  -3.424 131.188  0.00  0.00    +0.018 C 
ATOM     25  C   LIG A   1      -3.651  -2.972 132.442  0.00  0.00    +0.010 C 
BRANCH  24  26
ATOM     26  C   LIG A   1      -5.551  -4.441 131.592  0.00  0.00    +0.122 C 
BRANCH  26  27
ATOM     27  O   LIG A   1      -5.741  -5.394 130.543  0.00  0.00    -0.391 OA
ATOM     28  H   LIG A   1      -5.621  -6.284 130.917  0.00  0.00    +0.210 HD
ENDBRANCH  26  27
BRANCH  26  29
ATOM     29  C   LIG A   1      -5.272  -5.233 132.900  0.00  0.00    +0.062 C 
BRANCH  29  30
ATOM     30  C   LIG A   1      -6.189  -4.940 134.090  0.00  0.00    -0.072 C 
ATOM     31  C   LIG A   1      -6.386  -5.899 135.024  0.00  0.00    +0.008 C 
BRANCH  30  32
ATOM     32  C   LIG A   1      -6.795  -3.542 134.216  0.00  0.00    +0.008 C 
ATOM     33  C   LIG A   1      -8.320  -3.585 134.074  0.00  0.00    +0.012 C 
ATOM     34  C   LIG A   1      -6.445  -2.803 135.522  0.00  0.00    +0.012 C 
ENDBRANCH  30  32
ENDBRANCH  29  30
ENDBRANCH  26  29
ENDBRANCH  24  26
ENDBRANCH  19  24
TORSDOF 8
ENDMDL
