MODEL 1
REMARK VINA RESULT:      -7.1      0.000      0.000
REMARK  Name = NuBBE_2147
REMARK  12 active torsions:
REMARK  status: ('A' for Active; 'I' for Inactive)
REMARK    1  A    between atoms: C_1  and  O_2
REMARK    2  A    between atoms: O_2  and  C_3
REMARK    3  A    between atoms: C_10  and  C_11
REMARK    4  A    between atoms: C_13  and  C_15
REMARK    5  A    between atoms: C_16  and  C_17
REMARK    6  A    between atoms: C_17  and  C_18
REMARK    7  A    between atoms: C_20  and  O_21
REMARK    8  A    between atoms: C_24  and  O_26
REMARK    9  A    between atoms: O_26  and  C_27
REMARK   10  A    between atoms: C_28  and  O_30
REMARK   11  A    between atoms: C_31  and  O_32
REMARK   12  A    between atoms: O_32  and  C_33
REMARK                            x       y       z     vdW  Elec       q    Type
REMARK                         _______ _______ _______ _____ _____    ______ ____
ROOT
ATOM      1  C   LIG A   1      -6.416  -1.073 125.694  0.00  0.00    +0.060 C 
ATOM      2  C   LIG A   1      -6.989  -2.514 125.611  0.00  0.00    +0.005 C 
ATOM      3  C   LIG A   1      -6.220  -3.336 124.572  0.00  0.00    +0.009 C 
ATOM      4  C   LIG A   1      -8.542  -2.354 125.388  0.00  0.00    +0.009 C 
ATOM      5  C   LIG A   1      -8.805  -0.910 125.886  0.00  0.00    +0.156 C 
ATOM      6  C   LIG A   1      -8.979  -2.459 123.898  0.00  0.00    +0.044 C 
ATOM      7  C   LIG A   1      -8.809  -1.169 123.064  0.00  0.00    +0.150 C 
ATOM      8  C   LIG A   1      -7.819  -0.133 123.669  0.00  0.00    +0.178 C 
ATOM      9  C   LIG A   1      -7.618  -0.166 125.235  0.00  0.00    +0.130 C 
ENDROOT
BRANCH   1  17
ATOM     10  C   LIG A   1      -4.898   0.729 128.823  0.00  0.00    +0.166 A 
ATOM     11  C   LIG A   1      -4.573  -0.377 129.581  0.00  0.00    +0.207 A 
ATOM     12  O   LIG A   1      -3.990  -0.403 130.812  0.00  0.00    -0.449 OA
ATOM     13  C   LIG A   1      -3.860  -1.817 131.039  0.00  0.00    +0.467 C 
ATOM     14  O   LIG A   1      -4.461  -2.615 130.003  0.00  0.00    -0.453 OA
ATOM     15  C   LIG A   1      -4.839  -1.647 129.120  0.00  0.00    +0.170 A 
ATOM     16  C   LIG A   1      -5.427  -1.887 127.890  0.00  0.00    +0.053 A 
ATOM     17  C   LIG A   1      -5.763  -0.796 127.067  0.00  0.00    -0.034 A 
ATOM     18  C   LIG A   1      -5.506   0.502 127.574  0.00  0.00    +0.053 A 
BRANCH  10  20
ATOM     19  C   LIG A   1      -3.704   2.743 128.398  0.00  0.00    +0.277 C 
ATOM     20  O   LIG A   1      -4.705   2.047 129.129  0.00  0.00    -0.491 OA
ENDBRANCH  10  20
ENDBRANCH   1  17
BRANCH   5  21
ATOM     21  O   LIG A   1     -10.096  -0.430 125.555  0.00  0.00    -0.388 OA
ATOM     22  H   LIG A   1     -10.424  -0.970 124.815  0.00  0.00    +0.210 HD
ENDBRANCH   5  21
BRANCH   7  23
ATOM     23  O   LIG A   1     -10.144  -0.660 122.857  0.00  0.00    -0.377 OA
ATOM     24  C   LIG A   1     -10.262   0.672 122.391  0.00  0.00    +0.194 C 
ENDBRANCH   7  23
BRANCH   8  25
ATOM     25  O   LIG A   1      -6.546  -0.258 122.999  0.00  0.00    -0.386 OA
ATOM     26  H   LIG A   1      -5.906  -0.613 123.641  0.00  0.00    +0.210 HD
ENDBRANCH   8  25
BRANCH   9  27
ATOM     27  O   LIG A   1      -7.510   1.176 125.753  0.00  0.00    -0.371 OA
ATOM     28  C   LIG A   1      -7.945   2.201 124.856  0.00  0.00    +0.195 C 
ENDBRANCH   9  27
BRANCH   4  29
ATOM     29  C   LIG A   1      -9.343  -3.366 126.255  0.00  0.00    +0.036 C 
BRANCH  29  30
ATOM     30  C   LIG A   1      -8.605  -3.929 127.444  0.00  0.00    -0.034 C 
ATOM     31  C   LIG A   1      -8.694  -3.454 128.684  0.00  0.00    +0.004 C 
ENDBRANCH  29  30
ENDBRANCH   4  29
TORSDOF 8
ENDMDL
MODEL 2
REMARK VINA RESULT:      -7.0      0.601      2.042
REMARK  Name = NuBBE_2147
REMARK  12 active torsions:
REMARK  status: ('A' for Active; 'I' for Inactive)
REMARK    1  A    between atoms: C_1  and  O_2
REMARK    2  A    between atoms: O_2  and  C_3
REMARK    3  A    between atoms: C_10  and  C_11
REMARK    4  A    between atoms: C_13  and  C_15
REMARK    5  A    between atoms: C_16  and  C_17
REMARK    6  A    between atoms: C_17  and  C_18
REMARK    7  A    between atoms: C_20  and  O_21
REMARK    8  A    between atoms: C_24  and  O_26
REMARK    9  A    between atoms: O_26  and  C_27
REMARK   10  A    between atoms: C_28  and  O_30
REMARK   11  A    between atoms: C_31  and  O_32
REMARK   12  A    between atoms: O_32  and  C_33
REMARK                            x       y       z     vdW  Elec       q    Type
REMARK                         _______ _______ _______ _____ _____    ______ ____
ROOT
ATOM      1  C   LIG A   1      -6.432  -1.005 125.715  0.00  0.00    +0.060 C 
ATOM      2  C   LIG A   1      -6.993  -2.449 125.609  0.00  0.00    +0.005 C 
ATOM      3  C   LIG A   1      -6.212  -3.251 124.564  0.00  0.00    +0.009 C 
ATOM      4  C   LIG A   1      -8.546  -2.298 125.378  0.00  0.00    +0.009 C 
ATOM      5  C   LIG A   1      -8.823  -0.863 125.895  0.00  0.00    +0.156 C 
ATOM      6  C   LIG A   1      -8.973  -2.386 123.884  0.00  0.00    +0.044 C 
ATOM      7  C   LIG A   1      -8.807  -1.083 123.069  0.00  0.00    +0.150 C 
ATOM      8  C   LIG A   1      -7.829  -0.048 123.695  0.00  0.00    +0.178 C 
ATOM      9  C   LIG A   1      -7.638  -0.101 125.261  0.00  0.00    +0.130 C 
ENDROOT
BRANCH   1  17
ATOM     10  C   LIG A   1      -4.800  -1.500 129.242  0.00  0.00    +0.166 A 
ATOM     11  C   LIG A   1      -4.624  -0.178 129.593  0.00  0.00    +0.207 A 
ATOM     12  O   LIG A   1      -4.091   0.316 130.745  0.00  0.00    -0.449 OA
ATOM     13  C   LIG A   1      -4.233   1.733 130.545  0.00  0.00    +0.467 C 
ATOM     14  O   LIG A   1      -4.742   2.072 129.242  0.00  0.00    -0.453 OA
ATOM     15  C   LIG A   1      -4.998   0.833 128.735  0.00  0.00    +0.170 A 
ATOM     16  C   LIG A   1      -5.570   0.589 127.499  0.00  0.00    +0.053 A 
ATOM     17  C   LIG A   1      -5.789  -0.742 127.097  0.00  0.00    -0.034 A 
ATOM     18  C   LIG A   1      -5.371  -1.765 127.982  0.00  0.00    +0.053 A 
BRANCH  10  20
ATOM     19  C   LIG A   1      -3.395  -3.402 129.511  0.00  0.00    +0.277 C 
ATOM     20  O   LIG A   1      -4.486  -2.614 129.968  0.00  0.00    -0.491 OA
ENDBRANCH  10  20
ENDBRANCH   1  17
BRANCH   5  21
ATOM     21  O   LIG A   1     -10.116  -0.389 125.562  0.00  0.00    -0.388 OA
ATOM     22  H   LIG A   1     -10.139  -0.263 124.597  0.00  0.00    +0.210 HD
ENDBRANCH   5  21
BRANCH   7  23
ATOM     23  O   LIG A   1     -10.145  -0.581 122.860  0.00  0.00    -0.377 OA
ATOM     24  C   LIG A   1     -10.272   0.766 122.443  0.00  0.00    +0.194 C 
ENDBRANCH   7  23
BRANCH   8  25
ATOM     25  O   LIG A   1      -6.551  -0.153 123.031  0.00  0.00    -0.386 OA
ATOM     26  H   LIG A   1      -6.700  -0.026 122.079  0.00  0.00    +0.210 HD
ENDBRANCH   8  25
BRANCH   9  27
ATOM     27  O   LIG A   1      -7.544   1.234 125.798  0.00  0.00    -0.371 OA
ATOM     28  C   LIG A   1      -8.002   2.266 124.921  0.00  0.00    +0.195 C 
ENDBRANCH   9  27
BRANCH   4  29
ATOM     29  C   LIG A   1      -9.344  -3.328 126.226  0.00  0.00    +0.036 C 
BRANCH  29  30
ATOM     30  C   LIG A   1      -8.606  -3.910 127.406  0.00  0.00    -0.034 C 
ATOM     31  C   LIG A   1      -8.682  -3.444 128.651  0.00  0.00    +0.004 C 
ENDBRANCH  29  30
ENDBRANCH   4  29
TORSDOF 8
ENDMDL
MODEL 3
REMARK VINA RESULT:      -6.8      6.753     10.032
REMARK  Name = NuBBE_2147
REMARK  12 active torsions:
REMARK  status: ('A' for Active; 'I' for Inactive)
REMARK    1  A    between atoms: C_1  and  O_2
REMARK    2  A    between atoms: O_2  and  C_3
REMARK    3  A    between atoms: C_10  and  C_11
REMARK    4  A    between atoms: C_13  and  C_15
REMARK    5  A    between atoms: C_16  and  C_17
REMARK    6  A    between atoms: C_17  and  C_18
REMARK    7  A    between atoms: C_20  and  O_21
REMARK    8  A    between atoms: C_24  and  O_26
REMARK    9  A    between atoms: O_26  and  C_27
REMARK   10  A    between atoms: C_28  and  O_30
REMARK   11  A    between atoms: C_31  and  O_32
REMARK   12  A    between atoms: O_32  and  C_33
REMARK                            x       y       z     vdW  Elec       q    Type
REMARK                         _______ _______ _______ _____ _____    ______ ____
ROOT
ATOM      1  C   LIG A   1      -7.880   5.135 131.180  0.00  0.00    +0.060 C 
ATOM      2  C   LIG A   1      -7.392   5.452 132.620  0.00  0.00    +0.005 C 
ATOM      3  C   LIG A   1      -5.996   6.083 132.584  0.00  0.00    +0.009 C 
ATOM      4  C   LIG A   1      -7.548   4.113 133.439  0.00  0.00    +0.009 C 
ATOM      5  C   LIG A   1      -8.579   3.322 132.593  0.00  0.00    +0.156 C 
ATOM      6  C   LIG A   1      -6.238   3.280 133.542  0.00  0.00    +0.044 C 
ATOM      7  C   LIG A   1      -5.915   2.396 132.316  0.00  0.00    +0.150 C 
ATOM      8  C   LIG A   1      -6.651   2.809 131.009  0.00  0.00    +0.178 C 
ATOM      9  C   LIG A   1      -8.027   3.567 131.172  0.00  0.00    +0.130 C 
ENDROOT
BRANCH   1  17
ATOM     10  C   LIG A   1     -10.291   7.585 129.302  0.00  0.00    +0.166 A 
ATOM     11  C   LIG A   1     -11.376   7.525 130.151  0.00  0.00    +0.207 A 
ATOM     12  O   LIG A   1     -12.563   8.182 130.036  0.00  0.00    -0.449 OA
ATOM     13  C   LIG A   1     -13.242   7.763 131.232  0.00  0.00    +0.467 C 
ATOM     14  O   LIG A   1     -12.507   6.781 131.986  0.00  0.00    -0.453 OA
ATOM     15  C   LIG A   1     -11.347   6.724 131.272  0.00  0.00    +0.170 A 
ATOM     16  C   LIG A   1     -10.248   5.956 131.612  0.00  0.00    +0.053 A 
ATOM     17  C   LIG A   1      -9.105   5.994 130.791  0.00  0.00    -0.034 A 
ATOM     18  C   LIG A   1      -9.168   6.801 129.629  0.00  0.00    +0.053 A 
BRANCH  10  20
ATOM     19  C   LIG A   1     -10.900   7.899 127.022  0.00  0.00    +0.277 C 
ATOM     20  O   LIG A   1     -10.155   8.321 128.158  0.00  0.00    -0.491 OA
ENDBRANCH  10  20
ENDBRANCH   1  17
BRANCH   5  21
ATOM     21  O   LIG A   1      -8.703   1.967 132.987  0.00  0.00    -0.388 OA
ATOM     22  H   LIG A   1      -9.550   1.640 132.636  0.00  0.00    +0.210 HD
ENDBRANCH   5  21
BRANCH   7  23
ATOM     23  O   LIG A   1      -6.172   1.038 132.735  0.00  0.00    -0.377 OA
ATOM     24  C   LIG A   1      -5.603   0.622 133.963  0.00  0.00    +0.194 C 
ENDBRANCH   7  23
BRANCH   8  25
ATOM     25  O   LIG A   1      -5.748   3.581 130.189  0.00  0.00    -0.386 OA
ATOM     26  H   LIG A   1      -6.188   3.744 129.336  0.00  0.00    +0.210 HD
ENDBRANCH   8  25
BRANCH   9  27
ATOM     27  O   LIG A   1      -8.966   3.118 130.174  0.00  0.00    -0.371 OA
ATOM     28  C   LIG A   1      -8.583   1.925 129.485  0.00  0.00    +0.195 C 
ENDBRANCH   9  27
BRANCH   4  29
ATOM     29  C   LIG A   1      -8.125   4.384 134.857  0.00  0.00    +0.036 C 
BRANCH  29  30
ATOM     30  C   LIG A   1      -7.817   5.744 135.434  0.00  0.00    -0.034 C 
ATOM     31  C   LIG A   1      -6.886   5.981 136.355  0.00  0.00    +0.004 C 
ENDBRANCH  29  30
ENDBRANCH   4  29
TORSDOF 8
ENDMDL
MODEL 4
REMARK VINA RESULT:      -6.6      2.563      3.598
REMARK  Name = NuBBE_2147
REMARK  12 active torsions:
REMARK  status: ('A' for Active; 'I' for Inactive)
REMARK    1  A    between atoms: C_1  and  O_2
REMARK    2  A    between atoms: O_2  and  C_3
REMARK    3  A    between atoms: C_10  and  C_11
REMARK    4  A    between atoms: C_13  and  C_15
REMARK    5  A    between atoms: C_16  and  C_17
REMARK    6  A    between atoms: C_17  and  C_18
REMARK    7  A    between atoms: C_20  and  O_21
REMARK    8  A    between atoms: C_24  and  O_26
REMARK    9  A    between atoms: O_26  and  C_27
REMARK   10  A    between atoms: C_28  and  O_30
REMARK   11  A    between atoms: C_31  and  O_32
REMARK   12  A    between atoms: O_32  and  C_33
REMARK                            x       y       z     vdW  Elec       q    Type
REMARK                         _______ _______ _______ _____ _____    ______ ____
ROOT
ATOM      1  C   LIG A   1      -6.455   0.848 125.432  0.00  0.00    +0.060 C 
ATOM      2  C   LIG A   1      -6.249  -0.525 126.127  0.00  0.00    +0.005 C 
ATOM      3  C   LIG A   1      -5.059  -1.265 125.509  0.00  0.00    +0.009 C 
ATOM      4  C   LIG A   1      -7.647  -1.254 126.076  0.00  0.00    +0.009 C 
ATOM      5  C   LIG A   1      -8.631  -0.076 125.858  0.00  0.00    +0.156 C 
ATOM      6  C   LIG A   1      -7.793  -2.256 124.895  0.00  0.00    +0.044 C 
ATOM      7  C   LIG A   1      -8.163  -1.627 123.532  0.00  0.00    +0.150 C 
ATOM      8  C   LIG A   1      -7.876  -0.101 123.425  0.00  0.00    +0.178 C 
ATOM      9  C   LIG A   1      -7.878   0.723 124.772  0.00  0.00    +0.130 C 
ENDROOT
BRANCH   1  17
ATOM     10  C   LIG A   1      -6.685   3.348 128.439  0.00  0.00    +0.166 A 
ATOM     11  C   LIG A   1      -5.640   4.186 128.113  0.00  0.00    +0.207 A 
ATOM     12  O   LIG A   1      -5.207   5.285 128.791  0.00  0.00    -0.449 OA
ATOM     13  C   LIG A   1      -4.149   5.753 127.939  0.00  0.00    +0.467 C 
ATOM     14  O   LIG A   1      -3.887   4.876 126.828  0.00  0.00    -0.453 OA
ATOM     15  C   LIG A   1      -4.880   3.956 126.987  0.00  0.00    +0.170 A 
ATOM     16  C   LIG A   1      -5.123   2.900 126.126  0.00  0.00    +0.053 A 
ATOM     17  C   LIG A   1      -6.190   2.024 126.401  0.00  0.00    -0.034 A 
ATOM     18  C   LIG A   1      -6.938   2.262 127.579  0.00  0.00    +0.053 A 
BRANCH  10  20
ATOM     19  C   LIG A   1      -8.685   4.248 129.365  0.00  0.00    +0.277 C 
ATOM     20  O   LIG A   1      -7.529   3.432 129.510  0.00  0.00    -0.491 OA
ENDBRANCH  10  20
ENDBRANCH   1  17
BRANCH   5  21
ATOM     21  O   LIG A   1      -9.942  -0.496 125.524  0.00  0.00    -0.388 OA
ATOM     22  H   LIG A   1     -10.462   0.303 125.331  0.00  0.00    +0.210 HD
ENDBRANCH   5  21
BRANCH   7  23
ATOM     23  O   LIG A   1      -9.542  -1.986 123.298  0.00  0.00    -0.377 OA
ATOM     24  C   LIG A   1      -9.866  -3.364 123.335  0.00  0.00    +0.194 C 
ENDBRANCH   7  23
BRANCH   8  25
ATOM     25  O   LIG A   1      -6.629   0.091 122.723  0.00  0.00    -0.386 OA
ATOM     26  H   LIG A   1      -6.260  -0.788 122.528  0.00  0.00    +0.210 HD
ENDBRANCH   8  25
BRANCH   9  27
ATOM     27  O   LIG A   1      -8.493   2.012 124.567  0.00  0.00    -0.371 OA
ATOM     28  C   LIG A   1      -9.228   2.138 123.347  0.00  0.00    +0.195 C 
ENDBRANCH   9  27
BRANCH   4  29
ATOM     29  C   LIG A   1      -7.963  -1.963 127.423  0.00  0.00    +0.036 C 
BRANCH  29  30
ATOM     30  C   LIG A   1      -8.653  -3.299 127.308  0.00  0.00    -0.034 C 
ATOM     31  C   LIG A   1      -9.007  -4.060 128.341  0.00  0.00    +0.004 C 
ENDBRANCH  29  30
ENDBRANCH   4  29
TORSDOF 8
ENDMDL
MODEL 5
REMARK VINA RESULT:      -6.6      3.676      8.462
REMARK  Name = NuBBE_2147
REMARK  12 active torsions:
REMARK  status: ('A' for Active; 'I' for Inactive)
REMARK    1  A    between atoms: C_1  and  O_2
REMARK    2  A    between atoms: O_2  and  C_3
REMARK    3  A    between atoms: C_10  and  C_11
REMARK    4  A    between atoms: C_13  and  C_15
REMARK    5  A    between atoms: C_16  and  C_17
REMARK    6  A    between atoms: C_17  and  C_18
REMARK    7  A    between atoms: C_20  and  O_21
REMARK    8  A    between atoms: C_24  and  O_26
REMARK    9  A    between atoms: O_26  and  C_27
REMARK   10  A    between atoms: C_28  and  O_30
REMARK   11  A    between atoms: C_31  and  O_32
REMARK   12  A    between atoms: O_32  and  C_33
REMARK                            x       y       z     vdW  Elec       q    Type
REMARK                         _______ _______ _______ _____ _____    ______ ____
ROOT
ATOM      1  C   LIG A   1      -4.700   2.819 126.654  0.00  0.00    +0.060 C 
ATOM      2  C   LIG A   1      -3.566   3.872 126.787  0.00  0.00    +0.005 C 
ATOM      3  C   LIG A   1      -2.203   3.180 126.886  0.00  0.00    +0.009 C 
ATOM      4  C   LIG A   1      -3.980   4.810 127.986  0.00  0.00    +0.009 C 
ATOM      5  C   LIG A   1      -5.508   4.571 128.086  0.00  0.00    +0.156 C 
ATOM      6  C   LIG A   1      -3.320   4.427 129.342  0.00  0.00    +0.044 C 
ATOM      7  C   LIG A   1      -4.007   3.277 130.113  0.00  0.00    +0.150 C 
ATOM      8  C   LIG A   1      -4.929   2.375 129.242  0.00  0.00    +0.178 C 
ATOM      9  C   LIG A   1      -5.562   3.033 127.954  0.00  0.00    +0.130 C 
ENDROOT
BRANCH   1  17
ATOM     10  C   LIG A   1      -7.120   2.190 123.638  0.00  0.00    +0.166 A 
ATOM     11  C   LIG A   1      -6.626   3.129 122.757  0.00  0.00    +0.207 A 
ATOM     12  O   LIG A   1      -7.060   3.399 121.494  0.00  0.00    -0.449 OA
ATOM     13  C   LIG A   1      -6.128   4.411 121.079  0.00  0.00    +0.467 C 
ATOM     14  O   LIG A   1      -5.225   4.813 122.125  0.00  0.00    -0.453 OA
ATOM     15  C   LIG A   1      -5.572   3.941 123.113  0.00  0.00    +0.170 A 
ATOM     16  C   LIG A   1      -4.951   3.859 124.347  0.00  0.00    +0.053 A 
ATOM     17  C   LIG A   1      -5.402   2.906 125.279  0.00  0.00    -0.034 A 
ATOM     18  C   LIG A   1      -6.505   2.102 124.902  0.00  0.00    +0.053 A 
BRANCH  10  20
ATOM     19  C   LIG A   1      -9.470   1.817 123.607  0.00  0.00    +0.277 C 
ATOM     20  O   LIG A   1      -8.150   1.314 123.446  0.00  0.00    -0.491 OA
ENDBRANCH  10  20
ENDBRANCH   1  17
BRANCH   5  21
ATOM     21  O   LIG A   1      -6.082   5.114 129.262  0.00  0.00    -0.388 OA
ATOM     22  H   LIG A   1      -5.481   4.911 129.999  0.00  0.00    +0.210 HD
ENDBRANCH   5  21
BRANCH   7  23
ATOM     23  O   LIG A   1      -4.674   3.900 131.231  0.00  0.00    -0.377 OA
ATOM     24  C   LIG A   1      -3.933   4.843 131.983  0.00  0.00    +0.194 C 
ENDBRANCH   7  23
BRANCH   8  25
ATOM     25  O   LIG A   1      -4.210   1.174 128.889  0.00  0.00    -0.386 OA
ATOM     26  H   LIG A   1      -4.574   0.847 128.049  0.00  0.00    +0.210 HD
ENDBRANCH   8  25
BRANCH   9  27
ATOM     27  O   LIG A   1      -6.922   2.583 127.780  0.00  0.00    -0.371 OA
ATOM     28  C   LIG A   1      -7.513   1.999 128.944  0.00  0.00    +0.195 C 
ENDBRANCH   9  27
BRANCH   4  29
ATOM     29  C   LIG A   1      -3.699   6.303 127.655  0.00  0.00    +0.036 C 
BRANCH  29  30
ATOM     30  C   LIG A   1      -3.161   7.131 128.796  0.00  0.00    -0.034 C 
ATOM     31  C   LIG A   1      -3.857   8.058 129.451  0.00  0.00    +0.004 C 
ENDBRANCH  29  30
ENDBRANCH   4  29
TORSDOF 8
ENDMDL
MODEL 6
REMARK VINA RESULT:      -6.6      3.836      8.387
REMARK  Name = NuBBE_2147
REMARK  12 active torsions:
REMARK  status: ('A' for Active; 'I' for Inactive)
REMARK    1  A    between atoms: C_1  and  O_2
REMARK    2  A    between atoms: O_2  and  C_3
REMARK    3  A    between atoms: C_10  and  C_11
REMARK    4  A    between atoms: C_13  and  C_15
REMARK    5  A    between atoms: C_16  and  C_17
REMARK    6  A    between atoms: C_17  and  C_18
REMARK    7  A    between atoms: C_20  and  O_21
REMARK    8  A    between atoms: C_24  and  O_26
REMARK    9  A    between atoms: O_26  and  C_27
REMARK   10  A    between atoms: C_28  and  O_30
REMARK   11  A    between atoms: C_31  and  O_32
REMARK   12  A    between atoms: O_32  and  C_33
REMARK                            x       y       z     vdW  Elec       q    Type
REMARK                         _______ _______ _______ _____ _____    ______ ____
ROOT
ATOM      1  C   LIG A   1      -4.758   2.934 126.858  0.00  0.00    +0.060 C 
ATOM      2  C   LIG A   1      -3.591   3.957 126.905  0.00  0.00    +0.005 C 
ATOM      3  C   LIG A   1      -2.242   3.231 126.880  0.00  0.00    +0.009 C 
ATOM      4  C   LIG A   1      -3.877   4.888 128.146  0.00  0.00    +0.009 C 
ATOM      5  C   LIG A   1      -5.396   4.684 128.374  0.00  0.00    +0.156 C 
ATOM      6  C   LIG A   1      -3.114   4.471 129.436  0.00  0.00    +0.044 C 
ATOM      7  C   LIG A   1      -3.761   3.326 130.250  0.00  0.00    +0.150 C 
ATOM      8  C   LIG A   1      -4.777   2.460 129.451  0.00  0.00    +0.178 C 
ATOM      9  C   LIG A   1      -5.500   3.150 128.229  0.00  0.00    +0.130 C 
ENDROOT
BRANCH   1  17
ATOM     10  C   LIG A   1      -5.956   3.975 123.276  0.00  0.00    +0.166 A 
ATOM     11  C   LIG A   1      -7.109   3.221 123.199  0.00  0.00    +0.207 A 
ATOM     12  O   LIG A   1      -7.995   3.154 122.167  0.00  0.00    -0.449 OA
ATOM     13  C   LIG A   1      -8.991   2.264 122.700  0.00  0.00    +0.467 C 
ATOM     14  O   LIG A   1      -8.639   1.725 123.987  0.00  0.00    -0.453 OA
ATOM     15  C   LIG A   1      -7.483   2.400 124.241  0.00  0.00    +0.170 A 
ATOM     16  C   LIG A   1      -6.747   2.294 125.408  0.00  0.00    +0.053 A 
ATOM     17  C   LIG A   1      -5.572   3.056 125.549  0.00  0.00    -0.034 A 
ATOM     18  C   LIG A   1      -5.191   3.870 124.454  0.00  0.00    +0.053 A 
BRANCH  10  20
ATOM     19  C   LIG A   1      -4.950   4.258 121.139  0.00  0.00    +0.277 C 
ATOM     20  O   LIG A   1      -5.445   4.831 122.342  0.00  0.00    -0.491 OA
ENDBRANCH  10  20
ENDBRANCH   1  17
BRANCH   5  21
ATOM     21  O   LIG A   1      -5.855   5.225 129.601  0.00  0.00    -0.388 OA
ATOM     22  H   LIG A   1      -6.139   4.479 130.158  0.00  0.00    +0.210 HD
ENDBRANCH   5  21
BRANCH   7  23
ATOM     23  O   LIG A   1      -4.315   3.950 131.428  0.00  0.00    -0.377 OA
ATOM     24  C   LIG A   1      -3.489   4.865 132.124  0.00  0.00    +0.194 C 
ENDBRANCH   7  23
BRANCH   8  25
ATOM     25  O   LIG A   1      -4.120   1.247 129.023  0.00  0.00    -0.386 OA
ATOM     26  H   LIG A   1      -4.762   0.728 128.508  0.00  0.00    +0.210 HD
ENDBRANCH   8  25
BRANCH   9  27
ATOM     27  O   LIG A   1      -6.881   2.735 128.167  0.00  0.00    -0.371 OA
ATOM     28  C   LIG A   1      -7.389   2.163 129.374  0.00  0.00    +0.195 C 
ENDBRANCH   9  27
BRANCH   4  29
ATOM     29  C   LIG A   1      -3.588   6.378 127.810  0.00  0.00    +0.036 C 
BRANCH  29  30
ATOM     30  C   LIG A   1      -3.137   7.230 128.971  0.00  0.00    -0.034 C 
ATOM     31  C   LIG A   1      -3.891   8.145 129.576  0.00  0.00    +0.004 C 
ENDBRANCH  29  30
ENDBRANCH   4  29
TORSDOF 8
ENDMDL
MODEL 7
REMARK VINA RESULT:      -6.6      2.081      6.585
REMARK  Name = NuBBE_2147
REMARK  12 active torsions:
REMARK  status: ('A' for Active; 'I' for Inactive)
REMARK    1  A    between atoms: C_1  and  O_2
REMARK    2  A    between atoms: O_2  and  C_3
REMARK    3  A    between atoms: C_10  and  C_11
REMARK    4  A    between atoms: C_13  and  C_15
REMARK    5  A    between atoms: C_16  and  C_17
REMARK    6  A    between atoms: C_17  and  C_18
REMARK    7  A    between atoms: C_20  and  O_21
REMARK    8  A    between atoms: C_24  and  O_26
REMARK    9  A    between atoms: O_26  and  C_27
REMARK   10  A    between atoms: C_28  and  O_30
REMARK   11  A    between atoms: C_31  and  O_32
REMARK   12  A    between atoms: O_32  and  C_33
REMARK                            x       y       z     vdW  Elec       q    Type
REMARK                         _______ _______ _______ _____ _____    ______ ____
ROOT
ATOM      1  C   LIG A   1      -7.573  -1.232 128.241  0.00  0.00    +0.060 C 
ATOM      2  C   LIG A   1      -7.133  -2.501 129.020  0.00  0.00    +0.005 C 
ATOM      3  C   LIG A   1      -8.244  -2.959 129.969  0.00  0.00    +0.009 C 
ATOM      4  C   LIG A   1      -5.738  -2.153 129.669  0.00  0.00    +0.009 C 
ATOM      5  C   LIG A   1      -5.253  -0.963 128.802  0.00  0.00    +0.156 C 
ATOM      6  C   LIG A   1      -5.831  -1.689 131.152  0.00  0.00    +0.044 C 
ATOM      7  C   LIG A   1      -6.208  -0.204 131.360  0.00  0.00    +0.150 C 
ATOM      8  C   LIG A   1      -6.886   0.470 130.133  0.00  0.00    +0.178 C 
ATOM      9  C   LIG A   1      -6.551  -0.132 128.711  0.00  0.00    +0.130 C 
ENDROOT
BRANCH   1  17
ATOM     10  C   LIG A   1      -7.066  -2.682 124.637  0.00  0.00    +0.166 A 
ATOM     11  C   LIG A   1      -8.036  -1.963 123.970  0.00  0.00    +0.207 A 
ATOM     12  O   LIG A   1      -8.355  -2.020 122.647  0.00  0.00    -0.449 OA
ATOM     13  C   LIG A   1      -9.379  -1.016 122.554  0.00  0.00    +0.467 C 
ATOM     14  O   LIG A   1      -9.739  -0.453 123.829  0.00  0.00    -0.453 OA
ATOM     15  C   LIG A   1      -8.831  -1.062 124.643  0.00  0.00    +0.170 A 
ATOM     16  C   LIG A   1      -8.700  -0.820 125.999  0.00  0.00    +0.053 A 
ATOM     17  C   LIG A   1      -7.714  -1.512 126.727  0.00  0.00    -0.034 A 
ATOM     18  C   LIG A   1      -6.928  -2.454 126.020  0.00  0.00    +0.053 A 
BRANCH  10  20
ATOM     19  C   LIG A   1      -4.959  -3.128 123.624  0.00  0.00    +0.277 C 
ATOM     20  O   LIG A   1      -6.201  -3.607 124.125  0.00  0.00    -0.491 OA
ENDBRANCH  10  20
ENDBRANCH   1  17
BRANCH   5  21
ATOM     21  O   LIG A   1      -4.125  -0.299 129.344  0.00  0.00    -0.388 OA
ATOM     22  H   LIG A   1      -4.454   0.347 129.993  0.00  0.00    +0.210 HD
ENDBRANCH   5  21
BRANCH   7  23
ATOM     23  O   LIG A   1      -4.996   0.448 131.798  0.00  0.00    -0.377 OA
ATOM     24  C   LIG A   1      -5.036   1.856 131.943  0.00  0.00    +0.194 C 
ENDBRANCH   7  23
BRANCH   8  25
ATOM     25  O   LIG A   1      -8.314   0.493 130.342  0.00  0.00    -0.386 OA
ATOM     26  H   LIG A   1      -8.597   1.423 130.352  0.00  0.00    +0.210 HD
ENDBRANCH   8  25
BRANCH   9  27
ATOM     27  O   LIG A   1      -6.413   0.927 127.741  0.00  0.00    -0.371 OA
ATOM     28  C   LIG A   1      -6.222   2.229 128.299  0.00  0.00    +0.195 C 
ENDBRANCH   9  27
BRANCH   4  29
ATOM     29  C   LIG A   1      -4.744  -3.341 129.540  0.00  0.00    +0.036 C 
BRANCH  29  30
ATOM     30  C   LIG A   1      -4.690  -4.274 130.725  0.00  0.00    -0.034 C 
ATOM     31  C   LIG A   1      -5.508  -5.308 130.911  0.00  0.00    +0.004 C 
ENDBRANCH  29  30
ENDBRANCH   4  29
TORSDOF 8
ENDMDL
MODEL 8
REMARK VINA RESULT:      -6.6      3.613      8.254
REMARK  Name = NuBBE_2147
REMARK  12 active torsions:
REMARK  status: ('A' for Active; 'I' for Inactive)
REMARK    1  A    between atoms: C_1  and  O_2
REMARK    2  A    between atoms: O_2  and  C_3
REMARK    3  A    between atoms: C_10  and  C_11
REMARK    4  A    between atoms: C_13  and  C_15
REMARK    5  A    between atoms: C_16  and  C_17
REMARK    6  A    between atoms: C_17  and  C_18
REMARK    7  A    between atoms: C_20  and  O_21
REMARK    8  A    between atoms: C_24  and  O_26
REMARK    9  A    between atoms: O_26  and  C_27
REMARK   10  A    between atoms: C_28  and  O_30
REMARK   11  A    between atoms: C_31  and  O_32
REMARK   12  A    between atoms: O_32  and  C_33
REMARK                            x       y       z     vdW  Elec       q    Type
REMARK                         _______ _______ _______ _____ _____    ______ ____
ROOT
ATOM      1  C   LIG A   1      -6.177   3.001 128.188  0.00  0.00    +0.060 C 
ATOM      2  C   LIG A   1      -4.655   2.717 128.292  0.00  0.00    +0.005 C 
ATOM      3  C   LIG A   1      -4.408   1.358 128.954  0.00  0.00    +0.009 C 
ATOM      4  C   LIG A   1      -4.022   3.979 128.996  0.00  0.00    +0.009 C 
ATOM      5  C   LIG A   1      -5.096   5.070 128.755  0.00  0.00    +0.156 C 
ATOM      6  C   LIG A   1      -3.814   3.807 130.529  0.00  0.00    +0.044 C 
ATOM      7  C   LIG A   1      -5.068   4.051 131.400  0.00  0.00    +0.150 C 
ATOM      8  C   LIG A   1      -6.417   3.962 130.631  0.00  0.00    +0.178 C 
ATOM      9  C   LIG A   1      -6.381   4.279 129.085  0.00  0.00    +0.130 C 
ENDROOT
BRANCH   1  17
ATOM     10  C   LIG A   1      -8.356   2.721 124.944  0.00  0.00    +0.166 A 
ATOM     11  C   LIG A   1      -7.434   3.164 124.018  0.00  0.00    +0.207 A 
ATOM     12  O   LIG A   1      -7.599   3.293 122.672  0.00  0.00    -0.449 OA
ATOM     13  C   LIG A   1      -6.293   3.733 122.263  0.00  0.00    +0.467 C 
ATOM     14  O   LIG A   1      -5.402   3.968 123.368  0.00  0.00    -0.453 OA
ATOM     15  C   LIG A   1      -6.172   3.551 124.412  0.00  0.00    +0.170 A 
ATOM     16  C   LIG A   1      -5.757   3.509 125.732  0.00  0.00    +0.053 A 
ATOM     17  C   LIG A   1      -6.651   3.048 126.717  0.00  0.00    -0.034 A 
ATOM     18  C   LIG A   1      -7.952   2.683 126.293  0.00  0.00    +0.053 A 
BRANCH  10  20
ATOM     19  C   LIG A   1      -9.842   0.914 124.509  0.00  0.00    +0.277 C 
ATOM     20  O   LIG A   1      -9.638   2.305 124.724  0.00  0.00    -0.491 OA
ENDBRANCH  10  20
ENDBRANCH   1  17
BRANCH   5  21
ATOM     21  O   LIG A   1      -4.879   6.246 129.515  0.00  0.00    -0.388 OA
ATOM     22  H   LIG A   1      -5.701   6.766 129.486  0.00  0.00    +0.210 HD
ENDBRANCH   5  21
BRANCH   7  23
ATOM     23  O   LIG A   1      -4.846   5.317 132.058  0.00  0.00    -0.377 OA
ATOM     24  C   LIG A   1      -5.889   5.812 132.877  0.00  0.00    +0.194 C 
ENDBRANCH   7  23
BRANCH   8  25
ATOM     25  O   LIG A   1      -7.001   2.661 130.861  0.00  0.00    -0.386 OA
ATOM     26  H   LIG A   1      -7.465   2.396 130.048  0.00  0.00    +0.210 HD
ENDBRANCH   8  25
BRANCH   9  27
ATOM     27  O   LIG A   1      -7.554   5.026 128.701  0.00  0.00    -0.371 OA
ATOM     28  C   LIG A   1      -8.529   5.184 129.735  0.00  0.00    +0.195 C 
ENDBRANCH   9  27
BRANCH   4  29
ATOM     29  C   LIG A   1      -2.687   4.393 128.317  0.00  0.00    +0.036 C 
BRANCH  29  30
ATOM     30  C   LIG A   1      -2.460   3.833 126.934  0.00  0.00    -0.034 C 
ATOM     31  C   LIG A   1      -1.510   2.955 126.620  0.00  0.00    +0.004 C 
ENDBRANCH  29  30
ENDBRANCH   4  29
TORSDOF 8
ENDMDL
MODEL 9
REMARK VINA RESULT:      -6.4      2.636      6.934
REMARK  Name = NuBBE_2147
REMARK  12 active torsions:
REMARK  status: ('A' for Active; 'I' for Inactive)
REMARK    1  A    between atoms: C_1  and  O_2
REMARK    2  A    between atoms: O_2  and  C_3
REMARK    3  A    between atoms: C_10  and  C_11
REMARK    4  A    between atoms: C_13  and  C_15
REMARK    5  A    between atoms: C_16  and  C_17
REMARK    6  A    between atoms: C_17  and  C_18
REMARK    7  A    between atoms: C_20  and  O_21
REMARK    8  A    between atoms: C_24  and  O_26
REMARK    9  A    between atoms: O_26  and  C_27
REMARK   10  A    between atoms: C_28  and  O_30
REMARK   11  A    between atoms: C_31  and  O_32
REMARK   12  A    between atoms: O_32  and  C_33
REMARK                            x       y       z     vdW  Elec       q    Type
REMARK                         _______ _______ _______ _____ _____    ______ ____
ROOT
ATOM      1  C   LIG A   1      -6.333   1.665 127.184  0.00  0.00    +0.060 C 
ATOM      2  C   LIG A   1      -5.479   2.558 126.244  0.00  0.00    +0.005 C 
ATOM      3  C   LIG A   1      -3.988   2.266 126.438  0.00  0.00    +0.009 C 
ATOM      4  C   LIG A   1      -5.956   4.040 126.497  0.00  0.00    +0.009 C 
ATOM      5  C   LIG A   1      -7.357   3.837 127.129  0.00  0.00    +0.156 C 
ATOM      6  C   LIG A   1      -5.062   4.827 127.499  0.00  0.00    +0.044 C 
ATOM      7  C   LIG A   1      -5.351   4.564 128.994  0.00  0.00    +0.150 C 
ATOM      8  C   LIG A   1      -6.128   3.248 129.281  0.00  0.00    +0.178 C 
ATOM      9  C   LIG A   1      -7.055   2.698 128.127  0.00  0.00    +0.130 C 
ENDROOT
BRANCH   1  17
ATOM     10  C   LIG A   1      -8.427  -0.054 124.354  0.00  0.00    +0.166 A 
ATOM     11  C   LIG A   1      -8.770  -1.219 125.007  0.00  0.00    +0.207 A 
ATOM     12  O   LIG A   1      -9.520  -2.252 124.533  0.00  0.00    -0.449 OA
ATOM     13  C   LIG A   1      -9.569  -3.122 125.676  0.00  0.00    +0.467 C 
ATOM     14  O   LIG A   1      -8.763  -2.659 126.775  0.00  0.00    -0.453 OA
ATOM     15  C   LIG A   1      -8.339  -1.456 126.294  0.00  0.00    +0.170 A 
ATOM     16  C   LIG A   1      -7.562  -0.554 126.999  0.00  0.00    +0.053 A 
ATOM     17  C   LIG A   1      -7.199   0.661 126.388  0.00  0.00    -0.034 A 
ATOM     18  C   LIG A   1      -7.628   0.871 125.054  0.00  0.00    +0.053 A 
BRANCH  10  20
ATOM     19  C   LIG A   1     -10.079   0.849 122.897  0.00  0.00    +0.277 C 
ATOM     20  O   LIG A   1      -8.767   0.335 123.089  0.00  0.00    -0.491 OA
ENDBRANCH  10  20
ENDBRANCH   1  17
BRANCH   5  21
ATOM     21  O   LIG A   1      -7.897   5.023 127.684  0.00  0.00    -0.388 OA
ATOM     22  H   LIG A   1      -7.158   5.643 127.817  0.00  0.00    +0.210 HD
ENDBRANCH   5  21
BRANCH   7  23
ATOM     23  O   LIG A   1      -6.006   5.756 129.480  0.00  0.00    -0.377 OA
ATOM     24  C   LIG A   1      -6.460   5.743 130.821  0.00  0.00    +0.194 C 
ENDBRANCH   7  23
BRANCH   8  25
ATOM     25  O   LIG A   1      -5.190   2.232 129.696  0.00  0.00    -0.386 OA
ATOM     26  H   LIG A   1      -5.172   1.546 129.007  0.00  0.00    +0.210 HD
ENDBRANCH   8  25
BRANCH   9  27
ATOM     27  O   LIG A   1      -8.276   2.165 128.678  0.00  0.00    -0.371 OA
ATOM     28  C   LIG A   1      -8.578   2.606 130.004  0.00  0.00    +0.195 C 
ENDBRANCH   9  27
BRANCH   4  29
ATOM     29  C   LIG A   1      -6.086   4.826 125.162  0.00  0.00    +0.036 C 
BRANCH  29  30
ATOM     30  C   LIG A   1      -6.167   3.980 123.916  0.00  0.00    -0.034 C 
ATOM     31  C   LIG A   1      -5.500   4.226 122.790  0.00  0.00    +0.004 C 
ENDBRANCH  29  30
ENDBRANCH   4  29
TORSDOF 8
ENDMDL
