MODEL 1
REMARK VINA RESULT:      -7.5      0.000      0.000
REMARK  Name = NuBBE_1708
REMARK  2 active torsions:
REMARK  status: ('A' for Active; 'I' for Inactive)
REMARK    1  A    between atoms: C_4  and  O_5
REMARK    2  A    between atoms: C_12  and  O_13
REMARK                            x       y       z     vdW  Elec       q    Type
REMARK                         _______ _______ _______ _____ _____    ______ ____
ROOT
ATOM      1  O   LIG A   1     -11.523   6.080 132.415  0.00  0.00    -0.286 OA
ATOM      2  C   LIG A   1     -10.686   6.518 131.635  0.00  0.00    +0.204 A 
ATOM      3  C   LIG A   1     -11.098   7.211 130.408  0.00  0.00    +0.106 A 
ATOM      4  C   LIG A   1     -12.448   7.393 130.090  0.00  0.00    +0.131 A 
ATOM      5  C   LIG A   1     -12.808   8.054 128.920  0.00  0.00    +0.046 A 
ATOM      6  C   LIG A   1     -11.817   8.536 128.062  0.00  0.00    +0.007 A 
ATOM      7  C   LIG A   1     -10.468   8.354 128.379  0.00  0.00    +0.047 A 
ATOM      8  C   LIG A   1     -10.106   7.691 129.554  0.00  0.00    +0.143 A 
ATOM      9  O   LIG A   1      -8.759   7.555 129.789  0.00  0.00    -0.451 OA
ATOM     10  C   LIG A   1      -8.362   6.908 130.935  0.00  0.00    +0.180 A 
ATOM     11  C   LIG A   1      -6.990   6.780 131.157  0.00  0.00    +0.160 A 
ATOM     12  C   LIG A   1      -6.503   6.140 132.294  0.00  0.00    +0.049 A 
ATOM     13  C   LIG A   1      -7.397   5.614 133.228  0.00  0.00    +0.004 A 
ATOM     14  C   LIG A   1      -8.772   5.734 133.021  0.00  0.00    +0.015 A 
ATOM     15  C   LIG A   1      -9.245   6.380 131.874  0.00  0.00    +0.068 A 
ENDROOT
BRANCH   4  16
ATOM     16  O   LIG A   1     -13.468   6.946 130.886  0.00  0.00    -0.506 OA
ATOM     17  H   LIG A   1     -13.960   7.732 131.215  0.00  0.00    +0.292 HD
ENDBRANCH   4  16
BRANCH  11  18
ATOM     18  O   LIG A   1      -6.076   7.278 130.271  0.00  0.00    -0.503 OA
ATOM     19  H   LIG A   1      -5.616   8.014 130.713  0.00  0.00    +0.292 HD
ENDBRANCH  11  18
TORSDOF 2
ENDMDL
MODEL 2
REMARK VINA RESULT:      -7.3      8.814     10.168
REMARK  Name = NuBBE_1708
REMARK  2 active torsions:
REMARK  status: ('A' for Active; 'I' for Inactive)
REMARK    1  A    between atoms: C_4  and  O_5
REMARK    2  A    between atoms: C_12  and  O_13
REMARK                            x       y       z     vdW  Elec       q    Type
REMARK                         _______ _______ _______ _____ _____    ______ ____
ROOT
ATOM      1  O   LIG A   1      -4.912   4.114 122.172  0.00  0.00    -0.286 OA
ATOM      2  C   LIG A   1      -6.102   3.828 122.222  0.00  0.00    +0.204 A 
ATOM      3  C   LIG A   1      -6.960   3.992 121.042  0.00  0.00    +0.106 A 
ATOM      4  C   LIG A   1      -6.452   4.476 119.831  0.00  0.00    +0.131 A 
ATOM      5  C   LIG A   1      -7.291   4.620 118.730  0.00  0.00    +0.046 A 
ATOM      6  C   LIG A   1      -8.641   4.280 118.836  0.00  0.00    +0.007 A 
ATOM      7  C   LIG A   1      -9.149   3.797 120.046  0.00  0.00    +0.047 A 
ATOM      8  C   LIG A   1      -8.308   3.652 121.152  0.00  0.00    +0.143 A 
ATOM      9  O   LIG A   1      -8.887   3.171 122.301  0.00  0.00    -0.451 OA
ATOM     10  C   LIG A   1      -8.092   3.013 123.411  0.00  0.00    +0.180 A 
ATOM     11  C   LIG A   1      -8.698   2.523 124.569  0.00  0.00    +0.160 A 
ATOM     12  C   LIG A   1      -7.966   2.332 125.738  0.00  0.00    +0.049 A 
ATOM     13  C   LIG A   1      -6.603   2.636 125.757  0.00  0.00    +0.004 A 
ATOM     14  C   LIG A   1      -5.982   3.127 124.608  0.00  0.00    +0.015 A 
ATOM     15  C   LIG A   1      -6.733   3.313 123.442  0.00  0.00    +0.068 A 
ENDROOT
BRANCH   4  16
ATOM     16  O   LIG A   1      -5.141   4.826 119.660  0.00  0.00    -0.506 OA
ATOM     17  H   LIG A   1      -5.111   5.787 119.449  0.00  0.00    +0.292 HD
ENDBRANCH   4  16
BRANCH  11  18
ATOM     18  O   LIG A   1     -10.029   2.211 124.599  0.00  0.00    -0.503 OA
ATOM     19  H   LIG A   1     -10.482   2.818 123.986  0.00  0.00    +0.292 HD
ENDBRANCH  11  18
TORSDOF 2
ENDMDL
MODEL 3
REMARK VINA RESULT:      -7.2     10.769     11.095
REMARK  Name = NuBBE_1708
REMARK  2 active torsions:
REMARK  status: ('A' for Active; 'I' for Inactive)
REMARK    1  A    between atoms: C_4  and  O_5
REMARK    2  A    between atoms: C_12  and  O_13
REMARK                            x       y       z     vdW  Elec       q    Type
REMARK                         _______ _______ _______ _____ _____    ______ ____
ROOT
ATOM      1  O   LIG A   1      -9.852  -3.348 126.187  0.00  0.00    -0.286 OA
ATOM      2  C   LIG A   1      -8.687  -2.970 126.195  0.00  0.00    +0.204 A 
ATOM      3  C   LIG A   1      -8.025  -2.560 124.950  0.00  0.00    +0.106 A 
ATOM      4  C   LIG A   1      -8.697  -2.587 123.723  0.00  0.00    +0.131 A 
ATOM      5  C   LIG A   1      -8.043  -2.191 122.560  0.00  0.00    +0.046 A 
ATOM      6  C   LIG A   1      -6.714  -1.768 122.621  0.00  0.00    +0.007 A 
ATOM      7  C   LIG A   1      -6.042  -1.741 123.846  0.00  0.00    +0.047 A 
ATOM      8  C   LIG A   1      -6.698  -2.138 125.014  0.00  0.00    +0.143 A 
ATOM      9  O   LIG A   1      -5.965  -2.082 126.176  0.00  0.00    -0.451 OA
ATOM     10  C   LIG A   1      -6.576  -2.463 127.347  0.00  0.00    +0.180 A 
ATOM     11  C   LIG A   1      -5.816  -2.399 128.516  0.00  0.00    +0.160 A 
ATOM     12  C   LIG A   1      -6.357  -2.766 129.745  0.00  0.00    +0.049 A 
ATOM     13  C   LIG A   1      -7.680  -3.208 129.814  0.00  0.00    +0.004 A 
ATOM     14  C   LIG A   1      -8.453  -3.278 128.655  0.00  0.00    +0.015 A 
ATOM     15  C   LIG A   1      -7.894  -2.905 127.427  0.00  0.00    +0.068 A 
ENDROOT
BRANCH   4  16
ATOM     16  O   LIG A   1      -9.998  -2.990 123.594  0.00  0.00    -0.506 OA
ATOM     17  H   LIG A   1     -10.571  -2.197 123.695  0.00  0.00    +0.292 HD
ENDBRANCH   4  16
BRANCH  11  18
ATOM     18  O   LIG A   1      -4.517  -1.973 128.498  0.00  0.00    -0.503 OA
ATOM     19  H   LIG A   1      -4.512  -1.049 128.806  0.00  0.00    +0.292 HD
ENDBRANCH  11  18
TORSDOF 2
ENDMDL
MODEL 4
REMARK VINA RESULT:      -7.2      1.143      4.775
REMARK  Name = NuBBE_1708
REMARK  2 active torsions:
REMARK  status: ('A' for Active; 'I' for Inactive)
REMARK    1  A    between atoms: C_4  and  O_5
REMARK    2  A    between atoms: C_12  and  O_13
REMARK                            x       y       z     vdW  Elec       q    Type
REMARK                         _______ _______ _______ _____ _____    ______ ____
ROOT
ATOM      1  O   LIG A   1     -11.743   5.667 132.355  0.00  0.00    -0.286 OA
ATOM      2  C   LIG A   1     -11.027   6.272 131.566  0.00  0.00    +0.204 A 
ATOM      3  C   LIG A   1      -9.571   6.303 131.750  0.00  0.00    +0.106 A 
ATOM      4  C   LIG A   1      -8.956   5.646 132.822  0.00  0.00    +0.131 A 
ATOM      5  C   LIG A   1      -7.573   5.692 132.969  0.00  0.00    +0.046 A 
ATOM      6  C   LIG A   1      -6.800   6.396 132.044  0.00  0.00    +0.007 A 
ATOM      7  C   LIG A   1      -7.413   7.053 130.973  0.00  0.00    +0.047 A 
ATOM      8  C   LIG A   1      -8.802   7.007 130.824  0.00  0.00    +0.143 A 
ATOM      9  O   LIG A   1      -9.323   7.679 129.745  0.00  0.00    -0.451 OA
ATOM     10  C   LIG A   1     -10.686   7.656 129.564  0.00  0.00    +0.180 A 
ATOM     11  C   LIG A   1     -11.197   8.344 128.463  0.00  0.00    +0.160 A 
ATOM     12  C   LIG A   1     -12.566   8.372 128.205  0.00  0.00    +0.049 A 
ATOM     13  C   LIG A   1     -13.444   7.704 129.060  0.00  0.00    +0.004 A 
ATOM     14  C   LIG A   1     -12.949   7.012 130.165  0.00  0.00    +0.015 A 
ATOM     15  C   LIG A   1     -11.571   6.994 130.410  0.00  0.00    +0.068 A 
ENDROOT
BRANCH   4  16
ATOM     16  O   LIG A   1      -9.655   4.940 133.762  0.00  0.00    -0.506 OA
ATOM     17  H   LIG A   1     -10.542   5.356 133.854  0.00  0.00    +0.292 HD
ENDBRANCH   4  16
BRANCH  11  18
ATOM     18  O   LIG A   1     -10.377   9.013 127.597  0.00  0.00    -0.503 OA
ATOM     19  H   LIG A   1     -10.877   9.151 126.773  0.00  0.00    +0.292 HD
ENDBRANCH  11  18
TORSDOF 2
ENDMDL
MODEL 5
REMARK VINA RESULT:      -7.0      1.774      2.905
REMARK  Name = NuBBE_1708
REMARK  2 active torsions:
REMARK  status: ('A' for Active; 'I' for Inactive)
REMARK    1  A    between atoms: C_4  and  O_5
REMARK    2  A    between atoms: C_12  and  O_13
REMARK                            x       y       z     vdW  Elec       q    Type
REMARK                         _______ _______ _______ _____ _____    ______ ____
ROOT
ATOM      1  O   LIG A   1      -9.044   5.622 127.819  0.00  0.00    -0.286 OA
ATOM      2  C   LIG A   1      -9.521   6.033 128.870  0.00  0.00    +0.204 A 
ATOM      3  C   LIG A   1     -10.729   6.868 128.866  0.00  0.00    +0.106 A 
ATOM      4  C   LIG A   1     -11.371   7.217 127.673  0.00  0.00    +0.131 A 
ATOM      5  C   LIG A   1     -12.515   8.009 127.702  0.00  0.00    +0.046 A 
ATOM      6  C   LIG A   1     -13.021   8.454 128.925  0.00  0.00    +0.007 A 
ATOM      7  C   LIG A   1     -12.380   8.106 130.117  0.00  0.00    +0.047 A 
ATOM      8  C   LIG A   1     -11.231   7.311 130.089  0.00  0.00    +0.143 A 
ATOM      9  O   LIG A   1     -10.663   7.015 131.305  0.00  0.00    -0.451 OA
ATOM     10  C   LIG A   1      -9.532   6.234 131.320  0.00  0.00    +0.180 A 
ATOM     11  C   LIG A   1      -8.969   5.944 132.563  0.00  0.00    +0.160 A 
ATOM     12  C   LIG A   1      -7.823   5.160 132.668  0.00  0.00    +0.049 A 
ATOM     13  C   LIG A   1      -7.223   4.654 131.514  0.00  0.00    +0.004 A 
ATOM     14  C   LIG A   1      -7.773   4.935 130.263  0.00  0.00    +0.015 A 
ATOM     15  C   LIG A   1      -8.925   5.725 130.175  0.00  0.00    +0.068 A 
ENDROOT
BRANCH   4  16
ATOM     16  O   LIG A   1     -10.929   6.815 126.443  0.00  0.00    -0.506 OA
ATOM     17  H   LIG A   1     -10.829   7.617 125.881  0.00  0.00    +0.292 HD
ENDBRANCH   4  16
BRANCH  11  18
ATOM     18  O   LIG A   1      -9.521   6.416 133.722  0.00  0.00    -0.503 OA
ATOM     19  H   LIG A   1      -9.230   7.340 133.825  0.00  0.00    +0.292 HD
ENDBRANCH  11  18
TORSDOF 2
ENDMDL
MODEL 6
REMARK VINA RESULT:      -6.7     10.714     11.945
REMARK  Name = NuBBE_1708
REMARK  2 active torsions:
REMARK  status: ('A' for Active; 'I' for Inactive)
REMARK    1  A    between atoms: C_4  and  O_5
REMARK    2  A    between atoms: C_12  and  O_13
REMARK                            x       y       z     vdW  Elec       q    Type
REMARK                         _______ _______ _______ _____ _____    ______ ____
ROOT
ATOM      1  O   LIG A   1      -5.152  -1.253 126.245  0.00  0.00    -0.286 OA
ATOM      2  C   LIG A   1      -6.232  -1.829 126.185  0.00  0.00    +0.204 A 
ATOM      3  C   LIG A   1      -6.855  -2.377 127.397  0.00  0.00    +0.106 A 
ATOM      4  C   LIG A   1      -6.243  -2.260 128.649  0.00  0.00    +0.131 A 
ATOM      5  C   LIG A   1      -6.859  -2.788 129.779  0.00  0.00    +0.046 A 
ATOM      6  C   LIG A   1      -8.090  -3.436 129.660  0.00  0.00    +0.007 A 
ATOM      7  C   LIG A   1      -8.702  -3.554 128.409  0.00  0.00    +0.047 A 
ATOM      8  C   LIG A   1      -8.084  -3.024 127.274  0.00  0.00    +0.143 A 
ATOM      9  O   LIG A   1      -8.753  -3.183 126.084  0.00  0.00    -0.451 OA
ATOM     10  C   LIG A   1      -8.178  -2.674 124.944  0.00  0.00    +0.180 A 
ATOM     11  C   LIG A   1      -8.871  -2.845 123.745  0.00  0.00    +0.160 A 
ATOM     12  C   LIG A   1      -8.361  -2.359 122.543  0.00  0.00    +0.049 A 
ATOM     13  C   LIG A   1      -7.135  -1.691 122.533  0.00  0.00    +0.004 A 
ATOM     14  C   LIG A   1      -6.429  -1.512 123.723  0.00  0.00    +0.015 A 
ATOM     15  C   LIG A   1      -6.956  -2.006 124.921  0.00  0.00    +0.068 A 
ENDROOT
BRANCH   4  16
ATOM     16  O   LIG A   1      -5.039  -1.637 128.835  0.00  0.00    -0.506 OA
ATOM     17  H   LIG A   1      -5.086  -0.755 128.401  0.00  0.00    +0.292 HD
ENDBRANCH   4  16
BRANCH  11  18
ATOM     18  O   LIG A   1     -10.075  -3.492 123.705  0.00  0.00    -0.503 OA
ATOM     19  H   LIG A   1      -9.944  -4.372 124.102  0.00  0.00    +0.292 HD
ENDBRANCH  11  18
TORSDOF 2
ENDMDL
MODEL 7
REMARK VINA RESULT:      -6.7      1.269      5.891
REMARK  Name = NuBBE_1708
REMARK  2 active torsions:
REMARK  status: ('A' for Active; 'I' for Inactive)
REMARK    1  A    between atoms: C_4  and  O_5
REMARK    2  A    between atoms: C_12  and  O_13
REMARK                            x       y       z     vdW  Elec       q    Type
REMARK                         _______ _______ _______ _____ _____    ______ ____
ROOT
ATOM      1  O   LIG A   1      -6.625   7.123 130.648  0.00  0.00    -0.286 OA
ATOM      2  C   LIG A   1      -7.577   6.703 131.294  0.00  0.00    +0.204 A 
ATOM      3  C   LIG A   1      -7.365   5.957 132.541  0.00  0.00    +0.106 A 
ATOM      4  C   LIG A   1      -6.080   5.702 133.030  0.00  0.00    +0.131 A 
ATOM      5  C   LIG A   1      -5.911   4.993 134.215  0.00  0.00    +0.046 A 
ATOM      6  C   LIG A   1      -7.029   4.536 134.916  0.00  0.00    +0.007 A 
ATOM      7  C   LIG A   1      -8.314   4.790 134.427  0.00  0.00    +0.047 A 
ATOM      8  C   LIG A   1      -8.484   5.502 133.238  0.00  0.00    +0.143 A 
ATOM      9  O   LIG A   1      -9.780   5.708 132.829  0.00  0.00    -0.451 OA
ATOM     10  C   LIG A   1      -9.989   6.405 131.663  0.00  0.00    +0.180 A 
ATOM     11  C   LIG A   1     -11.312   6.605 131.264  0.00  0.00    +0.160 A 
ATOM     12  C   LIG A   1     -11.612   7.302 130.096  0.00  0.00    +0.049 A 
ATOM     13  C   LIG A   1     -10.578   7.809 129.308  0.00  0.00    +0.004 A 
ATOM     14  C   LIG A   1      -9.251   7.619 129.693  0.00  0.00    +0.015 A 
ATOM     15  C   LIG A   1      -8.966   6.916 130.869  0.00  0.00    +0.068 A 
ENDROOT
BRANCH   4  16
ATOM     16  O   LIG A   1      -4.944   6.122 132.393  0.00  0.00    -0.506 OA
ATOM     17  H   LIG A   1      -5.117   7.019 132.027  0.00  0.00    +0.292 HD
ENDBRANCH   4  16
BRANCH  11  18
ATOM     18  O   LIG A   1     -12.358   6.127 132.002  0.00  0.00    -0.503 OA
ATOM     19  H   LIG A   1     -13.174   6.495 131.619  0.00  0.00    +0.292 HD
ENDBRANCH  11  18
TORSDOF 2
ENDMDL
MODEL 8
REMARK VINA RESULT:      -6.5      9.217     10.333
REMARK  Name = NuBBE_1708
REMARK  2 active torsions:
REMARK  status: ('A' for Active; 'I' for Inactive)
REMARK    1  A    between atoms: C_4  and  O_5
REMARK    2  A    between atoms: C_12  and  O_13
REMARK                            x       y       z     vdW  Elec       q    Type
REMARK                         _______ _______ _______ _____ _____    ______ ____
ROOT
ATOM      1  O   LIG A   1      -6.997   0.913 127.122  0.00  0.00    -0.286 OA
ATOM      2  C   LIG A   1      -7.759   0.312 126.375  0.00  0.00    +0.204 A 
ATOM      3  C   LIG A   1      -8.162  -1.069 126.671  0.00  0.00    +0.106 A 
ATOM      4  C   LIG A   1      -7.694  -1.738 127.806  0.00  0.00    +0.131 A 
ATOM      5  C   LIG A   1      -8.094  -3.047 128.060  0.00  0.00    +0.046 A 
ATOM      6  C   LIG A   1      -8.965  -3.690 127.178  0.00  0.00    +0.007 A 
ATOM      7  C   LIG A   1      -9.433  -3.021 126.043  0.00  0.00    +0.047 A 
ATOM      8  C   LIG A   1      -9.031  -1.708 125.788  0.00  0.00    +0.143 A 
ATOM      9  O   LIG A   1      -9.537  -1.124 124.651  0.00  0.00    -0.451 OA
ATOM     10  C   LIG A   1      -9.167   0.168 124.365  0.00  0.00    +0.180 A 
ATOM     11  C   LIG A   1      -9.691   0.744 123.207  0.00  0.00    +0.160 A 
ATOM     12  C   LIG A   1      -9.368   2.049 122.843  0.00  0.00    +0.049 A 
ATOM     13  C   LIG A   1      -8.504   2.796 123.646  0.00  0.00    +0.004 A 
ATOM     14  C   LIG A   1      -7.972   2.236 124.808  0.00  0.00    +0.015 A 
ATOM     15  C   LIG A   1      -8.307   0.923 125.158  0.00  0.00    +0.068 A 
ENDROOT
BRANCH   4  16
ATOM     16  O   LIG A   1      -6.840  -1.167 128.710  0.00  0.00    -0.506 OA
ATOM     17  H   LIG A   1      -7.288  -0.378 129.091  0.00  0.00    +0.292 HD
ENDBRANCH   4  16
BRANCH  11  18
ATOM     18  O   LIG A   1     -10.540   0.052 122.389  0.00  0.00    -0.503 OA
ATOM     19  H   LIG A   1     -10.035  -0.690 122.009  0.00  0.00    +0.292 HD
ENDBRANCH  11  18
TORSDOF 2
ENDMDL
MODEL 9
REMARK VINA RESULT:      -6.3      2.303      5.804
REMARK  Name = NuBBE_1708
REMARK  2 active torsions:
REMARK  status: ('A' for Active; 'I' for Inactive)
REMARK    1  A    between atoms: C_4  and  O_5
REMARK    2  A    between atoms: C_12  and  O_13
REMARK                            x       y       z     vdW  Elec       q    Type
REMARK                         _______ _______ _______ _____ _____    ______ ____
ROOT
ATOM      1  O   LIG A   1      -6.259   5.234 133.879  0.00  0.00    -0.286 OA
ATOM      2  C   LIG A   1      -6.438   5.868 132.846  0.00  0.00    +0.204 A 
ATOM      3  C   LIG A   1      -5.300   6.430 132.108  0.00  0.00    +0.106 A 
ATOM      4  C   LIG A   1      -3.985   6.262 132.554  0.00  0.00    +0.131 A 
ATOM      5  C   LIG A   1      -2.927   6.806 131.832  0.00  0.00    +0.046 A 
ATOM      6  C   LIG A   1      -3.182   7.521 130.660  0.00  0.00    +0.007 A 
ATOM      7  C   LIG A   1      -4.496   7.689 130.213  0.00  0.00    +0.047 A 
ATOM      8  C   LIG A   1      -5.558   7.144 130.938  0.00  0.00    +0.143 A 
ATOM      9  O   LIG A   1      -6.817   7.356 130.430  0.00  0.00    -0.451 OA
ATOM     10  C   LIG A   1      -7.889   6.834 131.113  0.00  0.00    +0.180 A 
ATOM     11  C   LIG A   1      -9.160   7.059 130.582  0.00  0.00    +0.160 A 
ATOM     12  C   LIG A   1     -10.300   6.565 131.211  0.00  0.00    +0.049 A 
ATOM     13  C   LIG A   1     -10.175   5.833 132.393  0.00  0.00    +0.004 A 
ATOM     14  C   LIG A   1      -8.912   5.598 132.937  0.00  0.00    +0.015 A 
ATOM     15  C   LIG A   1      -7.776   6.102 132.293  0.00  0.00    +0.068 A 
ENDROOT
BRANCH   4  16
ATOM     16  O   LIG A   1      -3.667   5.574 133.693  0.00  0.00    -0.506 OA
ATOM     17  H   LIG A   1      -4.479   5.515 134.246  0.00  0.00    +0.292 HD
ENDBRANCH   4  16
BRANCH  11  18
ATOM     18  O   LIG A   1      -9.333   7.770 129.427  0.00  0.00    -0.503 OA
ATOM     19  H   LIG A   1      -9.307   7.135 128.690  0.00  0.00    +0.292 HD
ENDBRANCH  11  18
TORSDOF 2
ENDMDL
