MODEL 1
REMARK VINA RESULT:      -7.8      0.000      0.000
REMARK  Name = NuBBE_21
REMARK  3 active torsions:
REMARK  status: ('A' for Active; 'I' for Inactive)
REMARK    1  A    between atoms: C_2  and  C_9
REMARK    2  A    between atoms: C_10  and  C_11
REMARK    3  A    between atoms: C_12  and  C_13
REMARK                            x       y       z     vdW  Elec       q    Type
REMARK                         _______ _______ _______ _____ _____    ______ ____
ROOT
ATOM      1  C   LIG A   1      -7.192   1.188 123.967  0.00  0.00    +0.001 C 
ATOM      2  C   LIG A   1      -6.904   2.477 123.732  0.00  0.00    +0.008 C 
ENDROOT
BRANCH   2   3
ATOM      3  C   LIG A   1      -7.093   3.085 122.414  0.00  0.00    -0.021 A 
ATOM      4  C   LIG A   1      -6.001   3.635 121.730  0.00  0.00    +0.057 A 
ATOM      5  C   LIG A   1      -6.238   4.224 120.504  0.00  0.00    +0.167 A 
ATOM      6  O   LIG A   1      -5.304   4.816 119.713  0.00  0.00    -0.453 OA
ATOM      7  C   LIG A   1      -6.122   5.250 118.605  0.00  0.00    +0.466 C 
ATOM      8  O   LIG A   1      -7.515   4.904 118.750  0.00  0.00    -0.453 OA
ATOM      9  C   LIG A   1      -7.498   4.274 119.955  0.00  0.00    +0.166 A 
ATOM     10  C   LIG A   1      -8.590   3.731 120.595  0.00  0.00    +0.050 A 
ATOM     11  C   LIG A   1      -8.382   3.128 121.840  0.00  0.00    +0.012 A 
ENDBRANCH   2   3
BRANCH   1  13
ATOM     12  C   LIG A   1      -6.187  -0.466 125.459  0.00  0.00    +0.067 C 
ATOM     13  C   LIG A   1      -7.018   0.569 125.263  0.00  0.00    +0.005 C 
BRANCH  12  15
ATOM     14  O   LIG A   1      -5.198  -0.669 127.585  0.00  0.00    -0.271 OA
ATOM     15  C   LIG A   1      -6.049  -1.079 126.804  0.00  0.00    +0.239 C 
ATOM     16  N   LIG A   1      -6.963  -2.084 127.108  0.00  0.00    -0.298 N 
ATOM     17  C   LIG A   1      -6.907  -2.671 128.446  0.00  0.00    +0.108 C 
ATOM     18  C   LIG A   1      -8.291  -3.102 128.926  0.00  0.00    +0.019 C 
ATOM     19  C   LIG A   1      -8.985  -4.000 127.907  0.00  0.00    +0.003 C 
ATOM     20  C   LIG A   1      -9.020  -3.329 126.537  0.00  0.00    +0.019 C 
ATOM     21  C   LIG A   1      -7.621  -2.914 126.093  0.00  0.00    +0.108 C 
ENDBRANCH  12  15
ENDBRANCH   1  13
TORSDOF 3
ENDMDL
MODEL 2
REMARK VINA RESULT:      -7.4      9.523     10.727
REMARK  Name = NuBBE_21
REMARK  3 active torsions:
REMARK  status: ('A' for Active; 'I' for Inactive)
REMARK    1  A    between atoms: C_2  and  C_9
REMARK    2  A    between atoms: C_10  and  C_11
REMARK    3  A    between atoms: C_12  and  C_13
REMARK                            x       y       z     vdW  Elec       q    Type
REMARK                         _______ _______ _______ _____ _____    ______ ____
ROOT
ATOM      1  C   LIG A   1      -8.316   6.258 131.527  0.00  0.00    +0.001 C 
ATOM      2  C   LIG A   1      -9.591   6.313 131.938  0.00  0.00    +0.008 C 
ENDROOT
BRANCH   2   3
ATOM      3  C   LIG A   1     -10.695   6.557 131.008  0.00  0.00    -0.021 A 
ATOM      4  C   LIG A   1     -10.477   6.496 129.626  0.00  0.00    +0.057 A 
ATOM      5  C   LIG A   1     -11.544   6.765 128.792  0.00  0.00    +0.167 A 
ATOM      6  O   LIG A   1     -11.511   6.764 127.433  0.00  0.00    -0.453 OA
ATOM      7  C   LIG A   1     -12.876   7.121 127.127  0.00  0.00    +0.466 C 
ATOM      8  O   LIG A   1     -13.694   7.319 128.298  0.00  0.00    -0.453 OA
ATOM      9  C   LIG A   1     -12.789   7.080 129.285  0.00  0.00    +0.166 A 
ATOM     10  C   LIG A   1     -13.039   7.137 130.638  0.00  0.00    +0.050 A 
ATOM     11  C   LIG A   1     -11.977   6.870 131.509  0.00  0.00    +0.012 A 
ENDBRANCH   2   3
BRANCH   1  13
ATOM     12  C   LIG A   1      -5.947   6.339 132.121  0.00  0.00    +0.067 C 
ATOM     13  C   LIG A   1      -7.211   6.012 132.428  0.00  0.00    +0.005 C 
BRANCH  12  15
ATOM     14  O   LIG A   1      -5.087   5.640 134.197  0.00  0.00    -0.271 OA
ATOM     15  C   LIG A   1      -4.841   6.056 133.070  0.00  0.00    +0.239 C 
ATOM     16  N   LIG A   1      -3.555   6.249 132.576  0.00  0.00    -0.298 N 
ATOM     17  C   LIG A   1      -2.433   5.919 133.455  0.00  0.00    +0.108 C 
ATOM     18  C   LIG A   1      -1.230   5.415 132.660  0.00  0.00    +0.019 C 
ATOM     19  C   LIG A   1      -0.851   6.381 131.542  0.00  0.00    +0.003 C 
ATOM     20  C   LIG A   1      -2.058   6.677 130.657  0.00  0.00    +0.019 C 
ATOM     21  C   LIG A   1      -3.237   7.176 131.485  0.00  0.00    +0.108 C 
ENDBRANCH  12  15
ENDBRANCH   1  13
TORSDOF 3
ENDMDL
MODEL 3
REMARK VINA RESULT:      -7.4      5.324     10.704
REMARK  Name = NuBBE_21
REMARK  3 active torsions:
REMARK  status: ('A' for Active; 'I' for Inactive)
REMARK    1  A    between atoms: C_2  and  C_9
REMARK    2  A    between atoms: C_10  and  C_11
REMARK    3  A    between atoms: C_12  and  C_13
REMARK                            x       y       z     vdW  Elec       q    Type
REMARK                         _______ _______ _______ _____ _____    ______ ____
ROOT
ATOM      1  C   LIG A   1      -7.911  -3.516 129.471  0.00  0.00    +0.001 C 
ATOM      2  C   LIG A   1      -6.595  -3.673 129.670  0.00  0.00    +0.008 C 
ENDROOT
BRANCH   2   3
ATOM      3  C   LIG A   1      -6.007  -3.653 131.011  0.00  0.00    -0.021 A 
ATOM      4  C   LIG A   1      -4.667  -4.020 131.197  0.00  0.00    +0.057 A 
ATOM      5  C   LIG A   1      -4.170  -4.013 132.485  0.00  0.00    +0.167 A 
ATOM      6  O   LIG A   1      -2.905  -4.351 132.850  0.00  0.00    -0.453 OA
ATOM      7  C   LIG A   1      -2.978  -4.172 134.281  0.00  0.00    +0.466 C 
ATOM      8  O   LIG A   1      -4.271  -3.726 134.738  0.00  0.00    -0.453 OA
ATOM      9  C   LIG A   1      -4.948  -3.655 133.561  0.00  0.00    +0.166 A 
ATOM     10  C   LIG A   1      -6.264  -3.278 133.411  0.00  0.00    +0.050 A 
ATOM     11  C   LIG A   1      -6.797  -3.275 132.118  0.00  0.00    +0.012 A 
ENDBRANCH   2   3
BRANCH   1  13
ATOM     12  C   LIG A   1      -8.152  -2.686 127.185  0.00  0.00    +0.067 C 
ATOM     13  C   LIG A   1      -8.514  -3.539 128.155  0.00  0.00    +0.005 C 
BRANCH  12  15
ATOM     14  O   LIG A   1     -10.025  -2.838 125.768  0.00  0.00    -0.271 OA
ATOM     15  C   LIG A   1      -8.806  -2.736 125.853  0.00  0.00    +0.239 C 
ATOM     16  N   LIG A   1      -7.958  -2.613 124.757  0.00  0.00    -0.298 N 
ATOM     17  C   LIG A   1      -8.565  -2.590 123.427  0.00  0.00    +0.108 C 
ATOM     18  C   LIG A   1      -7.766  -1.717 122.462  0.00  0.00    +0.019 C 
ATOM     19  C   LIG A   1      -6.291  -2.109 122.440  0.00  0.00    +0.003 C 
ATOM     20  C   LIG A   1      -5.715  -2.104 123.853  0.00  0.00    +0.019 C 
ATOM     21  C   LIG A   1      -6.539  -2.986 124.785  0.00  0.00    +0.108 C 
ENDBRANCH  12  15
ENDBRANCH   1  13
TORSDOF 3
ENDMDL
MODEL 4
REMARK VINA RESULT:      -7.3      4.317     10.350
REMARK  Name = NuBBE_21
REMARK  3 active torsions:
REMARK  status: ('A' for Active; 'I' for Inactive)
REMARK    1  A    between atoms: C_2  and  C_9
REMARK    2  A    between atoms: C_10  and  C_11
REMARK    3  A    between atoms: C_12  and  C_13
REMARK                            x       y       z     vdW  Elec       q    Type
REMARK                         _______ _______ _______ _____ _____    ______ ____
ROOT
ATOM      1  C   LIG A   1      -8.629  -3.628 128.186  0.00  0.00    +0.001 C 
ATOM      2  C   LIG A   1      -7.448  -3.186 128.642  0.00  0.00    +0.008 C 
ENDROOT
BRANCH   2   3
ATOM      3  C   LIG A   1      -7.014  -3.417 130.020  0.00  0.00    -0.021 A 
ATOM      4  C   LIG A   1      -7.583  -2.684 131.070  0.00  0.00    +0.057 A 
ATOM      5  C   LIG A   1      -7.117  -2.919 132.348  0.00  0.00    +0.167 A 
ATOM      6  O   LIG A   1      -7.543  -2.292 133.477  0.00  0.00    -0.453 OA
ATOM      7  C   LIG A   1      -6.706  -2.923 134.470  0.00  0.00    +0.466 C 
ATOM      8  O   LIG A   1      -5.810  -3.911 133.922  0.00  0.00    -0.453 OA
ATOM      9  C   LIG A   1      -6.129  -3.842 132.602  0.00  0.00    +0.166 A 
ATOM     10  C   LIG A   1      -5.558  -4.588 131.595  0.00  0.00    +0.050 A 
ATOM     11  C   LIG A   1      -6.009  -4.372 130.289  0.00  0.00    +0.012 A 
ENDBRANCH   2   3
BRANCH   1  13
ATOM     12  C   LIG A   1      -8.608  -2.414 126.066  0.00  0.00    +0.067 C 
ATOM     13  C   LIG A   1      -9.075  -3.415 126.826  0.00  0.00    +0.005 C 
BRANCH  12  15
ATOM     14  O   LIG A   1      -9.605  -3.161 124.069  0.00  0.00    -0.271 OA
ATOM     15  C   LIG A   1      -9.103  -2.224 124.679  0.00  0.00    +0.239 C 
ATOM     16  N   LIG A   1      -8.998  -0.933 124.170  0.00  0.00    -0.298 N 
ATOM     17  C   LIG A   1      -9.533  -0.684 122.832  0.00  0.00    +0.108 C 
ATOM     18  C   LIG A   1     -10.078   0.737 122.703  0.00  0.00    +0.019 C 
ATOM     19  C   LIG A   1      -9.047   1.774 123.137  0.00  0.00    +0.003 C 
ATOM     20  C   LIG A   1      -8.535   1.466 124.541  0.00  0.00    +0.019 C 
ATOM     21  C   LIG A   1      -8.001   0.041 124.630  0.00  0.00    +0.108 C 
ENDBRANCH  12  15
ENDBRANCH   1  13
TORSDOF 3
ENDMDL
MODEL 5
REMARK VINA RESULT:      -7.1      4.266     10.138
REMARK  Name = NuBBE_21
REMARK  3 active torsions:
REMARK  status: ('A' for Active; 'I' for Inactive)
REMARK    1  A    between atoms: C_2  and  C_9
REMARK    2  A    between atoms: C_10  and  C_11
REMARK    3  A    between atoms: C_12  and  C_13
REMARK                            x       y       z     vdW  Elec       q    Type
REMARK                         _______ _______ _______ _____ _____    ______ ____
ROOT
ATOM      1  C   LIG A   1      -8.412  -3.450 127.748  0.00  0.00    +0.001 C 
ATOM      2  C   LIG A   1      -8.084  -2.516 128.651  0.00  0.00    +0.008 C 
ENDROOT
BRANCH   2   3
ATOM      3  C   LIG A   1      -7.427  -2.856 129.915  0.00  0.00    -0.021 A 
ATOM      4  C   LIG A   1      -6.591  -3.978 129.993  0.00  0.00    +0.057 A 
ATOM      5  C   LIG A   1      -6.021  -4.273 131.215  0.00  0.00    +0.167 A 
ATOM      6  O   LIG A   1      -5.198  -5.324 131.475  0.00  0.00    -0.453 OA
ATOM      7  C   LIG A   1      -4.943  -5.128 132.883  0.00  0.00    +0.466 C 
ATOM      8  O   LIG A   1      -5.605  -3.969 133.430  0.00  0.00    -0.453 OA
ATOM      9  C   LIG A   1      -6.252  -3.500 132.329  0.00  0.00    +0.166 A 
ATOM     10  C   LIG A   1      -7.059  -2.385 132.283  0.00  0.00    +0.050 A 
ATOM     11  C   LIG A   1      -7.651  -2.060 131.059  0.00  0.00    +0.012 A 
ENDBRANCH   2   3
BRANCH   1  13
ATOM     12  C   LIG A   1      -8.380  -2.645 125.441  0.00  0.00    +0.067 C 
ATOM     13  C   LIG A   1      -9.056  -3.134 126.491  0.00  0.00    +0.005 C 
BRANCH  12  15
ATOM     14  O   LIG A   1      -9.724  -3.186 123.587  0.00  0.00    -0.271 OA
ATOM     15  C   LIG A   1      -9.083  -2.322 124.173  0.00  0.00    +0.239 C 
ATOM     16  N   LIG A   1      -8.997  -0.998 123.754  0.00  0.00    -0.298 N 
ATOM     17  C   LIG A   1      -9.729  -0.620 122.546  0.00  0.00    +0.108 C 
ATOM     18  C   LIG A   1     -10.215   0.827 122.616  0.00  0.00    +0.019 C 
ATOM     19  C   LIG A   1      -9.076   1.785 122.951  0.00  0.00    +0.003 C 
ATOM     20  C   LIG A   1      -8.359   1.343 124.223  0.00  0.00    +0.019 C 
ATOM     21  C   LIG A   1      -7.891  -0.104 124.114  0.00  0.00    +0.108 C 
ENDBRANCH  12  15
ENDBRANCH   1  13
TORSDOF 3
ENDMDL
MODEL 6
REMARK VINA RESULT:      -7.0      7.400     10.903
REMARK  Name = NuBBE_21
REMARK  3 active torsions:
REMARK  status: ('A' for Active; 'I' for Inactive)
REMARK    1  A    between atoms: C_2  and  C_9
REMARK    2  A    between atoms: C_10  and  C_11
REMARK    3  A    between atoms: C_12  and  C_13
REMARK                            x       y       z     vdW  Elec       q    Type
REMARK                         _______ _______ _______ _____ _____    ______ ____
ROOT
ATOM      1  C   LIG A   1      -9.392   2.865 130.409  0.00  0.00    +0.001 C 
ATOM      2  C   LIG A   1      -9.086   1.783 131.140  0.00  0.00    +0.008 C 
ENDROOT
BRANCH   2   3
ATOM      3  C   LIG A   1      -8.516   0.577 130.536  0.00  0.00    -0.021 A 
ATOM      4  C   LIG A   1      -8.347  -0.582 131.306  0.00  0.00    +0.057 A 
ATOM      5  C   LIG A   1      -7.777  -1.682 130.697  0.00  0.00    +0.167 A 
ATOM      6  O   LIG A   1      -7.527  -2.879 131.293  0.00  0.00    -0.453 OA
ATOM      7  C   LIG A   1      -6.928  -3.607 130.199  0.00  0.00    +0.466 C 
ATOM      8  O   LIG A   1      -6.841  -2.841 128.980  0.00  0.00    -0.453 OA
ATOM      9  C   LIG A   1      -7.386  -1.661 129.379  0.00  0.00    +0.166 A 
ATOM     10  C   LIG A   1      -7.550  -0.543 128.592  0.00  0.00    +0.050 A 
ATOM     11  C   LIG A   1      -8.124   0.589 129.180  0.00  0.00    +0.012 A 
ENDBRANCH   2   3
BRANCH   1  13
ATOM     12  C   LIG A   1     -10.868   4.811 130.350  0.00  0.00    +0.067 C 
ATOM     13  C   LIG A   1      -9.950   4.069 130.986  0.00  0.00    +0.005 C 
BRANCH  12  15
ATOM     14  O   LIG A   1     -11.180   6.290 132.154  0.00  0.00    -0.271 OA
ATOM     15  C   LIG A   1     -11.405   6.047 130.974  0.00  0.00    +0.239 C 
ATOM     16  N   LIG A   1     -12.113   6.895 130.127  0.00  0.00    -0.298 N 
ATOM     17  C   LIG A   1     -12.603   8.156 130.683  0.00  0.00    +0.108 C 
ATOM     18  C   LIG A   1     -12.622   9.261 129.629  0.00  0.00    +0.019 C 
ATOM     19  C   LIG A   1     -13.374   8.827 128.374  0.00  0.00    +0.003 C 
ATOM     20  C   LIG A   1     -12.811   7.514 127.839  0.00  0.00    +0.019 C 
ATOM     21  C   LIG A   1     -12.807   6.437 128.919  0.00  0.00    +0.108 C 
ENDBRANCH  12  15
ENDBRANCH   1  13
TORSDOF 3
ENDMDL
MODEL 7
REMARK VINA RESULT:      -7.0      9.837     12.050
REMARK  Name = NuBBE_21
REMARK  3 active torsions:
REMARK  status: ('A' for Active; 'I' for Inactive)
REMARK    1  A    between atoms: C_2  and  C_9
REMARK    2  A    between atoms: C_10  and  C_11
REMARK    3  A    between atoms: C_12  and  C_13
REMARK                            x       y       z     vdW  Elec       q    Type
REMARK                         _______ _______ _______ _____ _____    ______ ____
ROOT
ATOM      1  C   LIG A   1      -6.235   6.308 131.350  0.00  0.00    +0.001 C 
ATOM      2  C   LIG A   1      -5.457   6.091 132.420  0.00  0.00    +0.008 C 
ENDROOT
BRANCH   2   3
ATOM      3  C   LIG A   1      -4.027   6.404 132.414  0.00  0.00    -0.021 A 
ATOM      4  C   LIG A   1      -3.412   6.904 133.569  0.00  0.00    +0.057 A 
ATOM      5  C   LIG A   1      -2.068   7.213 133.501  0.00  0.00    +0.167 A 
ATOM      6  O   LIG A   1      -1.316   7.718 134.516  0.00  0.00    -0.453 OA
ATOM      7  C   LIG A   1      -0.033   7.846 133.866  0.00  0.00    +0.466 C 
ATOM      8  O   LIG A   1      -0.040   7.411 132.491  0.00  0.00    -0.453 OA
ATOM      9  C   LIG A   1      -1.340   7.037 132.347  0.00  0.00    +0.166 A 
ATOM     10  C   LIG A   1      -1.912   6.536 131.199  0.00  0.00    +0.050 A 
ATOM     11  C   LIG A   1      -3.273   6.215 131.236  0.00  0.00    +0.012 A 
ENDBRANCH   2   3
BRANCH   1  13
ATOM     12  C   LIG A   1      -8.582   6.953 131.122  0.00  0.00    +0.067 C 
ATOM     13  C   LIG A   1      -7.652   6.010 131.337  0.00  0.00    +0.005 C 
BRANCH  12  15
ATOM     14  O   LIG A   1     -10.503   5.977 132.068  0.00  0.00    -0.271 OA
ATOM     15  C   LIG A   1     -10.025   6.605 131.130  0.00  0.00    +0.239 C 
ATOM     16  N   LIG A   1     -10.768   7.077 130.052  0.00  0.00    -0.298 N 
ATOM     17  C   LIG A   1     -12.206   6.816 130.052  0.00  0.00    +0.108 C 
ATOM     18  C   LIG A   1     -12.979   7.941 129.366  0.00  0.00    +0.019 C 
ATOM     19  C   LIG A   1     -12.424   8.237 127.976  0.00  0.00    +0.003 C 
ATOM     20  C   LIG A   1     -10.924   8.510 128.045  0.00  0.00    +0.019 C 
ATOM     21  C   LIG A   1     -10.189   7.366 128.735  0.00  0.00    +0.108 C 
ENDBRANCH  12  15
ENDBRANCH   1  13
TORSDOF 3
ENDMDL
MODEL 8
REMARK VINA RESULT:      -6.8     10.858     11.688
REMARK  Name = NuBBE_21
REMARK  3 active torsions:
REMARK  status: ('A' for Active; 'I' for Inactive)
REMARK    1  A    between atoms: C_2  and  C_9
REMARK    2  A    between atoms: C_10  and  C_11
REMARK    3  A    between atoms: C_12  and  C_13
REMARK                            x       y       z     vdW  Elec       q    Type
REMARK                         _______ _______ _______ _____ _____    ______ ____
ROOT
ATOM      1  C   LIG A   1      -9.203   5.539 132.510  0.00  0.00    +0.001 C 
ATOM      2  C   LIG A   1     -10.383   6.166 132.404  0.00  0.00    +0.008 C 
ENDROOT
BRANCH   2   3
ATOM      3  C   LIG A   1     -10.953   6.531 131.106  0.00  0.00    -0.021 A 
ATOM      4  C   LIG A   1     -10.164   6.470 129.950  0.00  0.00    +0.057 A 
ATOM      5  C   LIG A   1     -10.740   6.855 128.755  0.00  0.00    +0.167 A 
ATOM      6  O   LIG A   1     -10.122   6.872 127.544  0.00  0.00    -0.453 OA
ATOM      7  C   LIG A   1     -11.187   7.365 126.703  0.00  0.00    +0.466 C 
ATOM      8  O   LIG A   1     -12.412   7.622 127.419  0.00  0.00    -0.453 OA
ATOM      9  C   LIG A   1     -12.046   7.282 128.684  0.00  0.00    +0.166 A 
ATOM     10  C   LIG A   1     -12.851   7.342 129.799  0.00  0.00    +0.050 A 
ATOM     11  C   LIG A   1     -12.295   6.959 131.024  0.00  0.00    +0.012 A 
ENDBRANCH   2   3
BRANCH   1  13
ATOM     12  C   LIG A   1      -7.782   5.965 134.452  0.00  0.00    +0.067 C 
ATOM     13  C   LIG A   1      -8.625   5.164 133.783  0.00  0.00    +0.005 C 
BRANCH  12  15
ATOM     14  O   LIG A   1      -6.548   4.500 135.820  0.00  0.00    -0.271 OA
ATOM     15  C   LIG A   1      -7.201   5.534 135.750  0.00  0.00    +0.239 C 
ATOM     16  N   LIG A   1      -7.412   6.395 136.822  0.00  0.00    -0.298 N 
ATOM     17  C   LIG A   1      -6.802   6.045 138.104  0.00  0.00    +0.108 C 
ATOM     18  C   LIG A   1      -6.415   7.291 138.899  0.00  0.00    +0.019 C 
ATOM     19  C   LIG A   1      -7.589   8.255 139.038  0.00  0.00    +0.003 C 
ATOM     20  C   LIG A   1      -8.174   8.588 137.669  0.00  0.00    +0.019 C 
ATOM     21  C   LIG A   1      -8.547   7.321 136.907  0.00  0.00    +0.108 C 
ENDBRANCH  12  15
ENDBRANCH   1  13
TORSDOF 3
ENDMDL
MODEL 9
REMARK VINA RESULT:      -6.5      5.326      6.480
REMARK  Name = NuBBE_21
REMARK  3 active torsions:
REMARK  status: ('A' for Active; 'I' for Inactive)
REMARK    1  A    between atoms: C_2  and  C_9
REMARK    2  A    between atoms: C_10  and  C_11
REMARK    3  A    between atoms: C_12  and  C_13
REMARK                            x       y       z     vdW  Elec       q    Type
REMARK                         _______ _______ _______ _____ _____    ______ ____
ROOT
ATOM      1  C   LIG A   1      -4.473   2.705 126.333  0.00  0.00    +0.001 C 
ATOM      2  C   LIG A   1      -5.423   3.487 125.801  0.00  0.00    +0.008 C 
ENDROOT
BRANCH   2   3
ATOM      3  C   LIG A   1      -5.705   3.495 124.365  0.00  0.00    -0.021 A 
ATOM      4  C   LIG A   1      -5.075   4.428 123.530  0.00  0.00    +0.057 A 
ATOM      5  C   LIG A   1      -5.399   4.413 122.187  0.00  0.00    +0.167 A 
ATOM      6  O   LIG A   1      -4.897   5.250 121.240  0.00  0.00    -0.453 OA
ATOM      7  C   LIG A   1      -5.596   4.781 120.067  0.00  0.00    +0.466 C 
ATOM      8  O   LIG A   1      -6.487   3.679 120.331  0.00  0.00    -0.453 OA
ATOM      9  C   LIG A   1      -6.304   3.517 121.669  0.00  0.00    +0.166 A 
ATOM     10  C   LIG A   1      -6.932   2.580 122.460  0.00  0.00    +0.050 A 
ATOM     11  C   LIG A   1      -6.625   2.570 123.825  0.00  0.00    +0.012 A 
ENDBRANCH   2   3
BRANCH   1  13
ATOM     12  C   LIG A   1      -4.650   3.606 128.598  0.00  0.00    +0.067 C 
ATOM     13  C   LIG A   1      -4.182   2.678 127.751  0.00  0.00    +0.005 C 
BRANCH  12  15
ATOM     14  O   LIG A   1      -4.752   2.637 130.740  0.00  0.00    -0.271 OA
ATOM     15  C   LIG A   1      -4.316   3.547 130.044  0.00  0.00    +0.239 C 
ATOM     16  N   LIG A   1      -3.462   4.542 130.509  0.00  0.00    -0.298 N 
ATOM     17  C   LIG A   1      -3.053   4.485 131.911  0.00  0.00    +0.108 C 
ATOM     18  C   LIG A   1      -1.642   5.035 132.105  0.00  0.00    +0.019 C 
ATOM     19  C   LIG A   1      -1.493   6.425 131.494  0.00  0.00    +0.003 C 
ATOM     20  C   LIG A   1      -1.925   6.417 130.031  0.00  0.00    +0.019 C 
ATOM     21  C   LIG A   1      -3.337   5.861 129.879  0.00  0.00    +0.108 C 
ENDBRANCH  12  15
ENDBRANCH   1  13
TORSDOF 3
ENDMDL
