MODEL 1
REMARK VINA RESULT:      -7.8      0.000      0.000
REMARK  Name = NuBBE_2099
REMARK  5 active torsions:
REMARK  status: ('A' for Active; 'I' for Inactive)
REMARK    1  A    between atoms: C_1  and  C_2
REMARK    2  A    between atoms: C_1  and  C_4
REMARK    3  A    between atoms: C_5  and  O_6
REMARK    4  A    between atoms: C_8  and  C_13
REMARK    5  A    between atoms: C_10  and  C_12
REMARK                            x       y       z     vdW  Elec       q    Type
REMARK                         _______ _______ _______ _____ _____    ______ ____
ROOT
ATOM      1  C   LIG A   1      -7.361  -1.541 124.418  0.00  0.00    +0.044 C 
ATOM      2  C   LIG A   1      -6.908  -0.713 125.645  0.00  0.00    +0.239 C 
ATOM      3  O   LIG A   1      -7.136   0.653 125.292  0.00  0.00    -0.334 OA
ATOM      4  C   LIG A   1      -8.289   0.725 124.428  0.00  0.00    +0.156 C 
ATOM      5  C   LIG A   1      -8.650  -0.740 124.078  0.00  0.00    +0.032 C 
ATOM      6  C   LIG A   1      -9.349  -0.986 122.751  0.00  0.00    +0.011 C 
ATOM      7  C   LIG A   1      -7.686  -1.030 126.958  0.00  0.00    +0.215 C 
ATOM      8  O   LIG A   1      -7.756  -0.240 127.900  0.00  0.00    -0.287 OA
ATOM      9  C   LIG A   1      -8.329  -2.361 127.105  0.00  0.00    +0.048 C 
ATOM     10  C   LIG A   1      -8.280  -3.252 126.118  0.00  0.00    -0.022 C 
ATOM     11  C   LIG A   1      -7.612  -3.018 124.801  0.00  0.00    +0.040 C 
ENDROOT
BRANCH   4  12
ATOM     12  C   LIG A   1      -8.033   1.722 123.310  0.00  0.00    -0.015 A 
ATOM     13  C   LIG A   1      -6.709   2.054 122.960  0.00  0.00    +0.055 A 
ATOM     14  C   LIG A   1      -6.501   2.950 121.928  0.00  0.00    +0.167 A 
ATOM     15  C   LIG A   1      -7.545   3.523 121.243  0.00  0.00    +0.166 A 
ATOM     16  C   LIG A   1      -8.852   3.215 121.534  0.00  0.00    +0.050 A 
ATOM     17  C   LIG A   1      -9.090   2.297 122.563  0.00  0.00    +0.010 A 
ATOM     18  O   LIG A   1      -7.127   4.379 120.273  0.00  0.00    -0.453 OA
ATOM     19  C   LIG A   1      -5.697   4.247 120.396  0.00  0.00    +0.466 C 
ATOM     20  O   LIG A   1      -5.291   3.363 121.462  0.00  0.00    -0.453 OA
ENDBRANCH   4  12
BRANCH   2  21
ATOM     21  O   LIG A   1      -5.527  -0.868 125.917  0.00  0.00    -0.358 OA
ATOM     22  H   LIG A   1      -5.105  -0.763 125.043  0.00  0.00    +0.213 HD
ENDBRANCH   2  21
BRANCH   1  23
ATOM     23  C   LIG A   1      -6.268  -1.521 123.295  0.00  0.00    +0.040 C 
BRANCH  23  24
ATOM     24  C   LIG A   1      -5.600  -2.836 122.970  0.00  0.00    -0.034 C 
ATOM     25  C   LIG A   1      -4.443  -3.244 123.508  0.00  0.00    +0.004 C 
ENDBRANCH  23  24
ENDBRANCH   1  23
TORSDOF 4
ENDMDL
MODEL 2
REMARK VINA RESULT:      -7.7      3.814      6.839
REMARK  Name = NuBBE_2099
REMARK  5 active torsions:
REMARK  status: ('A' for Active; 'I' for Inactive)
REMARK    1  A    between atoms: C_1  and  C_2
REMARK    2  A    between atoms: C_1  and  C_4
REMARK    3  A    between atoms: C_5  and  O_6
REMARK    4  A    between atoms: C_8  and  C_13
REMARK    5  A    between atoms: C_10  and  C_12
REMARK                            x       y       z     vdW  Elec       q    Type
REMARK                         _______ _______ _______ _____ _____    ______ ____
ROOT
ATOM      1  C   LIG A   1      -6.330  -2.151 124.739  0.00  0.00    +0.044 C 
ATOM      2  C   LIG A   1      -7.555  -2.890 125.330  0.00  0.00    +0.239 C 
ATOM      3  O   LIG A   1      -7.409  -2.800 126.750  0.00  0.00    -0.334 OA
ATOM      4  C   LIG A   1      -6.762  -1.551 127.073  0.00  0.00    +0.156 C 
ATOM      5  C   LIG A   1      -6.304  -0.947 125.722  0.00  0.00    +0.032 C 
ATOM      6  C   LIG A   1      -5.092  -0.031 125.746  0.00  0.00    +0.011 C 
ATOM      7  C   LIG A   1      -8.932  -2.280 124.927  0.00  0.00    +0.215 C 
ATOM      8  O   LIG A   1      -9.959  -2.458 125.581  0.00  0.00    -0.287 OA
ATOM      9  C   LIG A   1      -9.023  -1.491 123.672  0.00  0.00    +0.048 C 
ATOM     10  C   LIG A   1      -7.943  -1.271 122.927  0.00  0.00    -0.022 C 
ATOM     11  C   LIG A   1      -6.571  -1.761 123.262  0.00  0.00    +0.040 C 
ENDROOT
BRANCH   4  12
ATOM     12  C   LIG A   1      -5.744  -1.772 128.179  0.00  0.00    -0.015 A 
ATOM     13  C   LIG A   1      -5.687  -0.877 129.266  0.00  0.00    +0.055 A 
ATOM     14  C   LIG A   1      -4.765  -1.109 130.269  0.00  0.00    +0.167 A 
ATOM     15  C   LIG A   1      -3.905  -2.180 130.231  0.00  0.00    +0.166 A 
ATOM     16  C   LIG A   1      -3.936  -3.090 129.203  0.00  0.00    +0.050 A 
ATOM     17  C   LIG A   1      -4.873  -2.889 128.183  0.00  0.00    +0.010 A 
ATOM     18  O   LIG A   1      -3.074  -2.223 131.307  0.00  0.00    -0.453 OA
ATOM     19  C   LIG A   1      -3.538  -1.078 132.051  0.00  0.00    +0.466 C 
ATOM     20  O   LIG A   1      -4.592  -0.350 131.386  0.00  0.00    -0.453 OA
ENDBRANCH   4  12
BRANCH   2  21
ATOM     21  O   LIG A   1      -7.575  -4.262 124.981  0.00  0.00    -0.358 OA
ATOM     22  H   LIG A   1      -7.626  -4.720 125.842  0.00  0.00    +0.213 HD
ENDBRANCH   2  21
BRANCH   1  23
ATOM     23  C   LIG A   1      -5.052  -3.058 124.788  0.00  0.00    +0.040 C 
BRANCH  23  24
ATOM     24  C   LIG A   1      -4.595  -3.664 123.483  0.00  0.00    -0.034 C 
ATOM     25  C   LIG A   1      -4.246  -4.949 123.334  0.00  0.00    +0.004 C 
ENDBRANCH  23  24
ENDBRANCH   1  23
TORSDOF 4
ENDMDL
MODEL 3
REMARK VINA RESULT:      -7.6      4.334      5.287
REMARK  Name = NuBBE_2099
REMARK  5 active torsions:
REMARK  status: ('A' for Active; 'I' for Inactive)
REMARK    1  A    between atoms: C_1  and  C_2
REMARK    2  A    between atoms: C_1  and  C_4
REMARK    3  A    between atoms: C_5  and  O_6
REMARK    4  A    between atoms: C_8  and  C_13
REMARK    5  A    between atoms: C_10  and  C_12
REMARK                            x       y       z     vdW  Elec       q    Type
REMARK                         _______ _______ _______ _____ _____    ______ ____
ROOT
ATOM      1  C   LIG A   1      -4.596   3.347 127.657  0.00  0.00    +0.044 C 
ATOM      2  C   LIG A   1      -5.511   4.561 127.950  0.00  0.00    +0.239 C 
ATOM      3  O   LIG A   1      -6.371   4.676 126.814  0.00  0.00    -0.334 OA
ATOM      4  C   LIG A   1      -6.624   3.357 126.286  0.00  0.00    +0.156 C 
ATOM      5  C   LIG A   1      -5.672   2.403 127.050  0.00  0.00    +0.032 C 
ATOM      6  C   LIG A   1      -5.231   1.139 126.331  0.00  0.00    +0.011 C 
ATOM      7  C   LIG A   1      -6.387   4.414 129.231  0.00  0.00    +0.215 C 
ATOM      8  O   LIG A   1      -7.423   5.054 129.409  0.00  0.00    -0.287 OA
ATOM      9  C   LIG A   1      -5.928   3.501 130.308  0.00  0.00    +0.048 C 
ATOM     10  C   LIG A   1      -4.813   2.788 130.167  0.00  0.00    -0.022 C 
ATOM     11  C   LIG A   1      -3.941   2.815 128.954  0.00  0.00    +0.040 C 
ENDROOT
BRANCH   4  12
ATOM     12  C   LIG A   1      -6.588   3.395 124.768  0.00  0.00    -0.015 A 
ATOM     13  C   LIG A   1      -5.679   4.248 124.111  0.00  0.00    +0.055 A 
ATOM     14  C   LIG A   1      -5.652   4.252 122.729  0.00  0.00    +0.167 A 
ATOM     15  C   LIG A   1      -6.487   3.454 121.985  0.00  0.00    +0.166 A 
ATOM     16  C   LIG A   1      -7.376   2.592 122.579  0.00  0.00    +0.050 A 
ATOM     17  C   LIG A   1      -7.411   2.555 123.978  0.00  0.00    +0.010 A 
ATOM     18  O   LIG A   1      -6.308   3.614 120.647  0.00  0.00    -0.453 OA
ATOM     19  C   LIG A   1      -5.233   4.574 120.632  0.00  0.00    +0.466 C 
ATOM     20  O   LIG A   1      -4.829   5.005 121.949  0.00  0.00    -0.453 OA
ENDBRANCH   4  12
BRANCH   2  21
ATOM     21  O   LIG A   1      -4.781   5.769 128.066  0.00  0.00    -0.358 OA
ATOM     22  H   LIG A   1      -5.356   6.337 128.612  0.00  0.00    +0.213 HD
ENDBRANCH   2  21
BRANCH   1  23
ATOM     23  C   LIG A   1      -3.443   3.740 126.671  0.00  0.00    +0.040 C 
BRANCH  23  24
ATOM     24  C   LIG A   1      -2.033   3.418 127.105  0.00  0.00    -0.034 C 
ATOM     25  C   LIG A   1      -1.141   2.774 126.341  0.00  0.00    +0.004 C 
ENDBRANCH  23  24
ENDBRANCH   1  23
TORSDOF 4
ENDMDL
MODEL 4
REMARK VINA RESULT:      -7.4      4.427      6.273
REMARK  Name = NuBBE_2099
REMARK  5 active torsions:
REMARK  status: ('A' for Active; 'I' for Inactive)
REMARK    1  A    between atoms: C_1  and  C_2
REMARK    2  A    between atoms: C_1  and  C_4
REMARK    3  A    between atoms: C_5  and  O_6
REMARK    4  A    between atoms: C_8  and  C_13
REMARK    5  A    between atoms: C_10  and  C_12
REMARK                            x       y       z     vdW  Elec       q    Type
REMARK                         _______ _______ _______ _____ _____    ______ ____
ROOT
ATOM      1  C   LIG A   1      -7.747   2.053 125.932  0.00  0.00    +0.044 C 
ATOM      2  C   LIG A   1      -7.982   3.144 124.860  0.00  0.00    +0.239 C 
ATOM      3  O   LIG A   1      -6.768   3.898 124.808  0.00  0.00    -0.334 OA
ATOM      4  C   LIG A   1      -5.660   3.017 125.090  0.00  0.00    +0.156 C 
ATOM      5  C   LIG A   1      -6.289   1.677 125.547  0.00  0.00    +0.032 C 
ATOM      6  C   LIG A   1      -5.470   0.812 126.491  0.00  0.00    +0.011 C 
ATOM      7  C   LIG A   1      -8.292   2.592 123.436  0.00  0.00    +0.215 C 
ATOM      8  O   LIG A   1      -8.117   3.251 122.411  0.00  0.00    -0.287 OA
ATOM      9  C   LIG A   1      -8.873   1.231 123.309  0.00  0.00    +0.048 C 
ATOM     10  C   LIG A   1      -9.085   0.479 124.385  0.00  0.00    -0.022 C 
ATOM     11  C   LIG A   1      -8.764   0.896 125.784  0.00  0.00    +0.040 C 
ENDROOT
BRANCH   4  12
ATOM     12  C   LIG A   1      -4.660   3.722 125.991  0.00  0.00    -0.015 A 
ATOM     13  C   LIG A   1      -5.026   4.917 126.641  0.00  0.00    +0.055 A 
ATOM     14  C   LIG A   1      -4.105   5.531 127.469  0.00  0.00    +0.167 A 
ATOM     15  C   LIG A   1      -2.849   5.010 127.670  0.00  0.00    +0.166 A 
ATOM     16  C   LIG A   1      -2.453   3.837 127.074  0.00  0.00    +0.050 A 
ATOM     17  C   LIG A   1      -3.374   3.185 126.244  0.00  0.00    +0.010 A 
ATOM     18  O   LIG A   1      -2.096   5.767 128.511  0.00  0.00    -0.453 OA
ATOM     19  C   LIG A   1      -3.037   6.804 128.854  0.00  0.00    +0.466 C 
ATOM     20  O   LIG A   1      -4.305   6.677 128.175  0.00  0.00    -0.453 OA
ENDBRANCH   4  12
BRANCH   2  21
ATOM     21  O   LIG A   1      -9.029   4.030 125.214  0.00  0.00    -0.358 OA
ATOM     22  H   LIG A   1      -8.564   4.852 125.461  0.00  0.00    +0.213 HD
ENDBRANCH   2  21
BRANCH   1  23
ATOM     23  C   LIG A   1      -7.908   2.643 127.376  0.00  0.00    +0.040 C 
BRANCH  23  24
ATOM     24  C   LIG A   1      -8.598   1.771 128.397  0.00  0.00    -0.034 C 
ATOM     25  C   LIG A   1      -7.970   1.162 129.412  0.00  0.00    +0.004 C 
ENDBRANCH  23  24
ENDBRANCH   1  23
TORSDOF 4
ENDMDL
MODEL 5
REMARK VINA RESULT:      -7.4      1.350      2.048
REMARK  Name = NuBBE_2099
REMARK  5 active torsions:
REMARK  status: ('A' for Active; 'I' for Inactive)
REMARK    1  A    between atoms: C_1  and  C_2
REMARK    2  A    between atoms: C_1  and  C_4
REMARK    3  A    between atoms: C_5  and  O_6
REMARK    4  A    between atoms: C_8  and  C_13
REMARK    5  A    between atoms: C_10  and  C_12
REMARK                            x       y       z     vdW  Elec       q    Type
REMARK                         _______ _______ _______ _____ _____    ______ ____
ROOT
ATOM      1  C   LIG A   1      -7.366  -0.279 124.649  0.00  0.00    +0.044 C 
ATOM      2  C   LIG A   1      -6.508   0.669 125.522  0.00  0.00    +0.239 C 
ATOM      3  O   LIG A   1      -6.512   1.926 124.841  0.00  0.00    -0.334 OA
ATOM      4  C   LIG A   1      -7.777   2.086 124.165  0.00  0.00    +0.156 C 
ATOM      5  C   LIG A   1      -8.500   0.721 124.289  0.00  0.00    +0.032 C 
ATOM      6  C   LIG A   1      -9.491   0.359 123.195  0.00  0.00    +0.011 C 
ATOM      7  C   LIG A   1      -7.050   0.879 126.969  0.00  0.00    +0.215 C 
ATOM      8  O   LIG A   1      -6.759   1.858 127.655  0.00  0.00    -0.287 OA
ATOM      9  C   LIG A   1      -7.913  -0.171 127.567  0.00  0.00    +0.048 C 
ATOM     10  C   LIG A   1      -8.255  -1.250 126.869  0.00  0.00    -0.022 C 
ATOM     11  C   LIG A   1      -7.837  -1.511 125.458  0.00  0.00    +0.040 C 
ENDROOT
BRANCH   4  12
ATOM     12  C   LIG A   1      -7.551   2.693 122.791  0.00  0.00    -0.015 A 
ATOM     13  C   LIG A   1      -8.657   3.057 121.997  0.00  0.00    +0.055 A 
ATOM     14  C   LIG A   1      -8.427   3.625 120.758  0.00  0.00    +0.167 A 
ATOM     15  C   LIG A   1      -7.155   3.838 120.283  0.00  0.00    +0.166 A 
ATOM     16  C   LIG A   1      -6.046   3.519 121.028  0.00  0.00    +0.050 A 
ATOM     17  C   LIG A   1      -6.252   2.959 122.294  0.00  0.00    +0.010 A 
ATOM     18  O   LIG A   1      -7.147   4.398 119.044  0.00  0.00    -0.453 OA
ATOM     19  C   LIG A   1      -8.561   4.553 118.809  0.00  0.00    +0.466 C 
ATOM     20  O   LIG A   1      -9.381   4.040 119.881  0.00  0.00    -0.453 OA
ENDBRANCH   4  12
BRANCH   2  21
ATOM     21  O   LIG A   1      -5.164   0.234 125.626  0.00  0.00    -0.358 OA
ATOM     22  H   LIG A   1      -4.652   0.967 125.234  0.00  0.00    +0.213 HD
ENDBRANCH   2  21
BRANCH   1  23
ATOM     23  C   LIG A   1      -6.546  -0.803 123.420  0.00  0.00    +0.040 C 
BRANCH  23  24
ATOM     24  C   LIG A   1      -6.331  -2.295 123.329  0.00  0.00    -0.034 C 
ATOM     25  C   LIG A   1      -5.126  -2.881 123.331  0.00  0.00    +0.004 C 
ENDBRANCH  23  24
ENDBRANCH   1  23
TORSDOF 4
ENDMDL
MODEL 6
REMARK VINA RESULT:      -7.3      2.683      6.914
REMARK  Name = NuBBE_2099
REMARK  5 active torsions:
REMARK  status: ('A' for Active; 'I' for Inactive)
REMARK    1  A    between atoms: C_1  and  C_2
REMARK    2  A    between atoms: C_1  and  C_4
REMARK    3  A    between atoms: C_5  and  O_6
REMARK    4  A    between atoms: C_8  and  C_13
REMARK    5  A    between atoms: C_10  and  C_12
REMARK                            x       y       z     vdW  Elec       q    Type
REMARK                         _______ _______ _______ _____ _____    ______ ____
ROOT
ATOM      1  C   LIG A   1      -7.210  -0.936 124.666  0.00  0.00    +0.044 C 
ATOM      2  C   LIG A   1      -8.751  -0.841 124.768  0.00  0.00    +0.239 C 
ATOM      3  O   LIG A   1      -9.055  -1.013 126.155  0.00  0.00    -0.334 OA
ATOM      4  C   LIG A   1      -7.979  -0.456 126.940  0.00  0.00    +0.156 C 
ATOM      5  C   LIG A   1      -6.854  -0.109 125.933  0.00  0.00    +0.032 C 
ATOM      6  C   LIG A   1      -5.427  -0.124 126.455  0.00  0.00    +0.011 C 
ATOM      7  C   LIG A   1      -9.347   0.517 124.288  0.00  0.00    +0.215 C 
ATOM      8  O   LIG A   1     -10.450   0.927 124.648  0.00  0.00    -0.287 OA
ATOM      9  C   LIG A   1      -8.575   1.331 123.315  0.00  0.00    +0.048 C 
ATOM     10  C   LIG A   1      -7.378   0.932 122.892  0.00  0.00    -0.022 C 
ATOM     11  C   LIG A   1      -6.699  -0.322 123.341  0.00  0.00    +0.040 C 
ENDROOT
BRANCH   4  12
ATOM     12  C   LIG A   1      -7.678  -1.367 128.118  0.00  0.00    -0.015 A 
ATOM     13  C   LIG A   1      -7.230  -0.812 129.333  0.00  0.00    +0.055 A 
ATOM     14  C   LIG A   1      -6.979  -1.659 130.396  0.00  0.00    +0.167 A 
ATOM     15  C   LIG A   1      -7.151  -3.019 130.297  0.00  0.00    +0.166 A 
ATOM     16  C   LIG A   1      -7.604  -3.604 129.140  0.00  0.00    +0.050 A 
ATOM     17  C   LIG A   1      -7.883  -2.767 128.053  0.00  0.00    +0.010 A 
ATOM     18  O   LIG A   1      -6.843  -3.671 131.450  0.00  0.00    -0.453 OA
ATOM     19  C   LIG A   1      -6.499  -2.561 132.303  0.00  0.00    +0.466 C 
ATOM     20  O   LIG A   1      -6.556  -1.283 131.634  0.00  0.00    -0.453 OA
ENDBRANCH   4  12
BRANCH   2  21
ATOM     21  O   LIG A   1      -9.402  -1.873 124.049  0.00  0.00    -0.358 OA
ATOM     22  H   LIG A   1     -10.137  -2.137 124.635  0.00  0.00    +0.213 HD
ENDBRANCH   2  21
BRANCH   1  23
ATOM     23  C   LIG A   1      -6.736  -2.430 124.709  0.00  0.00    +0.040 C 
BRANCH  23  24
ATOM     24  C   LIG A   1      -5.653  -2.832 123.737  0.00  0.00    -0.034 C 
ATOM     25  C   LIG A   1      -4.807  -3.851 123.936  0.00  0.00    +0.004 C 
ENDBRANCH  23  24
ENDBRANCH   1  23
TORSDOF 4
ENDMDL
MODEL 7
REMARK VINA RESULT:      -7.2      7.981      9.815
REMARK  Name = NuBBE_2099
REMARK  5 active torsions:
REMARK  status: ('A' for Active; 'I' for Inactive)
REMARK    1  A    between atoms: C_1  and  C_2
REMARK    2  A    between atoms: C_1  and  C_4
REMARK    3  A    between atoms: C_5  and  O_6
REMARK    4  A    between atoms: C_8  and  C_13
REMARK    5  A    between atoms: C_10  and  C_12
REMARK                            x       y       z     vdW  Elec       q    Type
REMARK                         _______ _______ _______ _____ _____    ______ ____
ROOT
ATOM      1  C   LIG A   1      -8.168   3.766 132.103  0.00  0.00    +0.044 C 
ATOM      2  C   LIG A   1      -8.952   2.727 131.265  0.00  0.00    +0.239 C 
ATOM      3  O   LIG A   1      -9.875   3.485 130.479  0.00  0.00    -0.334 OA
ATOM      4  C   LIG A   1      -9.278   4.759 130.159  0.00  0.00    +0.156 C 
ATOM      5  C   LIG A   1      -7.976   4.841 130.996  0.00  0.00    +0.032 C 
ATOM      6  C   LIG A   1      -7.484   6.226 131.382  0.00  0.00    +0.011 C 
ATOM      7  C   LIG A   1      -8.066   1.869 130.311  0.00  0.00    +0.215 C 
ATOM      8  O   LIG A   1      -8.514   1.298 129.317  0.00  0.00    -0.287 OA
ATOM      9  C   LIG A   1      -6.630   1.686 130.642  0.00  0.00    +0.048 C 
ATOM     10  C   LIG A   1      -6.097   2.278 131.707  0.00  0.00    -0.022 C 
ATOM     11  C   LIG A   1      -6.849   3.167 132.645  0.00  0.00    +0.040 C 
ENDROOT
BRANCH   4  12
ATOM     12  C   LIG A   1     -10.318   5.859 130.282  0.00  0.00    -0.015 A 
ATOM     13  C   LIG A   1     -10.451   6.813 129.253  0.00  0.00    +0.055 A 
ATOM     14  C   LIG A   1     -11.417   7.794 129.378  0.00  0.00    +0.167 A 
ATOM     15  C   LIG A   1     -12.242   7.864 130.475  0.00  0.00    +0.166 A 
ATOM     16  C   LIG A   1     -12.164   6.945 131.494  0.00  0.00    +0.050 A 
ATOM     17  C   LIG A   1     -11.206   5.931 131.383  0.00  0.00    +0.010 A 
ATOM     18  O   LIG A   1     -13.115   8.904 130.408  0.00  0.00    -0.453 OA
ATOM     19  C   LIG A   1     -12.775   9.457 129.120  0.00  0.00    +0.466 C 
ATOM     20  O   LIG A   1     -11.680   8.775 128.473  0.00  0.00    -0.453 OA
ENDBRANCH   4  12
BRANCH   2  21
ATOM     21  O   LIG A   1      -9.699   1.836 132.074  0.00  0.00    -0.358 OA
ATOM     22  H   LIG A   1      -9.372   2.014 132.977  0.00  0.00    +0.213 HD
ENDBRANCH   2  21
BRANCH   1  23
ATOM     23  C   LIG A   1      -9.013   4.243 133.334  0.00  0.00    +0.040 C 
BRANCH  23  24
ATOM     24  C   LIG A   1      -8.279   4.410 134.643  0.00  0.00    -0.034 C 
ATOM     25  C   LIG A   1      -7.808   5.580 135.096  0.00  0.00    +0.004 C 
ENDBRANCH  23  24
ENDBRANCH   1  23
TORSDOF 4
ENDMDL
MODEL 8
REMARK VINA RESULT:      -7.2      2.837      6.827
REMARK  Name = NuBBE_2099
REMARK  5 active torsions:
REMARK  status: ('A' for Active; 'I' for Inactive)
REMARK    1  A    between atoms: C_1  and  C_2
REMARK    2  A    between atoms: C_1  and  C_4
REMARK    3  A    between atoms: C_5  and  O_6
REMARK    4  A    between atoms: C_8  and  C_13
REMARK    5  A    between atoms: C_10  and  C_12
REMARK                            x       y       z     vdW  Elec       q    Type
REMARK                         _______ _______ _______ _____ _____    ______ ____
ROOT
ATOM      1  C   LIG A   1      -7.542   0.653 125.149  0.00  0.00    +0.044 C 
ATOM      2  C   LIG A   1      -7.840  -0.524 124.188  0.00  0.00    +0.239 C 
ATOM      3  O   LIG A   1      -7.904  -1.688 125.015  0.00  0.00    -0.334 OA
ATOM      4  C   LIG A   1      -8.430  -1.313 126.306  0.00  0.00    +0.156 C 
ATOM      5  C   LIG A   1      -8.490   0.235 126.308  0.00  0.00    +0.032 C 
ATOM      6  C   LIG A   1      -8.373   0.933 127.653  0.00  0.00    +0.011 C 
ATOM      7  C   LIG A   1      -9.180  -0.391 123.402  0.00  0.00    +0.215 C 
ATOM      8  O   LIG A   1      -9.769  -1.358 122.919  0.00  0.00    -0.287 OA
ATOM      9  C   LIG A   1      -9.746   0.963 123.181  0.00  0.00    +0.048 C 
ATOM     10  C   LIG A   1      -9.147   2.041 123.680  0.00  0.00    -0.022 C 
ATOM     11  C   LIG A   1      -7.896   2.010 124.496  0.00  0.00    +0.040 C 
ENDROOT
BRANCH   4  12
ATOM     12  C   LIG A   1      -7.664  -2.035 127.402  0.00  0.00    -0.015 A 
ATOM     13  C   LIG A   1      -6.257  -1.975 127.428  0.00  0.00    +0.055 A 
ATOM     14  C   LIG A   1      -5.584  -2.626 128.445  0.00  0.00    +0.167 A 
ATOM     15  C   LIG A   1      -6.247  -3.327 129.423  0.00  0.00    +0.166 A 
ATOM     16  C   LIG A   1      -7.619  -3.398 129.451  0.00  0.00    +0.050 A 
ATOM     17  C   LIG A   1      -8.326  -2.732 128.443  0.00  0.00    +0.010 A 
ATOM     18  O   LIG A   1      -5.403  -3.897 130.323  0.00  0.00    -0.453 OA
ATOM     19  C   LIG A   1      -4.130  -3.439 129.825  0.00  0.00    +0.466 C 
ATOM     20  O   LIG A   1      -4.234  -2.654 128.618  0.00  0.00    -0.453 OA
ENDBRANCH   4  12
BRANCH   2  21
ATOM     21  O   LIG A   1      -6.805  -0.720 123.241  0.00  0.00    -0.358 OA
ATOM     22  H   LIG A   1      -6.880   0.054 122.652  0.00  0.00    +0.213 HD
ENDBRANCH   2  21
BRANCH   1  23
ATOM     23  C   LIG A   1      -6.023   0.692 125.532  0.00  0.00    +0.040 C 
BRANCH  23  24
ATOM     24  C   LIG A   1      -5.416   2.053 125.780  0.00  0.00    -0.034 C 
ATOM     25  C   LIG A   1      -4.363   2.271 126.579  0.00  0.00    +0.004 C 
ENDBRANCH  23  24
ENDBRANCH   1  23
TORSDOF 4
ENDMDL
MODEL 9
REMARK VINA RESULT:      -7.2      2.758      7.043
REMARK  Name = NuBBE_2099
REMARK  5 active torsions:
REMARK  status: ('A' for Active; 'I' for Inactive)
REMARK    1  A    between atoms: C_1  and  C_2
REMARK    2  A    between atoms: C_1  and  C_4
REMARK    3  A    between atoms: C_5  and  O_6
REMARK    4  A    between atoms: C_8  and  C_13
REMARK    5  A    between atoms: C_10  and  C_12
REMARK                            x       y       z     vdW  Elec       q    Type
REMARK                         _______ _______ _______ _____ _____    ______ ____
ROOT
ATOM      1  C   LIG A   1      -7.805  -0.651 124.950  0.00  0.00    +0.044 C 
ATOM      2  C   LIG A   1      -8.631   0.320 125.828  0.00  0.00    +0.239 C 
ATOM      3  O   LIG A   1      -8.242   0.043 127.176  0.00  0.00    -0.334 OA
ATOM      4  C   LIG A   1      -6.856  -0.359 127.188  0.00  0.00    +0.156 C 
ATOM      5  C   LIG A   1      -6.450  -0.530 125.702  0.00  0.00    +0.032 C 
ATOM      6  C   LIG A   1      -5.337  -1.518 125.395  0.00  0.00    +0.011 C 
ATOM      7  C   LIG A   1      -8.378   1.829 125.532  0.00  0.00    +0.215 C 
ATOM      8  O   LIG A   1      -8.615   2.719 126.349  0.00  0.00    -0.287 OA
ATOM      9  C   LIG A   1      -7.879   2.220 124.189  0.00  0.00    +0.048 C 
ATOM     10  C   LIG A   1      -7.610   1.298 123.269  0.00  0.00    -0.022 C 
ATOM     11  C   LIG A   1      -7.761  -0.174 123.479  0.00  0.00    +0.040 C 
ENDROOT
BRANCH   4  12
ATOM     12  C   LIG A   1      -6.664  -1.515 128.155  0.00  0.00    -0.015 A 
ATOM     13  C   LIG A   1      -5.460  -1.629 128.877  0.00  0.00    +0.055 A 
ATOM     14  C   LIG A   1      -5.316  -2.679 129.765  0.00  0.00    +0.167 A 
ATOM     15  C   LIG A   1      -6.309  -3.609 129.957  0.00  0.00    +0.166 A 
ATOM     16  C   LIG A   1      -7.508  -3.528 129.290  0.00  0.00    +0.050 A 
ATOM     17  C   LIG A   1      -7.687  -2.464 128.399  0.00  0.00    +0.010 A 
ATOM     18  O   LIG A   1      -5.966  -4.562 130.864  0.00  0.00    -0.453 OA
ATOM     19  C   LIG A   1      -4.657  -4.101 131.256  0.00  0.00    +0.466 C 
ATOM     20  O   LIG A   1      -4.226  -2.922 130.543  0.00  0.00    -0.453 OA
ENDBRANCH   4  12
BRANCH   2  21
ATOM     21  O   LIG A   1     -10.024   0.088 125.721  0.00  0.00    -0.358 OA
ATOM     22  H   LIG A   1     -10.277  -0.219 126.612  0.00  0.00    +0.213 HD
ENDBRANCH   2  21
BRANCH   1  23
ATOM     23  C   LIG A   1      -8.430  -2.088 124.964  0.00  0.00    +0.040 C 
BRANCH  23  24
ATOM     24  C   LIG A   1      -8.615  -2.766 123.627  0.00  0.00    -0.034 C 
ATOM     25  C   LIG A   1      -9.744  -3.376 123.244  0.00  0.00    +0.004 C 
ENDBRANCH  23  24
ENDBRANCH   1  23
TORSDOF 4
ENDMDL
