MODEL 1
REMARK VINA RESULT:      -8.4      0.000      0.000
REMARK  Name = NuBBE_1424
REMARK  7 active torsions:
REMARK  status: ('A' for Active; 'I' for Inactive)
REMARK    1  A    between atoms: C_8  and  C_9
REMARK    2  A    between atoms: C_8  and  C_14
REMARK    3  A    between atoms: C_10  and  O_13
REMARK    4  A    between atoms: C_19  and  C_20
REMARK    5  A    between atoms: C_20  and  C_21
REMARK    6  A    between atoms: C_20  and  C_22
REMARK    7  A    between atoms: C_20  and  C_24
REMARK                            x       y       z     vdW  Elec       q    Type
REMARK                         _______ _______ _______ _____ _____    ______ ____
ROOT
ATOM      1  O   LIG A   1     -12.585   6.138 131.258  0.00  0.00    -0.245 OA
ATOM      2  C   LIG A   1     -11.394   6.413 131.151  0.00  0.00    +0.341 A 
ATOM      3  O   LIG A   1     -10.492   5.942 132.099  0.00  0.00    -0.421 OA
ATOM      4  C   LIG A   1      -9.103   6.147 132.000  0.00  0.00    +0.146 A 
ATOM      5  C   LIG A   1      -8.281   5.639 133.016  0.00  0.00    +0.040 A 
ATOM      6  C   LIG A   1      -6.901   5.802 132.889  0.00  0.00    +0.128 A 
ATOM      7  O   LIG A   1      -5.984   5.365 133.804  0.00  0.00    -0.483 OA
ATOM      8  C   LIG A   1      -6.460   4.559 134.897  0.00  0.00    +0.131 C 
ATOM      9  C   LIG A   1      -5.442   4.768 136.031  0.00  0.00    +0.058 C 
ATOM     10  C   LIG A   1      -7.884   4.949 135.373  0.00  0.00    +0.162 C 
ATOM     11  C   LIG A   1      -8.867   4.938 134.206  0.00  0.00    +0.078 C 
ATOM     12  C   LIG A   1      -6.397   3.083 134.465  0.00  0.00    +0.058 C 
ATOM     13  C   LIG A   1      -6.371   6.475 131.784  0.00  0.00    +0.047 A 
ATOM     14  C   LIG A   1      -7.213   7.001 130.801  0.00  0.00    +0.015 A 
ATOM     15  C   LIG A   1      -8.594   6.841 130.912  0.00  0.00    +0.018 A 
ATOM     16  C   LIG A   1      -9.520   7.421 129.952  0.00  0.00    +0.023 A 
ATOM     17  C   LIG A   1     -10.855   7.257 130.038  0.00  0.00    +0.047 A 
ENDROOT
BRANCH  17  18
ATOM     18  C   LIG A   1     -11.871   7.914 129.071  0.00  0.00    +0.015 C 
ATOM     19  C   LIG A   1     -12.636   9.058 129.780  0.00  0.00    +0.020 C 
ATOM     20  C   LIG A   1     -12.911   6.888 128.559  0.00  0.00    +0.020 C 
BRANCH  18  21
ATOM     21  C   LIG A   1     -11.174   8.448 127.803  0.00  0.00    -0.023 C 
ATOM     22  C   LIG A   1     -11.012   7.821 126.627  0.00  0.00    +0.005 C 
ENDBRANCH  18  21
ENDBRANCH  17  18
BRANCH  10  23
ATOM     23  O   LIG A   1      -7.930   6.255 135.969  0.00  0.00    -0.388 OA
ATOM     24  H   LIG A   1      -7.649   6.906 135.304  0.00  0.00    +0.210 HD
ENDBRANCH  10  23
TORSDOF 3
ENDMDL
MODEL 2
REMARK VINA RESULT:      -7.9      2.059      3.348
REMARK  Name = NuBBE_1424
REMARK  7 active torsions:
REMARK  status: ('A' for Active; 'I' for Inactive)
REMARK    1  A    between atoms: C_8  and  C_9
REMARK    2  A    between atoms: C_8  and  C_14
REMARK    3  A    between atoms: C_10  and  O_13
REMARK    4  A    between atoms: C_19  and  C_20
REMARK    5  A    between atoms: C_20  and  C_21
REMARK    6  A    between atoms: C_20  and  C_22
REMARK    7  A    between atoms: C_20  and  C_24
REMARK                            x       y       z     vdW  Elec       q    Type
REMARK                         _______ _______ _______ _____ _____    ______ ____
ROOT
ATOM      1  O   LIG A   1      -9.755   8.245 128.763  0.00  0.00    -0.245 OA
ATOM      2  C   LIG A   1      -9.565   7.586 129.780  0.00  0.00    +0.341 A 
ATOM      3  O   LIG A   1      -8.267   7.243 130.145  0.00  0.00    -0.421 OA
ATOM      4  C   LIG A   1      -7.963   6.560 131.336  0.00  0.00    +0.146 A 
ATOM      5  C   LIG A   1      -6.622   6.253 131.605  0.00  0.00    +0.040 A 
ATOM      6  C   LIG A   1      -6.320   5.618 132.811  0.00  0.00    +0.128 A 
ATOM      7  O   LIG A   1      -5.061   5.255 133.199  0.00  0.00    -0.483 OA
ATOM      8  C   LIG A   1      -3.957   5.682 132.379  0.00  0.00    +0.131 C 
ATOM      9  C   LIG A   1      -2.839   4.657 132.635  0.00  0.00    +0.058 C 
ATOM     10  C   LIG A   1      -4.301   5.738 130.868  0.00  0.00    +0.162 C 
ATOM     11  C   LIG A   1      -5.539   6.598 130.625  0.00  0.00    +0.078 C 
ATOM     12  C   LIG A   1      -3.478   7.049 132.897  0.00  0.00    +0.058 C 
ATOM     13  C   LIG A   1      -7.342   5.285 133.705  0.00  0.00    +0.047 A 
ATOM     14  C   LIG A   1      -8.675   5.571 133.400  0.00  0.00    +0.015 A 
ATOM     15  C   LIG A   1      -8.991   6.210 132.200  0.00  0.00    +0.018 A 
ATOM     16  C   LIG A   1     -10.364   6.477 131.804  0.00  0.00    +0.023 A 
ATOM     17  C   LIG A   1     -10.681   7.110 130.656  0.00  0.00    +0.047 A 
ENDROOT
BRANCH  17  18
ATOM     18  C   LIG A   1     -12.133   7.351 130.174  0.00  0.00    +0.015 C 
ATOM     19  C   LIG A   1     -13.125   7.233 131.357  0.00  0.00    +0.020 C 
ATOM     20  C   LIG A   1     -12.550   6.323 129.095  0.00  0.00    +0.020 C 
BRANCH  18  21
ATOM     21  C   LIG A   1     -12.277   8.729 129.496  0.00  0.00    -0.023 C 
ATOM     22  C   LIG A   1     -13.182   9.103 128.578  0.00  0.00    +0.005 C 
ENDBRANCH  18  21
ENDBRANCH  17  18
BRANCH  10  23
ATOM     23  O   LIG A   1      -4.558   4.440 130.310  0.00  0.00    -0.388 OA
ATOM     24  H   LIG A   1      -3.949   3.803 130.720  0.00  0.00    +0.210 HD
ENDBRANCH  10  23
TORSDOF 3
ENDMDL
MODEL 3
REMARK VINA RESULT:      -7.5      2.578      3.694
REMARK  Name = NuBBE_1424
REMARK  7 active torsions:
REMARK  status: ('A' for Active; 'I' for Inactive)
REMARK    1  A    between atoms: C_8  and  C_9
REMARK    2  A    between atoms: C_8  and  C_14
REMARK    3  A    between atoms: C_10  and  O_13
REMARK    4  A    between atoms: C_19  and  C_20
REMARK    5  A    between atoms: C_20  and  C_21
REMARK    6  A    between atoms: C_20  and  C_22
REMARK    7  A    between atoms: C_20  and  C_24
REMARK                            x       y       z     vdW  Elec       q    Type
REMARK                         _______ _______ _______ _____ _____    ______ ____
ROOT
ATOM      1  O   LIG A   1     -10.443   6.906 127.687  0.00  0.00    -0.245 OA
ATOM      2  C   LIG A   1     -10.085   6.621 128.826  0.00  0.00    +0.341 A 
ATOM      3  O   LIG A   1      -8.898   5.923 129.018  0.00  0.00    -0.421 OA
ATOM      4  C   LIG A   1      -8.381   5.631 130.294  0.00  0.00    +0.146 A 
ATOM      5  C   LIG A   1      -7.181   4.912 130.378  0.00  0.00    +0.040 A 
ATOM      6  C   LIG A   1      -6.647   4.666 131.644  0.00  0.00    +0.128 A 
ATOM      7  O   LIG A   1      -5.491   3.974 131.875  0.00  0.00    -0.483 OA
ATOM      8  C   LIG A   1      -4.697   3.597 130.734  0.00  0.00    +0.131 C 
ATOM      9  C   LIG A   1      -3.902   2.360 131.184  0.00  0.00    +0.058 C 
ATOM     10  C   LIG A   1      -5.544   3.266 129.479  0.00  0.00    +0.162 C 
ATOM     11  C   LIG A   1      -6.487   4.419 129.142  0.00  0.00    +0.078 C 
ATOM     12  C   LIG A   1      -3.696   4.731 130.454  0.00  0.00    +0.058 C 
ATOM     13  C   LIG A   1      -7.315   5.114 132.788  0.00  0.00    +0.047 A 
ATOM     14  C   LIG A   1      -8.527   5.801 132.680  0.00  0.00    +0.015 A 
ATOM     15  C   LIG A   1      -9.070   6.057 131.420  0.00  0.00    +0.018 A 
ATOM     16  C   LIG A   1     -10.358   6.712 131.251  0.00  0.00    +0.023 A 
ATOM     17  C   LIG A   1     -10.883   6.981 130.039  0.00  0.00    +0.047 A 
ENDROOT
BRANCH  17  18
ATOM     18  C   LIG A   1     -12.279   7.618 129.825  0.00  0.00    +0.015 C 
ATOM     19  C   LIG A   1     -12.143   9.031 129.208  0.00  0.00    +0.020 C 
ATOM     20  C   LIG A   1     -13.052   7.750 131.159  0.00  0.00    +0.020 C 
BRANCH  18  21
ATOM     21  C   LIG A   1     -13.168   6.731 128.929  0.00  0.00    -0.023 C 
ATOM     22  C   LIG A   1     -13.885   7.102 127.857  0.00  0.00    +0.005 C 
ENDBRANCH  18  21
ENDBRANCH  17  18
BRANCH  10  23
ATOM     23  O   LIG A   1      -6.344   2.085 129.646  0.00  0.00    -0.388 OA
ATOM     24  H   LIG A   1      -6.791   2.136 130.507  0.00  0.00    +0.210 HD
ENDBRANCH  10  23
TORSDOF 3
ENDMDL
MODEL 4
REMARK VINA RESULT:      -7.4      9.121     11.863
REMARK  Name = NuBBE_1424
REMARK  7 active torsions:
REMARK  status: ('A' for Active; 'I' for Inactive)
REMARK    1  A    between atoms: C_8  and  C_9
REMARK    2  A    between atoms: C_8  and  C_14
REMARK    3  A    between atoms: C_10  and  O_13
REMARK    4  A    between atoms: C_19  and  C_20
REMARK    5  A    between atoms: C_20  and  C_21
REMARK    6  A    between atoms: C_20  and  C_22
REMARK    7  A    between atoms: C_20  and  C_24
REMARK                            x       y       z     vdW  Elec       q    Type
REMARK                         _______ _______ _______ _____ _____    ______ ____
ROOT
ATOM      1  O   LIG A   1      -4.428  -1.794 131.206  0.00  0.00    -0.245 OA
ATOM      2  C   LIG A   1      -5.437  -2.158 130.608  0.00  0.00    +0.341 A 
ATOM      3  O   LIG A   1      -5.515  -1.995 129.230  0.00  0.00    -0.421 OA
ATOM      4  C   LIG A   1      -6.602  -2.459 128.466  0.00  0.00    +0.146 A 
ATOM      5  C   LIG A   1      -6.588  -2.234 127.082  0.00  0.00    +0.040 A 
ATOM      6  C   LIG A   1      -7.644  -2.739 126.322  0.00  0.00    +0.128 A 
ATOM      7  O   LIG A   1      -7.764  -2.589 124.969  0.00  0.00    -0.483 OA
ATOM      8  C   LIG A   1      -6.659  -1.995 124.260  0.00  0.00    +0.131 C 
ATOM      9  C   LIG A   1      -7.274  -1.373 122.995  0.00  0.00    +0.058 C 
ATOM     10  C   LIG A   1      -5.911  -0.915 125.083  0.00  0.00    +0.162 C 
ATOM     11  C   LIG A   1      -5.470  -1.472 126.434  0.00  0.00    +0.078 C 
ATOM     12  C   LIG A   1      -5.710  -3.125 123.824  0.00  0.00    +0.058 C 
ATOM     13  C   LIG A   1      -8.689  -3.430 126.942  0.00  0.00    +0.047 A 
ATOM     14  C   LIG A   1      -8.697  -3.614 128.327  0.00  0.00    +0.015 A 
ATOM     15  C   LIG A   1      -7.646  -3.118 129.099  0.00  0.00    +0.018 A 
ATOM     16  C   LIG A   1      -7.632  -3.227 130.549  0.00  0.00    +0.023 A 
ATOM     17  C   LIG A   1      -6.613  -2.768 131.304  0.00  0.00    +0.047 A 
ENDROOT
BRANCH  17  18
ATOM     18  C   LIG A   1      -6.598  -2.809 132.852  0.00  0.00    +0.015 C 
ATOM     19  C   LIG A   1      -8.007  -3.141 133.401  0.00  0.00    +0.020 C 
ATOM     20  C   LIG A   1      -6.158  -1.451 133.450  0.00  0.00    +0.020 C 
BRANCH  18  21
ATOM     21  C   LIG A   1      -5.569  -3.833 133.376  0.00  0.00    -0.023 C 
ATOM     22  C   LIG A   1      -5.424  -5.115 133.007  0.00  0.00    +0.005 C 
ENDBRANCH  18  21
ENDBRANCH  17  18
BRANCH  10  23
ATOM     23  O   LIG A   1      -6.718   0.247 125.334  0.00  0.00    -0.388 OA
ATOM     24  H   LIG A   1      -6.129   0.990 125.547  0.00  0.00    +0.210 HD
ENDBRANCH  10  23
TORSDOF 3
ENDMDL
MODEL 5
REMARK VINA RESULT:      -7.3      9.269     10.459
REMARK  Name = NuBBE_1424
REMARK  7 active torsions:
REMARK  status: ('A' for Active; 'I' for Inactive)
REMARK    1  A    between atoms: C_8  and  C_9
REMARK    2  A    between atoms: C_8  and  C_14
REMARK    3  A    between atoms: C_10  and  O_13
REMARK    4  A    between atoms: C_19  and  C_20
REMARK    5  A    between atoms: C_20  and  C_21
REMARK    6  A    between atoms: C_20  and  C_22
REMARK    7  A    between atoms: C_20  and  C_24
REMARK                            x       y       z     vdW  Elec       q    Type
REMARK                         _______ _______ _______ _____ _____    ______ ____
ROOT
ATOM      1  O   LIG A   1      -6.038  -0.747 124.375  0.00  0.00    -0.245 OA
ATOM      2  C   LIG A   1      -6.615  -1.419 125.225  0.00  0.00    +0.341 A 
ATOM      3  O   LIG A   1      -6.021  -1.611 126.468  0.00  0.00    -0.421 OA
ATOM      4  C   LIG A   1      -6.655  -2.300 127.519  0.00  0.00    +0.146 A 
ATOM      5  C   LIG A   1      -5.965  -2.448 128.730  0.00  0.00    +0.040 A 
ATOM      6  C   LIG A   1      -6.616  -3.089 129.785  0.00  0.00    +0.128 A 
ATOM      7  O   LIG A   1      -6.063  -3.308 131.016  0.00  0.00    -0.483 OA
ATOM      8  C   LIG A   1      -4.781  -2.713 131.290  0.00  0.00    +0.131 C 
ATOM      9  C   LIG A   1      -4.143  -3.600 132.373  0.00  0.00    +0.058 C 
ATOM     10  C   LIG A   1      -3.860  -2.638 130.044  0.00  0.00    +0.162 C 
ATOM     11  C   LIG A   1      -4.566  -1.930 128.891  0.00  0.00    +0.078 C 
ATOM     12  C   LIG A   1      -5.021  -1.319 131.895  0.00  0.00    +0.058 C 
ATOM     13  C   LIG A   1      -7.912  -3.584 129.615  0.00  0.00    +0.047 A 
ATOM     14  C   LIG A   1      -8.567  -3.454 128.387  0.00  0.00    +0.015 A 
ATOM     15  C   LIG A   1      -7.930  -2.811 127.326  0.00  0.00    +0.018 A 
ATOM     16  C   LIG A   1      -8.540  -2.702 126.009  0.00  0.00    +0.023 A 
ATOM     17  C   LIG A   1      -7.942  -2.067 124.981  0.00  0.00    +0.047 A 
ENDROOT
BRANCH  17  18
ATOM     18  C   LIG A   1      -8.533  -1.989 123.552  0.00  0.00    +0.015 C 
ATOM     19  C   LIG A   1      -9.610  -3.082 123.349  0.00  0.00    +0.020 C 
ATOM     20  C   LIG A   1      -7.440  -2.189 122.475  0.00  0.00    +0.020 C 
BRANCH  18  21
ATOM     21  C   LIG A   1      -9.131  -0.596 123.267  0.00  0.00    -0.023 C 
ATOM     22  C   LIG A   1     -10.099  -0.278 122.393  0.00  0.00    +0.005 C 
ENDBRANCH  18  21
ENDBRANCH  17  18
BRANCH  10  23
ATOM     23  O   LIG A   1      -3.455  -3.934 129.577  0.00  0.00    -0.388 OA
ATOM     24  H   LIG A   1      -3.349  -4.519 130.345  0.00  0.00    +0.210 HD
ENDBRANCH  10  23
TORSDOF 3
ENDMDL
MODEL 6
REMARK VINA RESULT:      -7.3      8.548      9.513
REMARK  Name = NuBBE_1424
REMARK  7 active torsions:
REMARK  status: ('A' for Active; 'I' for Inactive)
REMARK    1  A    between atoms: C_8  and  C_9
REMARK    2  A    between atoms: C_8  and  C_14
REMARK    3  A    between atoms: C_10  and  O_13
REMARK    4  A    between atoms: C_19  and  C_20
REMARK    5  A    between atoms: C_20  and  C_21
REMARK    6  A    between atoms: C_20  and  C_22
REMARK    7  A    between atoms: C_20  and  C_24
REMARK                            x       y       z     vdW  Elec       q    Type
REMARK                         _______ _______ _______ _____ _____    ______ ____
ROOT
ATOM      1  O   LIG A   1      -8.001   0.654 124.600  0.00  0.00    -0.245 OA
ATOM      2  C   LIG A   1      -8.077  -0.317 125.348  0.00  0.00    +0.341 A 
ATOM      3  O   LIG A   1      -7.739  -0.178 126.690  0.00  0.00    -0.421 OA
ATOM      4  C   LIG A   1      -7.876  -1.222 127.623  0.00  0.00    +0.146 A 
ATOM      5  C   LIG A   1      -7.496  -0.981 128.951  0.00  0.00    +0.040 A 
ATOM      6  C   LIG A   1      -7.680  -2.003 129.884  0.00  0.00    +0.128 A 
ATOM      7  O   LIG A   1      -7.349  -1.911 131.207  0.00  0.00    -0.483 OA
ATOM      8  C   LIG A   1      -6.917  -0.629 131.702  0.00  0.00    +0.131 C 
ATOM      9  C   LIG A   1      -6.037  -0.941 132.924  0.00  0.00    +0.058 C 
ATOM     10  C   LIG A   1      -6.119   0.194 130.658  0.00  0.00    +0.162 C 
ATOM     11  C   LIG A   1      -6.910   0.338 129.361  0.00  0.00    +0.078 C 
ATOM     12  C   LIG A   1      -8.159   0.136 132.191  0.00  0.00    +0.058 C 
ATOM     13  C   LIG A   1      -8.208  -3.234 129.484  0.00  0.00    +0.047 A 
ATOM     14  C   LIG A   1      -8.548  -3.461 128.148  0.00  0.00    +0.015 A 
ATOM     15  C   LIG A   1      -8.375  -2.447 127.206  0.00  0.00    +0.018 A 
ATOM     16  C   LIG A   1      -8.654  -2.648 125.792  0.00  0.00    +0.023 A 
ATOM     17  C   LIG A   1      -8.508  -1.670 124.876  0.00  0.00    +0.047 A 
ENDROOT
BRANCH  17  18
ATOM     18  C   LIG A   1      -8.734  -1.869 123.356  0.00  0.00    +0.015 C 
ATOM     19  C   LIG A   1      -9.636  -0.746 122.789  0.00  0.00    +0.020 C 
ATOM     20  C   LIG A   1      -9.415  -3.226 123.058  0.00  0.00    +0.020 C 
BRANCH  18  21
ATOM     21  C   LIG A   1      -7.395  -1.912 122.591  0.00  0.00    -0.023 C 
ATOM     22  C   LIG A   1      -6.180  -2.214 123.076  0.00  0.00    +0.005 C 
ENDBRANCH  18  21
ENDBRANCH  17  18
BRANCH  10  23
ATOM     23  O   LIG A   1      -4.854  -0.402 130.333  0.00  0.00    -0.388 OA
ATOM     24  H   LIG A   1      -4.960  -0.922 129.518  0.00  0.00    +0.210 HD
ENDBRANCH  10  23
TORSDOF 3
ENDMDL
MODEL 7
REMARK VINA RESULT:      -7.3      9.218     10.476
REMARK  Name = NuBBE_1424
REMARK  7 active torsions:
REMARK  status: ('A' for Active; 'I' for Inactive)
REMARK    1  A    between atoms: C_8  and  C_9
REMARK    2  A    between atoms: C_8  and  C_14
REMARK    3  A    between atoms: C_10  and  O_13
REMARK    4  A    between atoms: C_19  and  C_20
REMARK    5  A    between atoms: C_20  and  C_21
REMARK    6  A    between atoms: C_20  and  C_22
REMARK    7  A    between atoms: C_20  and  C_24
REMARK                            x       y       z     vdW  Elec       q    Type
REMARK                         _______ _______ _______ _____ _____    ______ ____
ROOT
ATOM      1  O   LIG A   1      -4.942  -0.426 125.492  0.00  0.00    -0.245 OA
ATOM      2  C   LIG A   1      -5.752  -1.186 126.013  0.00  0.00    +0.341 A 
ATOM      3  O   LIG A   1      -5.724  -1.380 127.390  0.00  0.00    -0.421 OA
ATOM      4  C   LIG A   1      -6.669  -2.171 128.069  0.00  0.00    +0.146 A 
ATOM      5  C   LIG A   1      -6.545  -2.311 129.459  0.00  0.00    +0.040 A 
ATOM      6  C   LIG A   1      -7.512  -3.057 130.134  0.00  0.00    +0.128 A 
ATOM      7  O   LIG A   1      -7.513  -3.281 131.483  0.00  0.00    -0.483 OA
ATOM      8  C   LIG A   1      -6.534  -2.585 132.278  0.00  0.00    +0.131 C 
ATOM      9  C   LIG A   1      -6.329  -3.460 133.527  0.00  0.00    +0.058 C 
ATOM     10  C   LIG A   1      -5.186  -2.370 131.543  0.00  0.00    +0.162 C 
ATOM     11  C   LIG A   1      -5.406  -1.676 130.201  0.00  0.00    +0.078 C 
ATOM     12  C   LIG A   1      -7.148  -1.248 132.728  0.00  0.00    +0.058 C 
ATOM     13  C   LIG A   1      -8.557  -3.659 129.427  0.00  0.00    +0.047 A 
ATOM     14  C   LIG A   1      -8.641  -3.532 128.038  0.00  0.00    +0.015 A 
ATOM     15  C   LIG A   1      -7.684  -2.786 127.350  0.00  0.00    +0.018 A 
ATOM     16  C   LIG A   1      -7.687  -2.672 125.900  0.00  0.00    +0.023 A 
ATOM     17  C   LIG A   1      -6.778  -1.939 125.226  0.00  0.00    +0.047 A 
ENDROOT
BRANCH  17  18
ATOM     18  C   LIG A   1      -6.715  -1.849 123.681  0.00  0.00    +0.015 C 
ATOM     19  C   LIG A   1      -6.762  -0.373 123.220  0.00  0.00    +0.020 C 
ATOM     20  C   LIG A   1      -7.899  -2.596 123.021  0.00  0.00    +0.020 C 
BRANCH  18  21
ATOM     21  C   LIG A   1      -5.448  -2.537 123.131  0.00  0.00    -0.023 C 
ATOM     22  C   LIG A   1      -4.885  -3.681 123.551  0.00  0.00    +0.005 C 
ENDBRANCH  18  21
ENDBRANCH  17  18
BRANCH  10  23
ATOM     23  O   LIG A   1      -4.492  -3.601 131.288  0.00  0.00    -0.388 OA
ATOM     24  H   LIG A   1      -3.552  -3.400 131.147  0.00  0.00    +0.210 HD
ENDBRANCH  10  23
TORSDOF 3
ENDMDL
MODEL 8
REMARK VINA RESULT:      -7.2      2.971      7.231
REMARK  Name = NuBBE_1424
REMARK  7 active torsions:
REMARK  status: ('A' for Active; 'I' for Inactive)
REMARK    1  A    between atoms: C_8  and  C_9
REMARK    2  A    between atoms: C_8  and  C_14
REMARK    3  A    between atoms: C_10  and  O_13
REMARK    4  A    between atoms: C_19  and  C_20
REMARK    5  A    between atoms: C_20  and  C_21
REMARK    6  A    between atoms: C_20  and  C_22
REMARK    7  A    between atoms: C_20  and  C_24
REMARK                            x       y       z     vdW  Elec       q    Type
REMARK                         _______ _______ _______ _____ _____    ______ ____
ROOT
ATOM      1  O   LIG A   1      -6.893   3.630 127.764  0.00  0.00    -0.245 OA
ATOM      2  C   LIG A   1      -7.484   4.112 128.726  0.00  0.00    +0.341 A 
ATOM      3  O   LIG A   1      -8.530   5.003 128.514  0.00  0.00    -0.421 OA
ATOM      4  C   LIG A   1      -9.305   5.534 129.561  0.00  0.00    +0.146 A 
ATOM      5  C   LIG A   1     -10.332   6.434 129.239  0.00  0.00    +0.040 A 
ATOM      6  C   LIG A   1     -11.129   6.920 130.276  0.00  0.00    +0.128 A 
ATOM      7  O   LIG A   1     -12.158   7.806 130.110  0.00  0.00    -0.483 OA
ATOM      8  C   LIG A   1     -12.536   8.148 128.763  0.00  0.00    +0.131 C 
ATOM      9  C   LIG A   1     -13.181   9.541 128.864  0.00  0.00    +0.058 C 
ATOM     10  C   LIG A   1     -11.338   8.179 127.778  0.00  0.00    +0.162 C 
ATOM     11  C   LIG A   1     -10.568   6.862 127.820  0.00  0.00    +0.078 C 
ATOM     12  C   LIG A   1     -13.616   7.154 128.303  0.00  0.00    +0.058 C 
ATOM     13  C   LIG A   1     -10.885   6.528 131.595  0.00  0.00    +0.047 A 
ATOM     14  C   LIG A   1      -9.835   5.656 131.894  0.00  0.00    +0.015 A 
ATOM     15  C   LIG A   1      -9.032   5.158 130.868  0.00  0.00    +0.018 A 
ATOM     16  C   LIG A   1      -7.889   4.296 131.127  0.00  0.00    +0.023 A 
ATOM     17  C   LIG A   1      -7.118   3.794 130.142  0.00  0.00    +0.047 A 
ENDROOT
BRANCH  17  18
ATOM     18  C   LIG A   1      -5.857   2.929 130.388  0.00  0.00    +0.015 C 
ATOM     19  C   LIG A   1      -6.096   1.475 129.915  0.00  0.00    +0.020 C 
ATOM     20  C   LIG A   1      -5.481   2.889 131.889  0.00  0.00    +0.020 C 
BRANCH  18  21
ATOM     21  C   LIG A   1      -4.623   3.523 129.679  0.00  0.00    -0.023 C 
ATOM     22  C   LIG A   1      -3.768   4.445 130.148  0.00  0.00    +0.005 C 
ENDBRANCH  18  21
ENDBRANCH  17  18
BRANCH  10  23
ATOM     23  O   LIG A   1     -10.410   9.235 128.069  0.00  0.00    -0.388 OA
ATOM     24  H   LIG A   1      -9.985   9.508 127.238  0.00  0.00    +0.210 HD
ENDBRANCH  10  23
TORSDOF 3
ENDMDL
MODEL 9
REMARK VINA RESULT:      -7.2      2.631      4.321
REMARK  Name = NuBBE_1424
REMARK  7 active torsions:
REMARK  status: ('A' for Active; 'I' for Inactive)
REMARK    1  A    between atoms: C_8  and  C_9
REMARK    2  A    between atoms: C_8  and  C_14
REMARK    3  A    between atoms: C_10  and  O_13
REMARK    4  A    between atoms: C_19  and  C_20
REMARK    5  A    between atoms: C_20  and  C_21
REMARK    6  A    between atoms: C_20  and  C_22
REMARK    7  A    between atoms: C_20  and  C_24
REMARK                            x       y       z     vdW  Elec       q    Type
REMARK                         _______ _______ _______ _____ _____    ______ ____
ROOT
ATOM      1  O   LIG A   1      -9.313   8.009 129.237  0.00  0.00    -0.245 OA
ATOM      2  C   LIG A   1      -8.828   7.386 130.177  0.00  0.00    +0.341 A 
ATOM      3  O   LIG A   1      -7.448   7.376 130.354  0.00  0.00    -0.421 OA
ATOM      4  C   LIG A   1      -6.824   6.753 131.451  0.00  0.00    +0.146 A 
ATOM      5  C   LIG A   1      -5.425   6.791 131.530  0.00  0.00    +0.040 A 
ATOM      6  C   LIG A   1      -4.812   6.215 132.644  0.00  0.00    +0.128 A 
ATOM      7  O   LIG A   1      -3.461   6.173 132.849  0.00  0.00    -0.483 OA
ATOM      8  C   LIG A   1      -2.622   6.896 131.928  0.00  0.00    +0.131 C 
ATOM      9  C   LIG A   1      -1.260   6.183 131.975  0.00  0.00    +0.058 C 
ATOM     10  C   LIG A   1      -3.172   6.912 130.478  0.00  0.00    +0.162 C 
ATOM     11  C   LIG A   1      -4.606   7.435 130.449  0.00  0.00    +0.078 C 
ATOM     12  C   LIG A   1      -2.433   8.322 132.473  0.00  0.00    +0.058 C 
ATOM     13  C   LIG A   1      -5.586   5.601 133.633  0.00  0.00    +0.047 A 
ATOM     14  C   LIG A   1      -6.978   5.547 133.515  0.00  0.00    +0.015 A 
ATOM     15  C   LIG A   1      -7.604   6.123 132.410  0.00  0.00    +0.018 A 
ATOM     16  C   LIG A   1      -9.041   6.043 132.205  0.00  0.00    +0.023 A 
ATOM     17  C   LIG A   1      -9.659   6.611 131.151  0.00  0.00    +0.047 A 
ENDROOT
BRANCH  17  18
ATOM     18  C   LIG A   1     -11.177   6.489 130.869  0.00  0.00    +0.015 C 
ATOM     19  C   LIG A   1     -11.640   7.598 129.894  0.00  0.00    +0.020 C 
ATOM     20  C   LIG A   1     -12.007   6.619 132.170  0.00  0.00    +0.020 C 
BRANCH  18  21
ATOM     21  C   LIG A   1     -11.532   5.100 130.301  0.00  0.00    -0.023 C 
ATOM     22  C   LIG A   1     -10.798   3.978 130.353  0.00  0.00    +0.005 C 
ENDBRANCH  18  21
ENDBRANCH  17  18
BRANCH  10  23
ATOM     23  O   LIG A   1      -3.171   5.611 129.871  0.00  0.00    -0.388 OA
ATOM     24  H   LIG A   1      -2.919   4.958 130.544  0.00  0.00    +0.210 HD
ENDBRANCH  10  23
TORSDOF 3
ENDMDL
