MODEL 1
REMARK VINA RESULT:      -7.4      0.000      0.000
REMARK  Name = NuBBE_355
REMARK  3 active torsions:
REMARK  status: ('A' for Active; 'I' for Inactive)
REMARK    1  A    between atoms: O_1  and  C_2
REMARK    2  A    between atoms: C_4  and  O_5
REMARK    3  A    between atoms: C_9  and  C_11
REMARK                            x       y       z     vdW  Elec       q    Type
REMARK                         _______ _______ _______ _____ _____    ______ ____
ROOT
ATOM      1  C   LIG A   1     -11.191   7.579 126.793  0.00  0.00    +0.124 A 
ATOM      2  C   LIG A   1     -12.456   7.554 127.369  0.00  0.00    +0.091 A 
ATOM      3  C   LIG A   1     -12.586   7.223 128.722  0.00  0.00    +0.134 A 
ATOM      4  C   LIG A   1     -11.454   6.926 129.496  0.00  0.00    +0.101 A 
ATOM      5  C   LIG A   1     -11.525   6.512 130.923  0.00  0.00    +0.174 C 
ATOM      6  C   LIG A   1     -10.236   6.049 131.543  0.00  0.00    +0.129 C 
ATOM      7  C   LIG A   1      -9.113   6.900 130.979  0.00  0.00    +0.211 C 
ATOM      8  O   LIG A   1      -9.015   6.720 129.558  0.00  0.00    -0.483 OA
ATOM      9  O   LIG A   1     -12.569   6.489 131.566  0.00  0.00    -0.292 OA
ATOM     10  C   LIG A   1     -10.188   6.981 128.899  0.00  0.00    +0.139 A 
ATOM     11  C   LIG A   1     -10.058   7.291 127.544  0.00  0.00    +0.092 A 
ENDROOT
BRANCH   7  12
ATOM     12  C   LIG A   1      -7.788   6.526 131.618  0.00  0.00    -0.007 A 
ATOM     13  C   LIG A   1      -7.734   5.810 132.826  0.00  0.00    +0.007 A 
ATOM     14  C   LIG A   1      -6.507   5.499 133.414  0.00  0.00    +0.000 A 
ATOM     15  C   LIG A   1      -5.320   5.904 132.809  0.00  0.00    +0.000 A 
ATOM     16  C   LIG A   1      -5.358   6.621 131.615  0.00  0.00    +0.000 A 
ATOM     17  C   LIG A   1      -6.583   6.932 131.023  0.00  0.00    +0.007 A 
ENDBRANCH   7  12
BRANCH   1  18
ATOM     18  O   LIG A   1     -11.013   7.886 125.476  0.00  0.00    -0.506 OA
ATOM     19  H   LIG A   1     -10.846   8.838 125.384  0.00  0.00    +0.292 HD
ENDBRANCH   1  18
BRANCH   3  20
ATOM     20  O   LIG A   1     -13.836   7.185 129.271  0.00  0.00    -0.506 OA
ATOM     21  H   LIG A   1     -14.438   7.787 128.806  0.00  0.00    +0.292 HD
ENDBRANCH   3  20
TORSDOF 3
ENDMDL
MODEL 2
REMARK VINA RESULT:      -7.3      7.749      8.842
REMARK  Name = NuBBE_355
REMARK  3 active torsions:
REMARK  status: ('A' for Active; 'I' for Inactive)
REMARK    1  A    between atoms: O_1  and  C_2
REMARK    2  A    between atoms: C_4  and  O_5
REMARK    3  A    between atoms: C_9  and  C_11
REMARK                            x       y       z     vdW  Elec       q    Type
REMARK                         _______ _______ _______ _____ _____    ______ ____
ROOT
ATOM      1  C   LIG A   1      -6.130   4.912 119.430  0.00  0.00    +0.124 A 
ATOM      2  C   LIG A   1      -7.457   4.549 119.231  0.00  0.00    +0.091 A 
ATOM      3  C   LIG A   1      -8.143   3.878 120.249  0.00  0.00    +0.134 A 
ATOM      4  C   LIG A   1      -7.506   3.579 121.462  0.00  0.00    +0.101 A 
ATOM      5  C   LIG A   1      -8.158   2.820 122.563  0.00  0.00    +0.174 C 
ATOM      6  C   LIG A   1      -7.271   2.426 123.711  0.00  0.00    +0.129 C 
ATOM      7  C   LIG A   1      -6.284   3.554 123.950  0.00  0.00    +0.211 C 
ATOM      8  O   LIG A   1      -5.458   3.747 122.793  0.00  0.00    -0.483 OA
ATOM      9  O   LIG A   1      -9.335   2.477 122.539  0.00  0.00    -0.292 OA
ATOM     10  C   LIG A   1      -6.176   3.977 121.648  0.00  0.00    +0.139 A 
ATOM     11  C   LIG A   1      -5.483   4.628 120.626  0.00  0.00    +0.092 A 
ENDROOT
BRANCH   7  12
ATOM     12  C   LIG A   1      -5.401   3.244 125.145  0.00  0.00    -0.007 A 
ATOM     13  C   LIG A   1      -4.360   4.105 125.529  0.00  0.00    +0.007 A 
ATOM     14  C   LIG A   1      -3.540   3.790 126.614  0.00  0.00    +0.000 A 
ATOM     15  C   LIG A   1      -3.744   2.610 127.324  0.00  0.00    +0.000 A 
ATOM     16  C   LIG A   1      -4.768   1.742 126.950  0.00  0.00    +0.000 A 
ATOM     17  C   LIG A   1      -5.591   2.055 125.866  0.00  0.00    +0.007 A 
ENDBRANCH   7  12
BRANCH   1  18
ATOM     18  O   LIG A   1      -5.415   5.558 118.464  0.00  0.00    -0.506 OA
ATOM     19  H   LIG A   1      -5.962   6.257 118.069  0.00  0.00    +0.292 HD
ENDBRANCH   1  18
BRANCH   3  20
ATOM     20  O   LIG A   1      -9.441   3.511 120.033  0.00  0.00    -0.506 OA
ATOM     21  H   LIG A   1      -9.980   3.661 120.826  0.00  0.00    +0.292 HD
ENDBRANCH   3  20
TORSDOF 3
ENDMDL
MODEL 3
REMARK VINA RESULT:      -7.1      8.662      9.228
REMARK  Name = NuBBE_355
REMARK  3 active torsions:
REMARK  status: ('A' for Active; 'I' for Inactive)
REMARK    1  A    between atoms: O_1  and  C_2
REMARK    2  A    between atoms: C_4  and  O_5
REMARK    3  A    between atoms: C_9  and  C_11
REMARK                            x       y       z     vdW  Elec       q    Type
REMARK                         _______ _______ _______ _____ _____    ______ ____
ROOT
ATOM      1  C   LIG A   1      -8.610   2.509 124.071  0.00  0.00    +0.124 A 
ATOM      2  C   LIG A   1      -9.414   1.900 123.114  0.00  0.00    +0.091 A 
ATOM      3  C   LIG A   1      -9.602   0.515 123.159  0.00  0.00    +0.134 A 
ATOM      4  C   LIG A   1      -8.993  -0.256 124.162  0.00  0.00    +0.101 A 
ATOM      5  C   LIG A   1      -9.104  -1.738 124.235  0.00  0.00    +0.174 C 
ATOM      6  C   LIG A   1      -8.236  -2.417 125.257  0.00  0.00    +0.129 C 
ATOM      7  C   LIG A   1      -8.173  -1.526 126.485  0.00  0.00    +0.211 C 
ATOM      8  O   LIG A   1      -7.573  -0.265 126.156  0.00  0.00    -0.483 OA
ATOM      9  O   LIG A   1      -9.813  -2.397 123.483  0.00  0.00    -0.292 OA
ATOM     10  C   LIG A   1      -8.207   0.384 125.128  0.00  0.00    +0.139 A 
ATOM     11  C   LIG A   1      -8.002   1.764 125.073  0.00  0.00    +0.092 A 
ENDROOT
BRANCH   7  12
ATOM     12  C   LIG A   1      -7.364  -2.190 127.584  0.00  0.00    -0.007 A 
ATOM     13  C   LIG A   1      -7.980  -2.956 128.586  0.00  0.00    +0.007 A 
ATOM     14  C   LIG A   1      -7.222  -3.536 129.606  0.00  0.00    +0.000 A 
ATOM     15  C   LIG A   1      -5.842  -3.353 129.640  0.00  0.00    +0.000 A 
ATOM     16  C   LIG A   1      -5.218  -2.589 128.656  0.00  0.00    +0.000 A 
ATOM     17  C   LIG A   1      -5.973  -2.009 127.635  0.00  0.00    +0.007 A 
ENDBRANCH   7  12
BRANCH   1  18
ATOM     18  O   LIG A   1      -8.388   3.856 124.064  0.00  0.00    -0.506 OA
ATOM     19  H   LIG A   1      -8.727   4.235 123.237  0.00  0.00    +0.292 HD
ENDBRANCH   1  18
BRANCH   3  20
ATOM     20  O   LIG A   1     -10.380  -0.074 122.203  0.00  0.00    -0.506 OA
ATOM     21  H   LIG A   1     -11.012   0.561 121.832  0.00  0.00    +0.292 HD
ENDBRANCH   3  20
TORSDOF 3
ENDMDL
MODEL 4
REMARK VINA RESULT:      -7.0      2.183      6.269
REMARK  Name = NuBBE_355
REMARK  3 active torsions:
REMARK  status: ('A' for Active; 'I' for Inactive)
REMARK    1  A    between atoms: O_1  and  C_2
REMARK    2  A    between atoms: C_4  and  O_5
REMARK    3  A    between atoms: C_9  and  C_11
REMARK                            x       y       z     vdW  Elec       q    Type
REMARK                         _______ _______ _______ _____ _____    ______ ____
ROOT
ATOM      1  C   LIG A   1      -5.099   6.873 131.493  0.00  0.00    +0.124 A 
ATOM      2  C   LIG A   1      -5.220   6.073 132.624  0.00  0.00    +0.091 A 
ATOM      3  C   LIG A   1      -6.488   5.635 133.020  0.00  0.00    +0.134 A 
ATOM      4  C   LIG A   1      -7.628   5.991 132.284  0.00  0.00    +0.101 A 
ATOM      5  C   LIG A   1      -9.010   5.607 132.680  0.00  0.00    +0.174 C 
ATOM      6  C   LIG A   1     -10.123   6.231 131.886  0.00  0.00    +0.129 C 
ATOM      7  C   LIG A   1      -9.670   6.329 130.440  0.00  0.00    +0.211 C 
ATOM      8  O   LIG A   1      -8.517   7.177 130.335  0.00  0.00    -0.483 OA
ATOM      9  O   LIG A   1      -9.258   4.870 133.628  0.00  0.00    -0.292 OA
ATOM     10  C   LIG A   1      -7.477   6.778 131.135  0.00  0.00    +0.139 A 
ATOM     11  C   LIG A   1      -6.216   7.232 130.749  0.00  0.00    +0.092 A 
ENDROOT
BRANCH   7  12
ATOM     12  C   LIG A   1     -10.780   6.890 129.571  0.00  0.00    -0.007 A 
ATOM     13  C   LIG A   1     -10.577   8.020 128.762  0.00  0.00    +0.007 A 
ATOM     14  C   LIG A   1     -11.618   8.539 127.991  0.00  0.00    +0.000 A 
ATOM     15  C   LIG A   1     -12.876   7.941 128.021  0.00  0.00    +0.000 A 
ATOM     16  C   LIG A   1     -13.094   6.824 128.824  0.00  0.00    +0.000 A 
ATOM     17  C   LIG A   1     -12.054   6.302 129.596  0.00  0.00    +0.007 A 
ENDBRANCH   7  12
BRANCH   1  18
ATOM     18  O   LIG A   1      -3.885   7.333 131.072  0.00  0.00    -0.506 OA
ATOM     19  H   LIG A   1      -3.341   6.586 130.774  0.00  0.00    +0.292 HD
ENDBRANCH   1  18
BRANCH   3  20
ATOM     20  O   LIG A   1      -6.595   4.864 134.143  0.00  0.00    -0.506 OA
ATOM     21  H   LIG A   1      -6.280   5.344 134.924  0.00  0.00    +0.292 HD
ENDBRANCH   3  20
TORSDOF 3
ENDMDL
MODEL 5
REMARK VINA RESULT:      -6.8      8.084      9.911
REMARK  Name = NuBBE_355
REMARK  3 active torsions:
REMARK  status: ('A' for Active; 'I' for Inactive)
REMARK    1  A    between atoms: O_1  and  C_2
REMARK    2  A    between atoms: C_4  and  O_5
REMARK    3  A    between atoms: C_9  and  C_11
REMARK                            x       y       z     vdW  Elec       q    Type
REMARK                         _______ _______ _______ _____ _____    ______ ____
ROOT
ATOM      1  C   LIG A   1      -8.975  -1.477 124.283  0.00  0.00    +0.124 A 
ATOM      2  C   LIG A   1      -8.862  -1.252 125.651  0.00  0.00    +0.091 A 
ATOM      3  C   LIG A   1      -8.177  -0.120 126.104  0.00  0.00    +0.134 A 
ATOM      4  C   LIG A   1      -7.613   0.786 125.193  0.00  0.00    +0.101 A 
ATOM      5  C   LIG A   1      -6.824   1.978 125.607  0.00  0.00    +0.174 C 
ATOM      6  C   LIG A   1      -6.136   2.731 124.503  0.00  0.00    +0.129 C 
ATOM      7  C   LIG A   1      -7.046   2.717 123.288  0.00  0.00    +0.211 C 
ATOM      8  O   LIG A   1      -7.262   1.370 122.842  0.00  0.00    -0.483 OA
ATOM      9  O   LIG A   1      -6.683   2.318 126.776  0.00  0.00    -0.292 OA
ATOM     10  C   LIG A   1      -7.761   0.550 123.820  0.00  0.00    +0.139 A 
ATOM     11  C   LIG A   1      -8.426  -0.589 123.366  0.00  0.00    +0.092 A 
ENDROOT
BRANCH   7  12
ATOM     12  C   LIG A   1      -6.435   3.523 122.156  0.00  0.00    -0.007 A 
ATOM     13  C   LIG A   1      -5.232   4.228 122.325  0.00  0.00    +0.007 A 
ATOM     14  C   LIG A   1      -4.700   4.987 121.281  0.00  0.00    +0.000 A 
ATOM     15  C   LIG A   1      -5.364   5.057 120.059  0.00  0.00    +0.000 A 
ATOM     16  C   LIG A   1      -6.562   4.369 119.879  0.00  0.00    +0.000 A 
ATOM     17  C   LIG A   1      -7.096   3.608 120.921  0.00  0.00    +0.007 A 
ENDBRANCH   7  12
BRANCH   1  18
ATOM     18  O   LIG A   1      -9.624  -2.571 123.792  0.00  0.00    -0.506 OA
ATOM     19  H   LIG A   1     -10.221  -2.299 123.076  0.00  0.00    +0.292 HD
ENDBRANCH   1  18
BRANCH   3  20
ATOM     20  O   LIG A   1      -8.058   0.079 127.450  0.00  0.00    -0.506 OA
ATOM     21  H   LIG A   1      -7.536  -0.627 127.862  0.00  0.00    +0.292 HD
ENDBRANCH   3  20
TORSDOF 3
ENDMDL
MODEL 6
REMARK VINA RESULT:      -6.8      7.774      9.480
REMARK  Name = NuBBE_355
REMARK  3 active torsions:
REMARK  status: ('A' for Active; 'I' for Inactive)
REMARK    1  A    between atoms: O_1  and  C_2
REMARK    2  A    between atoms: C_4  and  O_5
REMARK    3  A    between atoms: C_9  and  C_11
REMARK                            x       y       z     vdW  Elec       q    Type
REMARK                         _______ _______ _______ _____ _____    ______ ____
ROOT
ATOM      1  C   LIG A   1      -4.030   2.748 126.580  0.00  0.00    +0.124 A 
ATOM      2  C   LIG A   1      -4.671   3.982 126.529  0.00  0.00    +0.091 A 
ATOM      3  C   LIG A   1      -5.987   4.050 126.061  0.00  0.00    +0.134 A 
ATOM      4  C   LIG A   1      -6.661   2.889 125.651  0.00  0.00    +0.101 A 
ATOM      5  C   LIG A   1      -8.039   2.899 125.091  0.00  0.00    +0.174 C 
ATOM      6  C   LIG A   1      -8.534   1.595 124.529  0.00  0.00    +0.129 C 
ATOM      7  C   LIG A   1      -7.999   0.475 125.403  0.00  0.00    +0.211 C 
ATOM      8  O   LIG A   1      -6.564   0.459 125.372  0.00  0.00    -0.483 OA
ATOM      9  O   LIG A   1      -8.734   3.907 125.029  0.00  0.00    -0.292 OA
ATOM     10  C   LIG A   1      -6.002   1.656 125.734  0.00  0.00    +0.139 A 
ATOM     11  C   LIG A   1      -4.682   1.587 126.182  0.00  0.00    +0.092 A 
ENDROOT
BRANCH   7  12
ATOM     12  C   LIG A   1      -8.521  -0.868 124.926  0.00  0.00    -0.007 A 
ATOM     13  C   LIG A   1      -8.999  -1.831 125.830  0.00  0.00    +0.007 A 
ATOM     14  C   LIG A   1      -9.449  -3.072 125.375  0.00  0.00    +0.000 A 
ATOM     15  C   LIG A   1      -9.421  -3.369 124.015  0.00  0.00    +0.000 A 
ATOM     16  C   LIG A   1      -8.942  -2.427 123.107  0.00  0.00    +0.000 A 
ATOM     17  C   LIG A   1      -8.493  -1.185 123.559  0.00  0.00    +0.007 A 
ENDBRANCH   7  12
BRANCH   1  18
ATOM     18  O   LIG A   1      -2.744   2.630 127.019  0.00  0.00    -0.506 OA
ATOM     19  H   LIG A   1      -2.731   2.640 127.990  0.00  0.00    +0.292 HD
ENDBRANCH   1  18
BRANCH   3  20
ATOM     20  O   LIG A   1      -6.599   5.270 126.000  0.00  0.00    -0.506 OA
ATOM     21  H   LIG A   1      -7.562   5.173 125.936  0.00  0.00    +0.292 HD
ENDBRANCH   3  20
TORSDOF 3
ENDMDL
MODEL 7
REMARK VINA RESULT:      -6.8      7.729      9.085
REMARK  Name = NuBBE_355
REMARK  3 active torsions:
REMARK  status: ('A' for Active; 'I' for Inactive)
REMARK    1  A    between atoms: O_1  and  C_2
REMARK    2  A    between atoms: C_4  and  O_5
REMARK    3  A    between atoms: C_9  and  C_11
REMARK                            x       y       z     vdW  Elec       q    Type
REMARK                         _______ _______ _______ _____ _____    ______ ____
ROOT
ATOM      1  C   LIG A   1      -5.870   4.212 123.496  0.00  0.00    +0.124 A 
ATOM      2  C   LIG A   1      -6.071   4.886 124.697  0.00  0.00    +0.091 A 
ATOM      3  C   LIG A   1      -6.813   4.271 125.710  0.00  0.00    +0.134 A 
ATOM      4  C   LIG A   1      -7.344   2.985 125.526  0.00  0.00    +0.101 A 
ATOM      5  C   LIG A   1      -8.189   2.297 126.540  0.00  0.00    +0.174 C 
ATOM      6  C   LIG A   1      -8.829   1.009 126.103  0.00  0.00    +0.129 C 
ATOM      7  C   LIG A   1      -7.848   0.279 125.204  0.00  0.00    +0.211 C 
ATOM      8  O   LIG A   1      -7.569   1.059 124.032  0.00  0.00    -0.483 OA
ATOM      9  O   LIG A   1      -8.410   2.756 127.655  0.00  0.00    -0.292 OA
ATOM     10  C   LIG A   1      -7.108   2.318 124.318  0.00  0.00    +0.139 A 
ATOM     11  C   LIG A   1      -6.385   2.938 123.297  0.00  0.00    +0.092 A 
ENDROOT
BRANCH   7  12
ATOM     12  C   LIG A   1      -8.411  -1.066 124.783  0.00  0.00    -0.007 A 
ATOM     13  C   LIG A   1      -8.881  -1.992 125.728  0.00  0.00    +0.007 A 
ATOM     14  C   LIG A   1      -9.369  -3.236 125.324  0.00  0.00    +0.000 A 
ATOM     15  C   LIG A   1      -9.388  -3.573 123.973  0.00  0.00    +0.000 A 
ATOM     16  C   LIG A   1      -8.918  -2.668 123.024  0.00  0.00    +0.000 A 
ATOM     17  C   LIG A   1      -8.430  -1.423 123.425  0.00  0.00    +0.007 A 
ENDBRANCH   7  12
BRANCH   1  18
ATOM     18  O   LIG A   1      -5.162   4.774 122.474  0.00  0.00    -0.506 OA
ATOM     19  H   LIG A   1      -4.214   4.613 122.609  0.00  0.00    +0.292 HD
ENDBRANCH   1  18
BRANCH   3  20
ATOM     20  O   LIG A   1      -7.018   4.950 126.877  0.00  0.00    -0.506 OA
ATOM     21  H   LIG A   1      -6.777   4.406 127.643  0.00  0.00    +0.292 HD
ENDBRANCH   3  20
TORSDOF 3
ENDMDL
MODEL 8
REMARK VINA RESULT:      -6.4      2.639      6.081
REMARK  Name = NuBBE_355
REMARK  3 active torsions:
REMARK  status: ('A' for Active; 'I' for Inactive)
REMARK    1  A    between atoms: O_1  and  C_2
REMARK    2  A    between atoms: C_4  and  O_5
REMARK    3  A    between atoms: C_9  and  C_11
REMARK                            x       y       z     vdW  Elec       q    Type
REMARK                         _______ _______ _______ _____ _____    ______ ____
ROOT
ATOM      1  C   LIG A   1      -7.337   3.165 129.239  0.00  0.00    +0.124 A 
ATOM      2  C   LIG A   1      -6.921   3.257 130.563  0.00  0.00    +0.091 A 
ATOM      3  C   LIG A   1      -7.532   4.188 131.409  0.00  0.00    +0.134 A 
ATOM      4  C   LIG A   1      -8.559   5.017 130.934  0.00  0.00    +0.101 A 
ATOM      5  C   LIG A   1      -9.213   6.066 131.764  0.00  0.00    +0.174 C 
ATOM      6  C   LIG A   1     -10.158   6.986 131.043  0.00  0.00    +0.129 C 
ATOM      7  C   LIG A   1     -10.898   6.173 129.997  0.00  0.00    +0.211 C 
ATOM      8  O   LIG A   1      -9.976   5.638 129.036  0.00  0.00    -0.483 OA
ATOM      9  O   LIG A   1      -8.974   6.226 132.956  0.00  0.00    -0.292 OA
ATOM     10  C   LIG A   1      -8.977   4.889 129.604  0.00  0.00    +0.139 A 
ATOM     11  C   LIG A   1      -8.355   3.975 128.752  0.00  0.00    +0.092 A 
ENDROOT
BRANCH   7  12
ATOM     12  C   LIG A   1     -11.920   7.034 129.278  0.00  0.00    -0.007 A 
ATOM     13  C   LIG A   1     -11.925   8.432 129.413  0.00  0.00    +0.007 A 
ATOM     14  C   LIG A   1     -12.891   9.206 128.767  0.00  0.00    +0.000 A 
ATOM     15  C   LIG A   1     -13.866   8.594 127.983  0.00  0.00    +0.000 A 
ATOM     16  C   LIG A   1     -13.878   7.208 127.846  0.00  0.00    +0.000 A 
ATOM     17  C   LIG A   1     -12.913   6.431 128.490  0.00  0.00    +0.007 A 
ENDBRANCH   7  12
BRANCH   1  18
ATOM     18  O   LIG A   1      -6.766   2.280 128.371  0.00  0.00    -0.506 OA
ATOM     19  H   LIG A   1      -7.139   2.410 127.484  0.00  0.00    +0.292 HD
ENDBRANCH   1  18
BRANCH   3  20
ATOM     20  O   LIG A   1      -7.102   4.280 132.702  0.00  0.00    -0.506 OA
ATOM     21  H   LIG A   1      -6.904   3.403 133.065  0.00  0.00    +0.292 HD
ENDBRANCH   3  20
TORSDOF 3
ENDMDL
MODEL 9
REMARK VINA RESULT:      -6.1     10.622     12.940
REMARK  Name = NuBBE_355
REMARK  3 active torsions:
REMARK  status: ('A' for Active; 'I' for Inactive)
REMARK    1  A    between atoms: O_1  and  C_2
REMARK    2  A    between atoms: C_4  and  O_5
REMARK    3  A    between atoms: C_9  and  C_11
REMARK                            x       y       z     vdW  Elec       q    Type
REMARK                         _______ _______ _______ _____ _____    ______ ____
ROOT
ATOM      1  C   LIG A   1      -5.184  -5.164 134.106  0.00  0.00    +0.124 A 
ATOM      2  C   LIG A   1      -3.966  -4.505 134.240  0.00  0.00    +0.091 A 
ATOM      3  C   LIG A   1      -3.503  -3.703 133.192  0.00  0.00    +0.134 A 
ATOM      4  C   LIG A   1      -4.258  -3.556 132.019  0.00  0.00    +0.101 A 
ATOM      5  C   LIG A   1      -3.798  -2.765 130.845  0.00  0.00    +0.174 C 
ATOM      6  C   LIG A   1      -4.642  -2.870 129.605  0.00  0.00    +0.129 C 
ATOM      7  C   LIG A   1      -6.096  -2.955 130.034  0.00  0.00    +0.211 C 
ATOM      8  O   LIG A   1      -6.316  -4.132 130.824  0.00  0.00    -0.483 OA
ATOM      9  O   LIG A   1      -2.768  -2.100 130.843  0.00  0.00    -0.292 OA
ATOM     10  C   LIG A   1      -5.492  -4.211 131.917  0.00  0.00    +0.139 A 
ATOM     11  C   LIG A   1      -5.947  -5.027 132.953  0.00  0.00    +0.092 A 
ENDROOT
BRANCH   7  12
ATOM     12  C   LIG A   1      -7.007  -2.994 128.821  0.00  0.00    -0.007 A 
ATOM     13  C   LIG A   1      -6.730  -2.236 127.671  0.00  0.00    +0.007 A 
ATOM     14  C   LIG A   1      -7.595  -2.263 126.575  0.00  0.00    +0.000 A 
ATOM     15  C   LIG A   1      -8.749  -3.042 126.616  0.00  0.00    +0.000 A 
ATOM     16  C   LIG A   1      -9.041  -3.793 127.752  0.00  0.00    +0.000 A 
ATOM     17  C   LIG A   1      -8.178  -3.769 128.849  0.00  0.00    +0.007 A 
ENDBRANCH   7  12
BRANCH   1  18
ATOM     18  O   LIG A   1      -5.674  -5.965 135.096  0.00  0.00    -0.506 OA
ATOM     19  H   LIG A   1      -4.956  -6.512 135.455  0.00  0.00    +0.292 HD
ENDBRANCH   1  18
BRANCH   3  20
ATOM     20  O   LIG A   1      -2.298  -3.076 133.330  0.00  0.00    -0.506 OA
ATOM     21  H   LIG A   1      -1.726  -3.553 133.951  0.00  0.00    +0.292 HD
ENDBRANCH   3  20
TORSDOF 3
ENDMDL
