MODEL 1
REMARK VINA RESULT:      -7.8      0.000      0.000
REMARK  Name = NuBBE_182
REMARK  17 active torsions:
REMARK  status: ('A' for Active; 'I' for Inactive)
REMARK    1  A    between atoms: O_1  and  C_2
REMARK    2  A    between atoms: C_4  and  C_5
REMARK    3  A    between atoms: C_8  and  C_9
REMARK    4  A    between atoms: C_8  and  C_27
REMARK    5  A    between atoms: C_9  and  C_10
REMARK    6  A    between atoms: C_10  and  C_11
REMARK    7  A    between atoms: C_12  and  C_13
REMARK    8  A    between atoms: C_12  and  C_14
REMARK    9  A    between atoms: C_14  and  C_15
REMARK   10  A    between atoms: C_15  and  C_16
REMARK   11  A    between atoms: C_17  and  C_18
REMARK   12  A    between atoms: C_17  and  C_21
REMARK   13  A    between atoms: C_18  and  O_19
REMARK   14  A    between atoms: C_21  and  C_22
REMARK   15  A    between atoms: C_22  and  C_23
REMARK   16  A    between atoms: C_24  and  C_25
REMARK   17  A    between atoms: C_24  and  C_26
REMARK                            x       y       z     vdW  Elec       q    Type
REMARK                         _______ _______ _______ _____ _____    ______ ____
ROOT
ATOM      1  C   LIG A   1      -7.700  -2.762 126.069  0.00  0.00    -0.028 C 
ATOM      2  C   LIG A   1      -7.887  -3.078 124.777  0.00  0.00    -0.076 C 
ATOM      3  C   LIG A   1      -9.186  -3.560 124.225  0.00  0.00    +0.038 C 
ENDROOT
BRANCH   1   4
ATOM      4  C   LIG A   1      -8.590  -2.861 127.282  0.00  0.00    +0.031 C 
BRANCH   4   5
ATOM      5  C   LIG A   1      -7.936  -3.542 128.520  0.00  0.00    +0.056 C 
BRANCH   5  12
ATOM      6  C   LIG A   1      -8.054   2.066 128.447  0.00  0.00    +0.118 A 
ATOM      7  C   LIG A   1      -7.208   1.671 127.445  0.00  0.00    +0.052 A 
ATOM      8  C   LIG A   1      -6.588   0.442 127.556  0.00  0.00    -0.005 A 
ATOM      9  C   LIG A   1      -5.484   0.161 126.601  0.00  0.00    +0.048 C 
ATOM     10  C   LIG A   1      -6.932  -0.433 128.598  0.00  0.00    +0.132 A 
ATOM     11  O   LIG A   1      -6.354  -1.670 128.580  0.00  0.00    -0.481 OA
ATOM     12  C   LIG A   1      -6.962  -2.690 129.399  0.00  0.00    +0.127 C 
ATOM     13  C   LIG A   1      -5.767  -3.538 129.857  0.00  0.00    +0.060 C 
ATOM     14  C   LIG A   1      -7.632  -2.177 130.653  0.00  0.00    +0.021 C 
ATOM     15  C   LIG A   1      -8.048  -0.909 130.757  0.00  0.00    +0.011 C 
ATOM     16  C   LIG A   1      -7.805  -0.034 129.610  0.00  0.00    +0.020 A 
ATOM     17  C   LIG A   1      -8.387   1.224 129.514  0.00  0.00    +0.057 A 
BRANCH   6  18
ATOM     18  O   LIG A   1      -8.458   3.360 128.359  0.00  0.00    -0.507 OA
ATOM     19  H   LIG A   1      -9.397   3.353 128.091  0.00  0.00    +0.292 HD
ENDBRANCH   6  18
ENDBRANCH   5  12
ENDBRANCH   4   5
ENDBRANCH   1   4
BRANCH   2  20
ATOM     20  C   LIG A   1      -6.732  -2.880 123.794  0.00  0.00    +0.034 C 
BRANCH  20  21
ATOM     21  C   LIG A   1      -6.923  -1.798 122.727  0.00  0.00    +0.032 C 
BRANCH  21  22
ATOM     22  C   LIG A   1      -6.929  -0.387 123.213  0.00  0.00    -0.016 C 
ATOM     23  C   LIG A   1      -7.918   0.443 123.506  0.00  0.00    +0.033 C 
BRANCH  23  24
ATOM     24  C   LIG A   1      -9.240   0.012 123.656  0.00  0.00    +0.333 C 
ATOM     25  O   LIG A   1      -9.990  -0.202 122.735  0.00  0.00    -0.245 OA
BRANCH  24  26
ATOM     26  O   LIG A   1      -9.824  -0.117 124.864  0.00  0.00    -0.477 OA
ATOM     27  H   LIG A   1      -9.200  -0.536 125.473  0.00  0.00    +0.295 HD
ENDBRANCH  24  26
ENDBRANCH  23  24
BRANCH  23  28
ATOM     28  C   LIG A   1      -7.612   1.856 123.881  0.00  0.00    +0.046 C 
BRANCH  28  29
ATOM     29  C   LIG A   1      -6.447   2.649 123.242  0.00  0.00    +0.032 C 
BRANCH  29  30
ATOM     30  C   LIG A   1      -6.886   3.183 121.920  0.00  0.00    -0.028 C 
ATOM     31  C   LIG A   1      -6.164   3.959 121.105  0.00  0.00    -0.080 C 
ATOM     32  C   LIG A   1      -4.816   4.526 121.441  0.00  0.00    +0.038 C 
ATOM     33  C   LIG A   1      -6.708   4.262 119.742  0.00  0.00    +0.038 C 
ENDBRANCH  29  30
ENDBRANCH  28  29
ENDBRANCH  23  28
ENDBRANCH  21  22
ENDBRANCH  20  21
ENDBRANCH   2  20
TORSDOF 12
ENDMDL
MODEL 2
REMARK VINA RESULT:      -7.7      5.384      9.035
REMARK  Name = NuBBE_182
REMARK  17 active torsions:
REMARK  status: ('A' for Active; 'I' for Inactive)
REMARK    1  A    between atoms: O_1  and  C_2
REMARK    2  A    between atoms: C_4  and  C_5
REMARK    3  A    between atoms: C_8  and  C_9
REMARK    4  A    between atoms: C_8  and  C_27
REMARK    5  A    between atoms: C_9  and  C_10
REMARK    6  A    between atoms: C_10  and  C_11
REMARK    7  A    between atoms: C_12  and  C_13
REMARK    8  A    between atoms: C_12  and  C_14
REMARK    9  A    between atoms: C_14  and  C_15
REMARK   10  A    between atoms: C_15  and  C_16
REMARK   11  A    between atoms: C_17  and  C_18
REMARK   12  A    between atoms: C_17  and  C_21
REMARK   13  A    between atoms: C_18  and  O_19
REMARK   14  A    between atoms: C_21  and  C_22
REMARK   15  A    between atoms: C_22  and  C_23
REMARK   16  A    between atoms: C_24  and  C_25
REMARK   17  A    between atoms: C_24  and  C_26
REMARK                            x       y       z     vdW  Elec       q    Type
REMARK                         _______ _______ _______ _____ _____    ______ ____
ROOT
ATOM      1  C   LIG A   1      -3.417   6.093 130.142  0.00  0.00    -0.028 C 
ATOM      2  C   LIG A   1      -3.486   6.006 131.481  0.00  0.00    -0.076 C 
ATOM      3  C   LIG A   1      -2.448   5.340 132.320  0.00  0.00    +0.038 C 
ENDROOT
BRANCH   1   4
ATOM      4  C   LIG A   1      -2.443   5.535 129.134  0.00  0.00    +0.031 C 
BRANCH   4   5
ATOM      5  C   LIG A   1      -2.986   5.454 127.677  0.00  0.00    +0.056 C 
BRANCH   5  12
ATOM      6  C   LIG A   1      -8.008   3.481 129.208  0.00  0.00    +0.118 A 
ATOM      7  C   LIG A   1      -7.112   3.070 130.157  0.00  0.00    +0.052 A 
ATOM      8  C   LIG A   1      -5.785   2.945 129.795  0.00  0.00    -0.005 A 
ATOM      9  C   LIG A   1      -4.891   2.247 130.758  0.00  0.00    +0.048 C 
ATOM     10  C   LIG A   1      -5.353   3.368 128.529  0.00  0.00    +0.132 A 
ATOM     11  O   LIG A   1      -4.011   3.312 128.285  0.00  0.00    -0.481 OA
ATOM     12  C   LIG A   1      -3.515   4.075 127.165  0.00  0.00    +0.127 C 
ATOM     13  C   LIG A   1      -2.358   3.216 126.634  0.00  0.00    +0.060 C 
ATOM     14  C   LIG A   1      -4.495   4.231 126.024  0.00  0.00    +0.021 C 
ATOM     15  C   LIG A   1      -5.815   4.112 126.212  0.00  0.00    +0.011 C 
ATOM     16  C   LIG A   1      -6.267   3.801 127.568  0.00  0.00    +0.020 A 
ATOM     17  C   LIG A   1      -7.607   3.878 127.927  0.00  0.00    +0.057 A 
BRANCH   6  18
ATOM     18  O   LIG A   1      -9.309   3.381 129.588  0.00  0.00    -0.507 OA
ATOM     19  H   LIG A   1      -9.561   4.236 129.988  0.00  0.00    +0.292 HD
ENDBRANCH   6  18
ENDBRANCH   5  12
ENDBRANCH   4   5
ENDBRANCH   1   4
BRANCH   2  20
ATOM     20  C   LIG A   1      -4.656   6.675 132.204  0.00  0.00    +0.034 C 
BRANCH  20  21
ATOM     21  C   LIG A   1      -5.990   5.924 132.182  0.00  0.00    +0.032 C 
BRANCH  21  22
ATOM     22  C   LIG A   1      -7.086   6.550 131.384  0.00  0.00    -0.016 C 
ATOM     23  C   LIG A   1      -8.399   6.388 131.407  0.00  0.00    +0.033 C 
BRANCH  23  24
ATOM     24  C   LIG A   1      -9.056   5.721 132.446  0.00  0.00    +0.333 C 
ATOM     25  O   LIG A   1      -9.167   4.523 132.518  0.00  0.00    -0.245 OA
BRANCH  24  26
ATOM     26  O   LIG A   1      -9.708   6.379 133.426  0.00  0.00    -0.477 OA
ATOM     27  H   LIG A   1      -9.248   7.211 133.608  0.00  0.00    +0.295 HD
ENDBRANCH  24  26
ENDBRANCH  23  24
BRANCH  23  28
ATOM     28  C   LIG A   1      -9.250   7.094 130.400  0.00  0.00    +0.046 C 
BRANCH  28  29
ATOM     29  C   LIG A   1     -10.651   6.578 129.994  0.00  0.00    +0.032 C 
BRANCH  29  30
ATOM     30  C   LIG A   1     -11.588   7.736 129.897  0.00  0.00    -0.028 C 
ATOM     31  C   LIG A   1     -11.851   8.445 128.795  0.00  0.00    -0.080 C 
ATOM     32  C   LIG A   1     -11.150   8.268 127.480  0.00  0.00    +0.038 C 
ATOM     33  C   LIG A   1     -12.945   9.467 128.849  0.00  0.00    +0.038 C 
ENDBRANCH  29  30
ENDBRANCH  28  29
ENDBRANCH  23  28
ENDBRANCH  21  22
ENDBRANCH  20  21
ENDBRANCH   2  20
TORSDOF 12
ENDMDL
MODEL 3
REMARK VINA RESULT:      -7.7      3.909      7.667
REMARK  Name = NuBBE_182
REMARK  17 active torsions:
REMARK  status: ('A' for Active; 'I' for Inactive)
REMARK    1  A    between atoms: O_1  and  C_2
REMARK    2  A    between atoms: C_4  and  C_5
REMARK    3  A    between atoms: C_8  and  C_9
REMARK    4  A    between atoms: C_8  and  C_27
REMARK    5  A    between atoms: C_9  and  C_10
REMARK    6  A    between atoms: C_10  and  C_11
REMARK    7  A    between atoms: C_12  and  C_13
REMARK    8  A    between atoms: C_12  and  C_14
REMARK    9  A    between atoms: C_14  and  C_15
REMARK   10  A    between atoms: C_15  and  C_16
REMARK   11  A    between atoms: C_17  and  C_18
REMARK   12  A    between atoms: C_17  and  C_21
REMARK   13  A    between atoms: C_18  and  O_19
REMARK   14  A    between atoms: C_21  and  C_22
REMARK   15  A    between atoms: C_22  and  C_23
REMARK   16  A    between atoms: C_24  and  C_25
REMARK   17  A    between atoms: C_24  and  C_26
REMARK                            x       y       z     vdW  Elec       q    Type
REMARK                         _______ _______ _______ _____ _____    ______ ____
ROOT
ATOM      1  C   LIG A   1      -8.387   1.242 129.378  0.00  0.00    -0.028 C 
ATOM      2  C   LIG A   1      -8.800   1.283 130.656  0.00  0.00    -0.076 C 
ATOM      3  C   LIG A   1      -8.781   0.103 131.568  0.00  0.00    +0.038 C 
ENDROOT
BRANCH   1   4
ATOM      4  C   LIG A   1      -7.912   0.115 128.497  0.00  0.00    +0.031 C 
BRANCH   4   5
ATOM      5  C   LIG A   1      -6.369  -0.096 128.478  0.00  0.00    +0.056 C 
BRANCH   5  12
ATOM      6  C   LIG A   1      -9.223  -2.920 124.561  0.00  0.00    +0.118 A 
ATOM      7  C   LIG A   1      -9.654  -3.378 125.777  0.00  0.00    +0.052 A 
ATOM      8  C   LIG A   1      -8.802  -3.270 126.858  0.00  0.00    -0.005 A 
ATOM      9  C   LIG A   1      -9.186  -4.010 128.090  0.00  0.00    +0.048 C 
ATOM     10  C   LIG A   1      -7.587  -2.578 126.736  0.00  0.00    +0.132 A 
ATOM     11  O   LIG A   1      -6.850  -2.422 127.875  0.00  0.00    -0.481 OA
ATOM     12  C   LIG A   1      -5.815  -1.417 127.854  0.00  0.00    +0.127 C 
ATOM     13  C   LIG A   1      -4.718  -2.017 128.746  0.00  0.00    +0.060 C 
ATOM     14  C   LIG A   1      -5.187  -1.185 126.498  0.00  0.00    +0.021 C 
ATOM     15  C   LIG A   1      -5.829  -1.500 125.365  0.00  0.00    +0.011 C 
ATOM     16  C   LIG A   1      -7.156  -2.100 125.499  0.00  0.00    +0.020 A 
ATOM     17  C   LIG A   1      -8.000  -2.256 124.407  0.00  0.00    +0.057 A 
BRANCH   6  18
ATOM     18  O   LIG A   1     -10.033  -3.249 123.520  0.00  0.00    -0.507 OA
ATOM     19  H   LIG A   1      -9.716  -2.755 122.740  0.00  0.00    +0.292 HD
ENDBRANCH   6  18
ENDBRANCH   5  12
ENDBRANCH   4   5
ENDBRANCH   1   4
BRANCH   2  20
ATOM     20  C   LIG A   1      -9.259   2.619 131.240  0.00  0.00    +0.034 C 
BRANCH  20  21
ATOM     21  C   LIG A   1      -9.389   3.786 130.256  0.00  0.00    +0.032 C 
BRANCH  21  22
ATOM     22  C   LIG A   1     -10.583   4.665 130.428  0.00  0.00    -0.016 C 
ATOM     23  C   LIG A   1     -10.810   5.704 131.216  0.00  0.00    +0.033 C 
BRANCH  23  24
ATOM     24  C   LIG A   1      -9.785   6.360 131.906  0.00  0.00    +0.333 C 
ATOM     25  O   LIG A   1      -8.892   6.969 131.371  0.00  0.00    -0.245 OA
BRANCH  24  26
ATOM     26  O   LIG A   1      -9.660   6.292 133.247  0.00  0.00    -0.477 OA
ATOM     27  H   LIG A   1      -9.867   5.392 133.538  0.00  0.00    +0.295 HD
ENDBRANCH  24  26
ENDBRANCH  23  24
BRANCH  23  28
ATOM     28  C   LIG A   1     -12.165   6.334 131.239  0.00  0.00    +0.046 C 
BRANCH  28  29
ATOM     29  C   LIG A   1     -12.460   7.688 130.550  0.00  0.00    +0.032 C 
BRANCH  29  30
ATOM     30  C   LIG A   1     -12.838   7.440 129.128  0.00  0.00    -0.028 C 
ATOM     31  C   LIG A   1     -12.025   7.526 128.071  0.00  0.00    -0.080 C 
ATOM     32  C   LIG A   1     -10.604   8.006 128.126  0.00  0.00    +0.038 C 
ATOM     33  C   LIG A   1     -12.539   7.080 126.737  0.00  0.00    +0.038 C 
ENDBRANCH  29  30
ENDBRANCH  28  29
ENDBRANCH  23  28
ENDBRANCH  21  22
ENDBRANCH  20  21
ENDBRANCH   2  20
TORSDOF 12
ENDMDL
MODEL 4
REMARK VINA RESULT:      -7.6      2.544      4.978
REMARK  Name = NuBBE_182
REMARK  17 active torsions:
REMARK  status: ('A' for Active; 'I' for Inactive)
REMARK    1  A    between atoms: O_1  and  C_2
REMARK    2  A    between atoms: C_4  and  C_5
REMARK    3  A    between atoms: C_8  and  C_9
REMARK    4  A    between atoms: C_8  and  C_27
REMARK    5  A    between atoms: C_9  and  C_10
REMARK    6  A    between atoms: C_10  and  C_11
REMARK    7  A    between atoms: C_12  and  C_13
REMARK    8  A    between atoms: C_12  and  C_14
REMARK    9  A    between atoms: C_14  and  C_15
REMARK   10  A    between atoms: C_15  and  C_16
REMARK   11  A    between atoms: C_17  and  C_18
REMARK   12  A    between atoms: C_17  and  C_21
REMARK   13  A    between atoms: C_18  and  O_19
REMARK   14  A    between atoms: C_21  and  C_22
REMARK   15  A    between atoms: C_22  and  C_23
REMARK   16  A    between atoms: C_24  and  C_25
REMARK   17  A    between atoms: C_24  and  C_26
REMARK                            x       y       z     vdW  Elec       q    Type
REMARK                         _______ _______ _______ _____ _____    ______ ____
ROOT
ATOM      1  C   LIG A   1      -7.847  -0.574 130.548  0.00  0.00    -0.028 C 
ATOM      2  C   LIG A   1      -8.535   0.570 130.698  0.00  0.00    -0.076 C 
ATOM      3  C   LIG A   1      -9.469   0.830 131.832  0.00  0.00    +0.038 C 
ENDROOT
BRANCH   1   4
ATOM      4  C   LIG A   1      -7.850  -1.872 131.316  0.00  0.00    +0.031 C 
BRANCH   4   5
ATOM      5  C   LIG A   1      -6.445  -2.511 131.524  0.00  0.00    +0.056 C 
BRANCH   5  12
ATOM      6  C   LIG A   1      -7.342  -1.593 126.064  0.00  0.00    +0.118 A 
ATOM      7  C   LIG A   1      -8.418  -2.297 126.532  0.00  0.00    +0.052 A 
ATOM      8  C   LIG A   1      -8.246  -3.093 127.647  0.00  0.00    -0.005 A 
ATOM      9  C   LIG A   1      -9.345  -4.042 127.968  0.00  0.00    +0.048 C 
ATOM     10  C   LIG A   1      -7.037  -3.064 128.358  0.00  0.00    +0.132 A 
ATOM     11  O   LIG A   1      -6.981  -3.798 129.508  0.00  0.00    -0.481 OA
ATOM     12  C   LIG A   1      -5.913  -3.493 130.430  0.00  0.00    +0.127 C 
ATOM     13  C   LIG A   1      -5.576  -4.858 131.049  0.00  0.00    +0.060 C 
ATOM     14  C   LIG A   1      -4.644  -2.988 129.782  0.00  0.00    +0.021 C 
ATOM     15  C   LIG A   1      -4.654  -2.422 128.569  0.00  0.00    +0.011 C 
ATOM     16  C   LIG A   1      -5.945  -2.335 127.887  0.00  0.00    +0.020 A 
ATOM     17  C   LIG A   1      -6.115  -1.574 126.738  0.00  0.00    +0.057 A 
BRANCH   6  18
ATOM     18  O   LIG A   1      -7.543  -1.001 124.857  0.00  0.00    -0.507 OA
ATOM     19  H   LIG A   1      -7.935  -0.123 125.027  0.00  0.00    +0.292 HD
ENDBRANCH   6  18
ENDBRANCH   5  12
ENDBRANCH   4   5
ENDBRANCH   1   4
BRANCH   2  20
ATOM     20  C   LIG A   1      -8.311   1.702 129.694  0.00  0.00    +0.034 C 
BRANCH  20  21
ATOM     21  C   LIG A   1      -8.289   1.306 128.215  0.00  0.00    +0.032 C 
BRANCH  21  22
ATOM     22  C   LIG A   1      -7.270   1.991 127.365  0.00  0.00    -0.016 C 
ATOM     23  C   LIG A   1      -7.288   2.374 126.098  0.00  0.00    +0.033 C 
BRANCH  23  24
ATOM     24  C   LIG A   1      -8.466   2.423 125.346  0.00  0.00    +0.333 C 
ATOM     25  O   LIG A   1      -8.985   1.460 124.837  0.00  0.00    -0.245 OA
BRANCH  24  26
ATOM     26  O   LIG A   1      -9.083   3.585 125.047  0.00  0.00    -0.477 OA
ATOM     27  H   LIG A   1      -9.316   4.039 125.869  0.00  0.00    +0.295 HD
ENDBRANCH  24  26
ENDBRANCH  23  24
BRANCH  23  28
ATOM     28  C   LIG A   1      -6.058   2.957 125.483  0.00  0.00    +0.046 C 
BRANCH  28  29
ATOM     29  C   LIG A   1      -5.206   4.034 126.197  0.00  0.00    +0.032 C 
BRANCH  29  30
ATOM     30  C   LIG A   1      -3.761   3.688 126.054  0.00  0.00    -0.028 C 
ATOM     31  C   LIG A   1      -2.912   3.431 127.054  0.00  0.00    -0.080 C 
ATOM     32  C   LIG A   1      -3.244   3.563 128.511  0.00  0.00    +0.038 C 
ATOM     33  C   LIG A   1      -1.538   2.939 126.713  0.00  0.00    +0.038 C 
ENDBRANCH  29  30
ENDBRANCH  28  29
ENDBRANCH  23  28
ENDBRANCH  21  22
ENDBRANCH  20  21
ENDBRANCH   2  20
TORSDOF 12
ENDMDL
MODEL 5
REMARK VINA RESULT:      -7.6      2.855      6.327
REMARK  Name = NuBBE_182
REMARK  17 active torsions:
REMARK  status: ('A' for Active; 'I' for Inactive)
REMARK    1  A    between atoms: O_1  and  C_2
REMARK    2  A    between atoms: C_4  and  C_5
REMARK    3  A    between atoms: C_8  and  C_9
REMARK    4  A    between atoms: C_8  and  C_27
REMARK    5  A    between atoms: C_9  and  C_10
REMARK    6  A    between atoms: C_10  and  C_11
REMARK    7  A    between atoms: C_12  and  C_13
REMARK    8  A    between atoms: C_12  and  C_14
REMARK    9  A    between atoms: C_14  and  C_15
REMARK   10  A    between atoms: C_15  and  C_16
REMARK   11  A    between atoms: C_17  and  C_18
REMARK   12  A    between atoms: C_17  and  C_21
REMARK   13  A    between atoms: C_18  and  O_19
REMARK   14  A    between atoms: C_21  and  C_22
REMARK   15  A    between atoms: C_22  and  C_23
REMARK   16  A    between atoms: C_24  and  C_25
REMARK   17  A    between atoms: C_24  and  C_26
REMARK                            x       y       z     vdW  Elec       q    Type
REMARK                         _______ _______ _______ _____ _____    ______ ____
ROOT
ATOM      1  C   LIG A   1      -7.934  -1.300 127.580  0.00  0.00    -0.028 C 
ATOM      2  C   LIG A   1      -6.861  -0.680 128.098  0.00  0.00    -0.076 C 
ATOM      3  C   LIG A   1      -5.491  -1.270 128.108  0.00  0.00    +0.038 C 
ENDROOT
BRANCH   1   4
ATOM      4  C   LIG A   1      -8.131  -2.674 126.991  0.00  0.00    +0.031 C 
BRANCH   4   5
ATOM      5  C   LIG A   1      -9.183  -2.749 125.844  0.00  0.00    +0.056 C 
BRANCH   5  12
ATOM      6  C   LIG A   1      -7.305   2.438 124.827  0.00  0.00    +0.118 A 
ATOM      7  C   LIG A   1      -8.667   2.473 124.694  0.00  0.00    +0.052 A 
ATOM      8  C   LIG A   1      -9.325   1.303 124.369  0.00  0.00    -0.005 A 
ATOM      9  C   LIG A   1     -10.752   1.426 123.971  0.00  0.00    +0.048 C 
ATOM     10  C   LIG A   1      -8.625   0.087 124.320  0.00  0.00    +0.132 A 
ATOM     11  O   LIG A   1      -9.363  -1.040 124.097  0.00  0.00    -0.481 OA
ATOM     12  C   LIG A   1      -8.743  -2.304 124.412  0.00  0.00    +0.127 C 
ATOM     13  C   LIG A   1      -9.315  -3.255 123.351  0.00  0.00    +0.060 C 
ATOM     14  C   LIG A   1      -7.240  -2.327 124.246  0.00  0.00    +0.021 C 
ATOM     15  C   LIG A   1      -6.512  -1.204 124.285  0.00  0.00    +0.011 C 
ATOM     16  C   LIG A   1      -7.239   0.051 124.470  0.00  0.00    +0.020 A 
ATOM     17  C   LIG A   1      -6.581   1.242 124.750  0.00  0.00    +0.057 A 
BRANCH   6  18
ATOM     18  O   LIG A   1      -6.723   3.660 124.945  0.00  0.00    -0.507 OA
ATOM     19  H   LIG A   1      -6.495   3.960 124.043  0.00  0.00    +0.292 HD
ENDBRANCH   6  18
ENDBRANCH   5  12
ENDBRANCH   4   5
ENDBRANCH   1   4
BRANCH   2  20
ATOM     20  C   LIG A   1      -7.024   0.735 128.656  0.00  0.00    +0.034 C 
BRANCH  20  21
ATOM     21  C   LIG A   1      -8.280   1.497 128.225  0.00  0.00    +0.032 C 
BRANCH  21  22
ATOM     22  C   LIG A   1      -8.715   2.611 129.118  0.00  0.00    -0.016 C 
ATOM     23  C   LIG A   1      -8.464   3.911 129.098  0.00  0.00    +0.033 C 
BRANCH  23  24
ATOM     24  C   LIG A   1      -7.895   4.548 127.990  0.00  0.00    +0.333 C 
ATOM     25  O   LIG A   1      -6.716   4.771 127.869  0.00  0.00    -0.245 OA
BRANCH  24  26
ATOM     26  O   LIG A   1      -8.642   5.054 126.988  0.00  0.00    -0.477 OA
ATOM     27  H   LIG A   1      -8.830   4.353 126.348  0.00  0.00    +0.295 HD
ENDBRANCH  24  26
ENDBRANCH  23  24
BRANCH  23  28
ATOM     28  C   LIG A   1      -8.967   4.780 130.204  0.00  0.00    +0.046 C 
BRANCH  28  29
ATOM     29  C   LIG A   1      -9.375   6.255 129.978  0.00  0.00    +0.032 C 
BRANCH  29  30
ATOM     30  C   LIG A   1     -10.831   6.315 129.656  0.00  0.00    -0.028 C 
ATOM     31  C   LIG A   1     -11.392   7.038 128.682  0.00  0.00    -0.080 C 
ATOM     32  C   LIG A   1     -10.655   8.014 127.812  0.00  0.00    +0.038 C 
ATOM     33  C   LIG A   1     -12.851   6.846 128.401  0.00  0.00    +0.038 C 
ENDBRANCH  29  30
ENDBRANCH  28  29
ENDBRANCH  23  28
ENDBRANCH  21  22
ENDBRANCH  20  21
ENDBRANCH   2  20
TORSDOF 12
ENDMDL
MODEL 6
REMARK VINA RESULT:      -7.6      4.020      7.898
REMARK  Name = NuBBE_182
REMARK  17 active torsions:
REMARK  status: ('A' for Active; 'I' for Inactive)
REMARK    1  A    between atoms: O_1  and  C_2
REMARK    2  A    between atoms: C_4  and  C_5
REMARK    3  A    between atoms: C_8  and  C_9
REMARK    4  A    between atoms: C_8  and  C_27
REMARK    5  A    between atoms: C_9  and  C_10
REMARK    6  A    between atoms: C_10  and  C_11
REMARK    7  A    between atoms: C_12  and  C_13
REMARK    8  A    between atoms: C_12  and  C_14
REMARK    9  A    between atoms: C_14  and  C_15
REMARK   10  A    between atoms: C_15  and  C_16
REMARK   11  A    between atoms: C_17  and  C_18
REMARK   12  A    between atoms: C_17  and  C_21
REMARK   13  A    between atoms: C_18  and  O_19
REMARK   14  A    between atoms: C_21  and  C_22
REMARK   15  A    between atoms: C_22  and  C_23
REMARK   16  A    between atoms: C_24  and  C_25
REMARK   17  A    between atoms: C_24  and  C_26
REMARK                            x       y       z     vdW  Elec       q    Type
REMARK                         _______ _______ _______ _____ _____    ______ ____
ROOT
ATOM      1  C   LIG A   1      -8.392   2.259 130.339  0.00  0.00    -0.028 C 
ATOM      2  C   LIG A   1      -8.852   1.571 131.398  0.00  0.00    -0.076 C 
ATOM      3  C   LIG A   1      -9.765   2.149 132.426  0.00  0.00    +0.038 C 
ENDROOT
BRANCH   1   4
ATOM      4  C   LIG A   1      -8.538   3.700 129.920  0.00  0.00    +0.031 C 
BRANCH   4   5
ATOM      5  C   LIG A   1      -7.239   4.550 130.039  0.00  0.00    +0.056 C 
BRANCH   5  12
ATOM      6  C   LIG A   1     -12.136   6.937 131.377  0.00  0.00    +0.118 A 
ATOM      7  C   LIG A   1     -11.784   7.413 130.143  0.00  0.00    +0.052 A 
ATOM      8  C   LIG A   1     -10.446   7.428 129.803  0.00  0.00    -0.005 A 
ATOM      9  C   LIG A   1     -10.074   8.190 128.581  0.00  0.00    +0.048 C 
ATOM     10  C   LIG A   1      -9.494   6.837 130.648  0.00  0.00    +0.132 A 
ATOM     11  O   LIG A   1      -8.207   6.797 130.194  0.00  0.00    -0.481 OA
ATOM     12  C   LIG A   1      -7.306   5.884 130.853  0.00  0.00    +0.127 C 
ATOM     13  C   LIG A   1      -5.956   6.615 130.802  0.00  0.00    +0.060 C 
ATOM     14  C   LIG A   1      -7.609   5.642 132.315  0.00  0.00    +0.021 C 
ATOM     15  C   LIG A   1      -8.832   5.848 132.820  0.00  0.00    +0.011 C 
ATOM     16  C   LIG A   1      -9.857   6.339 131.899  0.00  0.00    +0.020 A 
ATOM     17  C   LIG A   1     -11.200   6.372 132.252  0.00  0.00    +0.057 A 
BRANCH   6  18
ATOM     18  O   LIG A   1     -13.438   7.146 131.706  0.00  0.00    -0.507 OA
ATOM     19  H   LIG A   1     -13.772   7.859 131.127  0.00  0.00    +0.292 HD
ENDBRANCH   6  18
ENDBRANCH   5  12
ENDBRANCH   4   5
ENDBRANCH   1   4
BRANCH   2  20
ATOM     20  C   LIG A   1      -8.475   0.095 131.539  0.00  0.00    +0.034 C 
BRANCH  20  21
ATOM     21  C   LIG A   1      -7.582  -0.488 130.440  0.00  0.00    +0.032 C 
BRANCH  21  22
ATOM     22  C   LIG A   1      -8.140  -1.646 129.682  0.00  0.00    -0.016 C 
ATOM     23  C   LIG A   1      -7.559  -2.615 128.993  0.00  0.00    +0.033 C 
BRANCH  23  24
ATOM     24  C   LIG A   1      -6.187  -2.875 129.074  0.00  0.00    +0.333 C 
ATOM     25  O   LIG A   1      -5.346  -2.265 128.462  0.00  0.00    -0.245 OA
BRANCH  24  26
ATOM     26  O   LIG A   1      -5.690  -3.906 129.787  0.00  0.00    -0.477 OA
ATOM     27  H   LIG A   1      -5.182  -4.482 129.198  0.00  0.00    +0.295 HD
ENDBRANCH  24  26
ENDBRANCH  23  24
BRANCH  23  28
ATOM     28  C   LIG A   1      -8.399  -3.598 128.244  0.00  0.00    +0.046 C 
BRANCH  28  29
ATOM     29  C   LIG A   1      -9.035  -3.268 126.872  0.00  0.00    +0.032 C 
BRANCH  29  30
ATOM     30  C   LIG A   1      -7.951  -3.069 125.866  0.00  0.00    -0.028 C 
ATOM     31  C   LIG A   1      -8.096  -3.093 124.538  0.00  0.00    -0.080 C 
ATOM     32  C   LIG A   1      -9.370  -3.444 123.825  0.00  0.00    +0.038 C 
ATOM     33  C   LIG A   1      -6.926  -2.708 123.685  0.00  0.00    +0.038 C 
ENDBRANCH  29  30
ENDBRANCH  28  29
ENDBRANCH  23  28
ENDBRANCH  21  22
ENDBRANCH  20  21
ENDBRANCH   2  20
TORSDOF 12
ENDMDL
MODEL 7
REMARK VINA RESULT:      -7.5      2.994      7.320
REMARK  Name = NuBBE_182
REMARK  17 active torsions:
REMARK  status: ('A' for Active; 'I' for Inactive)
REMARK    1  A    between atoms: O_1  and  C_2
REMARK    2  A    between atoms: C_4  and  C_5
REMARK    3  A    between atoms: C_8  and  C_9
REMARK    4  A    between atoms: C_8  and  C_27
REMARK    5  A    between atoms: C_9  and  C_10
REMARK    6  A    between atoms: C_10  and  C_11
REMARK    7  A    between atoms: C_12  and  C_13
REMARK    8  A    between atoms: C_12  and  C_14
REMARK    9  A    between atoms: C_14  and  C_15
REMARK   10  A    between atoms: C_15  and  C_16
REMARK   11  A    between atoms: C_17  and  C_18
REMARK   12  A    between atoms: C_17  and  C_21
REMARK   13  A    between atoms: C_18  and  O_19
REMARK   14  A    between atoms: C_21  and  C_22
REMARK   15  A    between atoms: C_22  and  C_23
REMARK   16  A    between atoms: C_24  and  C_25
REMARK   17  A    between atoms: C_24  and  C_26
REMARK                            x       y       z     vdW  Elec       q    Type
REMARK                         _______ _______ _______ _____ _____    ______ ____
ROOT
ATOM      1  C   LIG A   1      -8.285  -2.419 128.201  0.00  0.00    -0.028 C 
ATOM      2  C   LIG A   1      -7.190  -2.036 128.880  0.00  0.00    -0.076 C 
ATOM      3  C   LIG A   1      -5.866  -2.713 128.762  0.00  0.00    +0.038 C 
ENDROOT
BRANCH   1   4
ATOM      4  C   LIG A   1      -8.555  -3.578 127.275  0.00  0.00    +0.031 C 
BRANCH   4   5
ATOM      5  C   LIG A   1      -9.433  -3.234 126.036  0.00  0.00    +0.056 C 
BRANCH   5  12
ATOM      6  C   LIG A   1      -5.344   0.606 126.087  0.00  0.00    +0.118 A 
ATOM      7  C   LIG A   1      -6.527   1.284 125.964  0.00  0.00    +0.052 A 
ATOM      8  C   LIG A   1      -7.606   0.625 125.410  0.00  0.00    -0.005 A 
ATOM      9  C   LIG A   1      -8.784   1.457 125.045  0.00  0.00    +0.048 C 
ATOM     10  C   LIG A   1      -7.525  -0.745 125.116  0.00  0.00    +0.132 A 
ATOM     11  O   LIG A   1      -8.665  -1.348 124.670  0.00  0.00    -0.481 OA
ATOM     12  C   LIG A   1      -8.709  -2.789 124.723  0.00  0.00    +0.127 C 
ATOM     13  C   LIG A   1      -9.547  -3.165 123.492  0.00  0.00    +0.060 C 
ATOM     14  C   LIG A   1      -7.368  -3.468 124.556  0.00  0.00    +0.021 C 
ATOM     15  C   LIG A   1      -6.222  -2.830 124.820  0.00  0.00    +0.011 C 
ATOM     16  C   LIG A   1      -6.322  -1.437 125.255  0.00  0.00    +0.020 A 
ATOM     17  C   LIG A   1      -5.228  -0.752 125.770  0.00  0.00    +0.057 A 
BRANCH   6  18
ATOM     18  O   LIG A   1      -4.289   1.383 126.449  0.00  0.00    -0.507 OA
ATOM     19  H   LIG A   1      -4.652   2.230 126.774  0.00  0.00    +0.292 HD
ENDBRANCH   6  18
ENDBRANCH   5  12
ENDBRANCH   4   5
ENDBRANCH   1   4
BRANCH   2  20
ATOM     20  C   LIG A   1      -7.274  -0.802 129.780  0.00  0.00    +0.034 C 
BRANCH  20  21
ATOM     21  C   LIG A   1      -8.184  -0.915 131.007  0.00  0.00    +0.032 C 
BRANCH  21  22
ATOM     22  C   LIG A   1      -8.852   0.344 131.451  0.00  0.00    -0.016 C 
ATOM     23  C   LIG A   1      -8.494   1.277 132.319  0.00  0.00    +0.033 C 
BRANCH  23  24
ATOM     24  C   LIG A   1      -7.195   1.368 132.830  0.00  0.00    +0.333 C 
ATOM     25  O   LIG A   1      -6.265   1.846 132.231  0.00  0.00    -0.245 OA
BRANCH  24  26
ATOM     26  O   LIG A   1      -6.851   0.839 134.022  0.00  0.00    -0.477 OA
ATOM     27  H   LIG A   1      -7.004   1.496 134.715  0.00  0.00    +0.295 HD
ENDBRANCH  24  26
ENDBRANCH  23  24
BRANCH  23  28
ATOM     28  C   LIG A   1      -9.434   2.395 132.634  0.00  0.00    +0.046 C 
BRANCH  28  29
ATOM     29  C   LIG A   1      -8.995   3.646 133.432  0.00  0.00    +0.032 C 
BRANCH  29  30
ATOM     30  C   LIG A   1      -8.437   4.658 132.487  0.00  0.00    -0.028 C 
ATOM     31  C   LIG A   1      -9.065   5.753 132.047  0.00  0.00    -0.080 C 
ATOM     32  C   LIG A   1     -10.497   6.092 132.342  0.00  0.00    +0.038 C 
ATOM     33  C   LIG A   1      -8.288   6.740 131.231  0.00  0.00    +0.038 C 
ENDBRANCH  29  30
ENDBRANCH  28  29
ENDBRANCH  23  28
ENDBRANCH  21  22
ENDBRANCH  20  21
ENDBRANCH   2  20
TORSDOF 12
ENDMDL
MODEL 8
REMARK VINA RESULT:      -7.5      2.240      5.687
REMARK  Name = NuBBE_182
REMARK  17 active torsions:
REMARK  status: ('A' for Active; 'I' for Inactive)
REMARK    1  A    between atoms: O_1  and  C_2
REMARK    2  A    between atoms: C_4  and  C_5
REMARK    3  A    between atoms: C_8  and  C_9
REMARK    4  A    between atoms: C_8  and  C_27
REMARK    5  A    between atoms: C_9  and  C_10
REMARK    6  A    between atoms: C_10  and  C_11
REMARK    7  A    between atoms: C_12  and  C_13
REMARK    8  A    between atoms: C_12  and  C_14
REMARK    9  A    between atoms: C_14  and  C_15
REMARK   10  A    between atoms: C_15  and  C_16
REMARK   11  A    between atoms: C_17  and  C_18
REMARK   12  A    between atoms: C_17  and  C_21
REMARK   13  A    between atoms: C_18  and  O_19
REMARK   14  A    between atoms: C_21  and  C_22
REMARK   15  A    between atoms: C_22  and  C_23
REMARK   16  A    between atoms: C_24  and  C_25
REMARK   17  A    between atoms: C_24  and  C_26
REMARK                            x       y       z     vdW  Elec       q    Type
REMARK                         _______ _______ _______ _____ _____    ______ ____
ROOT
ATOM      1  C   LIG A   1      -8.408  -2.796 128.693  0.00  0.00    -0.028 C 
ATOM      2  C   LIG A   1      -7.335  -2.581 129.473  0.00  0.00    -0.076 C 
ATOM      3  C   LIG A   1      -5.948  -2.985 129.099  0.00  0.00    +0.038 C 
ENDROOT
BRANCH   1   4
ATOM      4  C   LIG A   1      -8.585  -3.515 127.380  0.00  0.00    +0.031 C 
BRANCH   4   5
ATOM      5  C   LIG A   1      -9.019  -2.607 126.191  0.00  0.00    +0.056 C 
BRANCH   5  12
ATOM      6  C   LIG A   1      -8.303   2.611 124.261  0.00  0.00    +0.118 A 
ATOM      7  C   LIG A   1      -9.284   2.035 123.499  0.00  0.00    +0.052 A 
ATOM      8  C   LIG A   1      -9.303   0.658 123.385  0.00  0.00    -0.005 A 
ATOM      9  C   LIG A   1     -10.202   0.085 122.349  0.00  0.00    +0.048 C 
ATOM     10  C   LIG A   1      -8.424  -0.127 124.147  0.00  0.00    +0.132 A 
ATOM     11  O   LIG A   1      -8.575  -1.481 124.059  0.00  0.00    -0.481 OA
ATOM     12  C   LIG A   1      -7.957  -2.279 125.091  0.00  0.00    +0.127 C 
ATOM     13  C   LIG A   1      -7.536  -3.556 124.350  0.00  0.00    +0.060 C 
ATOM     14  C   LIG A   1      -6.696  -1.685 125.677  0.00  0.00    +0.021 C 
ATOM     15  C   LIG A   1      -6.445  -0.372 125.615  0.00  0.00    +0.011 C 
ATOM     16  C   LIG A   1      -7.434   0.462 124.933  0.00  0.00    +0.020 A 
ATOM     17  C   LIG A   1      -7.394   1.849 125.004  0.00  0.00    +0.057 A 
BRANCH   6  18
ATOM     18  O   LIG A   1      -8.235   3.964 124.154  0.00  0.00    -0.507 OA
ATOM     19  H   LIG A   1      -8.851   4.337 124.814  0.00  0.00    +0.292 HD
ENDBRANCH   6  18
ENDBRANCH   5  12
ENDBRANCH   4   5
ENDBRANCH   1   4
BRANCH   2  20
ATOM     20  C   LIG A   1      -7.519  -1.829 130.791  0.00  0.00    +0.034 C 
BRANCH  20  21
ATOM     21  C   LIG A   1      -7.841  -0.335 130.684  0.00  0.00    +0.032 C 
BRANCH  21  22
ATOM     22  C   LIG A   1      -6.876   0.493 129.902  0.00  0.00    -0.016 C 
ATOM     23  C   LIG A   1      -7.054   1.490 129.050  0.00  0.00    +0.033 C 
BRANCH  23  24
ATOM     24  C   LIG A   1      -8.278   2.155 128.917  0.00  0.00    +0.333 C 
ATOM     25  O   LIG A   1      -8.730   2.910 129.741  0.00  0.00    -0.245 OA
BRANCH  24  26
ATOM     26  O   LIG A   1      -9.109   1.933 127.879  0.00  0.00    -0.477 OA
ATOM     27  H   LIG A   1      -9.667   1.168 128.079  0.00  0.00    +0.295 HD
ENDBRANCH  24  26
ENDBRANCH  23  24
BRANCH  23  28
ATOM     28  C   LIG A   1      -5.878   2.070 128.333  0.00  0.00    +0.046 C 
BRANCH  28  29
ATOM     29  C   LIG A   1      -4.432   1.934 128.868  0.00  0.00    +0.032 C 
BRANCH  29  30
ATOM     30  C   LIG A   1      -3.813   3.289 128.951  0.00  0.00    -0.028 C 
ATOM     31  C   LIG A   1      -2.927   3.803 128.092  0.00  0.00    -0.080 C 
ATOM     32  C   LIG A   1      -2.310   3.049 126.950  0.00  0.00    +0.038 C 
ATOM     33  C   LIG A   1      -2.539   5.242 128.243  0.00  0.00    +0.038 C 
ENDBRANCH  29  30
ENDBRANCH  28  29
ENDBRANCH  23  28
ENDBRANCH  21  22
ENDBRANCH  20  21
ENDBRANCH   2  20
TORSDOF 12
ENDMDL
MODEL 9
REMARK VINA RESULT:      -7.4      2.972      4.941
REMARK  Name = NuBBE_182
REMARK  17 active torsions:
REMARK  status: ('A' for Active; 'I' for Inactive)
REMARK    1  A    between atoms: O_1  and  C_2
REMARK    2  A    between atoms: C_4  and  C_5
REMARK    3  A    between atoms: C_8  and  C_9
REMARK    4  A    between atoms: C_8  and  C_27
REMARK    5  A    between atoms: C_9  and  C_10
REMARK    6  A    between atoms: C_10  and  C_11
REMARK    7  A    between atoms: C_12  and  C_13
REMARK    8  A    between atoms: C_12  and  C_14
REMARK    9  A    between atoms: C_14  and  C_15
REMARK   10  A    between atoms: C_15  and  C_16
REMARK   11  A    between atoms: C_17  and  C_18
REMARK   12  A    between atoms: C_17  and  C_21
REMARK   13  A    between atoms: C_18  and  O_19
REMARK   14  A    between atoms: C_21  and  C_22
REMARK   15  A    between atoms: C_22  and  C_23
REMARK   16  A    between atoms: C_24  and  C_25
REMARK   17  A    between atoms: C_24  and  C_26
REMARK                            x       y       z     vdW  Elec       q    Type
REMARK                         _______ _______ _______ _____ _____    ______ ____
ROOT
ATOM      1  C   LIG A   1      -8.058  -3.183 129.708  0.00  0.00    -0.028 C 
ATOM      2  C   LIG A   1      -8.000  -2.839 128.410  0.00  0.00    -0.076 C 
ATOM      3  C   LIG A   1      -7.234  -1.666 127.900  0.00  0.00    +0.038 C 
ENDROOT
BRANCH   1   4
ATOM      4  C   LIG A   1      -7.521  -2.533 130.958  0.00  0.00    +0.031 C 
BRANCH   4   5
ATOM      5  C   LIG A   1      -6.414  -3.344 131.693  0.00  0.00    +0.056 C 
BRANCH   5  12
ATOM      6  C   LIG A   1      -3.335   1.134 133.082  0.00  0.00    +0.118 A 
ATOM      7  C   LIG A   1      -4.014   1.455 131.937  0.00  0.00    +0.052 A 
ATOM      8  C   LIG A   1      -4.411   0.431 131.101  0.00  0.00    -0.005 A 
ATOM      9  C   LIG A   1      -4.901   0.820 129.752  0.00  0.00    +0.048 C 
ATOM     10  C   LIG A   1      -4.247  -0.907 131.492  0.00  0.00    +0.132 A 
ATOM     11  O   LIG A   1      -4.761  -1.859 130.659  0.00  0.00    -0.481 OA
ATOM     12  C   LIG A   1      -4.937  -3.183 131.206  0.00  0.00    +0.127 C 
ATOM     13  C   LIG A   1      -4.660  -4.103 130.009  0.00  0.00    +0.060 C 
ATOM     14  C   LIG A   1      -3.941  -3.561 132.279  0.00  0.00    +0.021 C 
ATOM     15  C   LIG A   1      -3.290  -2.631 132.990  0.00  0.00    +0.011 C 
ATOM     16  C   LIG A   1      -3.567  -1.232 132.665  0.00  0.00    +0.020 A 
ATOM     17  C   LIG A   1      -3.129  -0.193 133.477  0.00  0.00    +0.057 A 
BRANCH   6  18
ATOM     18  O   LIG A   1      -2.807   2.201 133.737  0.00  0.00    -0.507 OA
ATOM     19  H   LIG A   1      -2.309   1.853 134.502  0.00  0.00    +0.292 HD
ENDBRANCH   6  18
ENDBRANCH   5  12
ENDBRANCH   4   5
ENDBRANCH   1   4
BRANCH   2  20
ATOM     20  C   LIG A   1      -8.703  -3.726 127.381  0.00  0.00    +0.034 C 
BRANCH  20  21
ATOM     21  C   LIG A   1      -9.478  -3.003 126.275  0.00  0.00    +0.032 C 
BRANCH  21  22
ATOM     22  C   LIG A   1      -8.779  -2.862 124.963  0.00  0.00    -0.016 C 
ATOM     23  C   LIG A   1      -8.629  -1.831 124.147  0.00  0.00    +0.033 C 
BRANCH  23  24
ATOM     24  C   LIG A   1      -8.922  -0.519 124.534  0.00  0.00    +0.333 C 
ATOM     25  O   LIG A   1      -9.952   0.050 124.271  0.00  0.00    -0.245 OA
BRANCH  24  26
ATOM     26  O   LIG A   1      -8.025   0.263 125.168  0.00  0.00    -0.477 OA
ATOM     27  H   LIG A   1      -7.767   0.988 124.581  0.00  0.00    +0.295 HD
ENDBRANCH  24  26
ENDBRANCH  23  24
BRANCH  23  28
ATOM     28  C   LIG A   1      -7.949  -2.021 122.831  0.00  0.00    +0.046 C 
BRANCH  28  29
ATOM     29  C   LIG A   1      -6.489  -1.573 122.581  0.00  0.00    +0.032 C 
BRANCH  29  30
ATOM     30  C   LIG A   1      -5.593  -2.765 122.644  0.00  0.00    -0.028 C 
ATOM     31  C   LIG A   1      -5.068  -3.295 123.753  0.00  0.00    -0.080 C 
ATOM     32  C   LIG A   1      -5.198  -2.704 125.126  0.00  0.00    +0.038 C 
ATOM     33  C   LIG A   1      -4.326  -4.592 123.640  0.00  0.00    +0.038 C 
ENDBRANCH  29  30
ENDBRANCH  28  29
ENDBRANCH  23  28
ENDBRANCH  21  22
ENDBRANCH  20  21
ENDBRANCH   2  20
TORSDOF 12
ENDMDL
