MODEL 1
REMARK VINA RESULT:      -5.8      0.000      0.000
REMARK  Name = NuBBE_626
REMARK  8 active torsions:
REMARK  status: ('A' for Active; 'I' for Inactive)
REMARK    1  A    between atoms: C_2  and  O_3
REMARK    2  A    between atoms: C_2  and  C_7
REMARK    3  A    between atoms: O_3  and  C_4
REMARK    4  A    between atoms: C_4  and  C_5
REMARK    5  A    between atoms: C_5  and  C_6
REMARK    6  A    between atoms: C_9  and  O_10
REMARK    7  A    between atoms: C_11  and  O_12
REMARK    8  A    between atoms: C_13  and  O_14
REMARK                            x       y       z     vdW  Elec       q    Type
REMARK                         _______ _______ _______ _____ _____    ______ ____
ROOT
ATOM      1  C   LIG A   1     -10.974   6.939 129.874  0.00  0.00    +0.066 A 
ATOM      2  C   LIG A   1     -11.318   6.241 131.047  0.00  0.00    +0.064 A 
ATOM      3  C   LIG A   1     -10.334   5.968 131.989  0.00  0.00    +0.163 A 
ATOM      4  C   LIG A   1      -9.025   6.386 131.774  0.00  0.00    +0.201 A 
ATOM      5  C   LIG A   1      -8.692   7.091 130.626  0.00  0.00    +0.163 A 
ATOM      6  C   LIG A   1      -9.656   7.378 129.673  0.00  0.00    +0.064 A 
ENDROOT
BRANCH   1   8
ATOM      7  O   LIG A   1     -11.945   6.741 127.701  0.00  0.00    -0.245 OA
ATOM      8  C   LIG A   1     -12.026   7.154 128.850  0.00  0.00    +0.339 C 
BRANCH   8   9
ATOM      9  O   LIG A   1     -13.029   7.896 129.369  0.00  0.00    -0.461 OA
BRANCH   9  10
ATOM     10  C   LIG A   1     -13.108   9.257 128.931  0.00  0.00    +0.232 C 
BRANCH  10  11
ATOM     11  C   LIG A   1     -13.130  10.218 130.117  0.00  0.00    +0.038 C 
ATOM     12  C   LIG A   1     -13.795  11.551 129.800  0.00  0.00    +0.007 C 
ENDBRANCH  10  11
ENDBRANCH   9  10
ENDBRANCH   8   9
ENDBRANCH   1   8
BRANCH   3  13
ATOM     13  O   LIG A   1     -10.601   5.276 133.138  0.00  0.00    -0.503 OA
ATOM     14  H   LIG A   1     -10.624   5.907 133.879  0.00  0.00    +0.292 HD
ENDBRANCH   3  13
BRANCH   4  15
ATOM     15  O   LIG A   1      -8.045   6.103 132.685  0.00  0.00    -0.501 OA
ATOM     16  H   LIG A   1      -8.479   5.505 133.328  0.00  0.00    +0.292 HD
ENDBRANCH   4  15
BRANCH   5  17
ATOM     17  O   LIG A   1      -7.407   7.497 130.413  0.00  0.00    -0.503 OA
ATOM     18  H   LIG A   1      -7.343   7.626 129.446  0.00  0.00    +0.292 HD
ENDBRANCH   5  17
TORSDOF 7
ENDMDL
MODEL 2
REMARK VINA RESULT:      -5.6      1.819      2.376
REMARK  Name = NuBBE_626
REMARK  8 active torsions:
REMARK  status: ('A' for Active; 'I' for Inactive)
REMARK    1  A    between atoms: C_2  and  O_3
REMARK    2  A    between atoms: C_2  and  C_7
REMARK    3  A    between atoms: O_3  and  C_4
REMARK    4  A    between atoms: C_4  and  C_5
REMARK    5  A    between atoms: C_5  and  C_6
REMARK    6  A    between atoms: C_9  and  O_10
REMARK    7  A    between atoms: C_11  and  O_12
REMARK    8  A    between atoms: C_13  and  O_14
REMARK                            x       y       z     vdW  Elec       q    Type
REMARK                         _______ _______ _______ _____ _____    ______ ____
ROOT
ATOM      1  C   LIG A   1     -10.391   6.417 131.297  0.00  0.00    +0.066 A 
ATOM      2  C   LIG A   1     -10.205   5.800 132.548  0.00  0.00    +0.064 A 
ATOM      3  C   LIG A   1      -8.920   5.675 133.061  0.00  0.00    +0.163 A 
ATOM      4  C   LIG A   1      -7.831   6.162 132.345  0.00  0.00    +0.201 A 
ATOM      5  C   LIG A   1      -8.019   6.787 131.120  0.00  0.00    +0.163 A 
ATOM      6  C   LIG A   1      -9.291   6.926 130.588  0.00  0.00    +0.064 A 
ENDROOT
BRANCH   1   8
ATOM      7  O   LIG A   1     -12.750   6.777 131.394  0.00  0.00    -0.245 OA
ATOM      8  C   LIG A   1     -11.764   6.473 130.737  0.00  0.00    +0.339 C 
BRANCH   8   9
ATOM      9  O   LIG A   1     -11.747   6.100 129.438  0.00  0.00    -0.461 OA
BRANCH   9  10
ATOM     10  C   LIG A   1     -12.667   6.772 128.570  0.00  0.00    +0.232 C 
BRANCH  10  11
ATOM     11  C   LIG A   1     -12.177   8.176 128.226  0.00  0.00    +0.038 C 
ATOM     12  C   LIG A   1     -10.860   8.184 127.461  0.00  0.00    +0.007 C 
ENDBRANCH  10  11
ENDBRANCH   9  10
ENDBRANCH   8   9
ENDBRANCH   1   8
BRANCH   3  13
ATOM     13  O   LIG A   1      -8.673   5.068 134.261  0.00  0.00    -0.503 OA
ATOM     14  H   LIG A   1      -9.428   5.234 134.852  0.00  0.00    +0.292 HD
ENDBRANCH   3  13
BRANCH   4  15
ATOM     15  O   LIG A   1      -6.560   6.024 132.830  0.00  0.00    -0.501 OA
ATOM     16  H   LIG A   1      -6.060   5.630 132.087  0.00  0.00    +0.292 HD
ENDBRANCH   4  15
BRANCH   5  17
ATOM     17  O   LIG A   1      -6.950   7.260 130.415  0.00  0.00    -0.503 OA
ATOM     18  H   LIG A   1      -6.593   7.987 130.963  0.00  0.00    +0.292 HD
ENDBRANCH   5  17
TORSDOF 7
ENDMDL
MODEL 3
REMARK VINA RESULT:      -5.6      1.694      3.067
REMARK  Name = NuBBE_626
REMARK  8 active torsions:
REMARK  status: ('A' for Active; 'I' for Inactive)
REMARK    1  A    between atoms: C_2  and  O_3
REMARK    2  A    between atoms: C_2  and  C_7
REMARK    3  A    between atoms: O_3  and  C_4
REMARK    4  A    between atoms: C_4  and  C_5
REMARK    5  A    between atoms: C_5  and  C_6
REMARK    6  A    between atoms: C_9  and  O_10
REMARK    7  A    between atoms: C_11  and  O_12
REMARK    8  A    between atoms: C_13  and  O_14
REMARK                            x       y       z     vdW  Elec       q    Type
REMARK                         _______ _______ _______ _____ _____    ______ ____
ROOT
ATOM      1  C   LIG A   1     -10.545   6.405 131.355  0.00  0.00    +0.066 A 
ATOM      2  C   LIG A   1      -9.458   6.915 130.621  0.00  0.00    +0.064 A 
ATOM      3  C   LIG A   1      -8.171   6.771 131.123  0.00  0.00    +0.163 A 
ATOM      4  C   LIG A   1      -7.962   6.123 132.335  0.00  0.00    +0.201 A 
ATOM      5  C   LIG A   1      -9.033   5.604 133.049  0.00  0.00    +0.163 A 
ATOM      6  C   LIG A   1     -10.326   5.733 132.568  0.00  0.00    +0.064 A 
ENDROOT
BRANCH   1   8
ATOM      7  O   LIG A   1     -12.854   6.984 131.537  0.00  0.00    -0.245 OA
ATOM      8  C   LIG A   1     -11.916   6.635 130.835  0.00  0.00    +0.339 C 
BRANCH   8   9
ATOM      9  O   LIG A   1     -11.959   6.360 129.513  0.00  0.00    -0.461 OA
BRANCH   9  10
ATOM     10  C   LIG A   1     -12.894   7.117 128.735  0.00  0.00    +0.232 C 
BRANCH  10  11
ATOM     11  C   LIG A   1     -12.295   8.451 128.298  0.00  0.00    +0.038 C 
ATOM     12  C   LIG A   1     -10.961   8.306 127.578  0.00  0.00    +0.007 C 
ENDBRANCH  10  11
ENDBRANCH   9  10
ENDBRANCH   8   9
ENDBRANCH   1   8
BRANCH   3  13
ATOM     13  O   LIG A   1      -7.076   7.263 130.467  0.00  0.00    -0.503 OA
ATOM     14  H   LIG A   1      -6.291   6.769 130.763  0.00  0.00    +0.292 HD
ENDBRANCH   3  13
BRANCH   4  15
ATOM     15  O   LIG A   1      -6.701   5.996 132.849  0.00  0.00    -0.501 OA
ATOM     16  H   LIG A   1      -6.691   5.099 133.243  0.00  0.00    +0.292 HD
ENDBRANCH   4  15
BRANCH   5  17
ATOM     17  O   LIG A   1      -8.828   4.973 134.241  0.00  0.00    -0.503 OA
ATOM     18  H   LIG A   1      -7.889   5.144 134.455  0.00  0.00    +0.292 HD
ENDBRANCH   5  17
TORSDOF 7
ENDMDL
MODEL 4
REMARK VINA RESULT:      -5.5      1.830      5.395
REMARK  Name = NuBBE_626
REMARK  8 active torsions:
REMARK  status: ('A' for Active; 'I' for Inactive)
REMARK    1  A    between atoms: C_2  and  O_3
REMARK    2  A    between atoms: C_2  and  C_7
REMARK    3  A    between atoms: O_3  and  C_4
REMARK    4  A    between atoms: C_4  and  C_5
REMARK    5  A    between atoms: C_5  and  C_6
REMARK    6  A    between atoms: C_9  and  O_10
REMARK    7  A    between atoms: C_11  and  O_12
REMARK    8  A    between atoms: C_13  and  O_14
REMARK                            x       y       z     vdW  Elec       q    Type
REMARK                         _______ _______ _______ _____ _____    ______ ____
ROOT
ATOM      1  C   LIG A   1      -9.765   6.808 130.908  0.00  0.00    +0.066 A 
ATOM      2  C   LIG A   1     -11.018   6.632 131.525  0.00  0.00    +0.064 A 
ATOM      3  C   LIG A   1     -12.149   7.188 130.939  0.00  0.00    +0.163 A 
ATOM      4  C   LIG A   1     -12.041   7.904 129.752  0.00  0.00    +0.201 A 
ATOM      5  C   LIG A   1     -10.807   8.059 129.135  0.00  0.00    +0.163 A 
ATOM      6  C   LIG A   1      -9.665   7.513 129.698  0.00  0.00    +0.064 A 
ENDROOT
BRANCH   1   8
ATOM      7  O   LIG A   1      -7.545   5.934 131.001  0.00  0.00    -0.245 OA
ATOM      8  C   LIG A   1      -8.563   6.269 131.590  0.00  0.00    +0.339 C 
BRANCH   8   9
ATOM      9  O   LIG A   1      -8.792   6.172 132.919  0.00  0.00    -0.461 OA
BRANCH   9  10
ATOM     10  C   LIG A   1      -7.972   5.246 133.641  0.00  0.00    +0.232 C 
BRANCH  10  11
ATOM     11  C   LIG A   1      -8.814   4.137 134.268  0.00  0.00    +0.038 C 
ATOM     12  C   LIG A   1      -9.165   3.022 133.292  0.00  0.00    +0.007 C 
ENDBRANCH  10  11
ENDBRANCH   9  10
ENDBRANCH   8   9
ENDBRANCH   1   8
BRANCH   3  13
ATOM     13  O   LIG A   1     -13.390   7.069 131.500  0.00  0.00    -0.503 OA
ATOM     14  H   LIG A   1     -13.924   7.837 131.232  0.00  0.00    +0.292 HD
ENDBRANCH   3  13
BRANCH   4  15
ATOM     15  O   LIG A   1     -13.144   8.473 129.179  0.00  0.00    -0.501 OA
ATOM     16  H   LIG A   1     -13.559   7.742 128.676  0.00  0.00    +0.292 HD
ENDBRANCH   4  15
BRANCH   5  17
ATOM     17  O   LIG A   1     -10.701   8.766 127.973  0.00  0.00    -0.503 OA
ATOM     18  H   LIG A   1     -11.557   9.231 127.885  0.00  0.00    +0.292 HD
ENDBRANCH   5  17
TORSDOF 7
ENDMDL
MODEL 5
REMARK VINA RESULT:      -5.5      2.078      2.818
REMARK  Name = NuBBE_626
REMARK  8 active torsions:
REMARK  status: ('A' for Active; 'I' for Inactive)
REMARK    1  A    between atoms: C_2  and  O_3
REMARK    2  A    between atoms: C_2  and  C_7
REMARK    3  A    between atoms: O_3  and  C_4
REMARK    4  A    between atoms: C_4  and  C_5
REMARK    5  A    between atoms: C_5  and  C_6
REMARK    6  A    between atoms: C_9  and  O_10
REMARK    7  A    between atoms: C_11  and  O_12
REMARK    8  A    between atoms: C_13  and  O_14
REMARK                            x       y       z     vdW  Elec       q    Type
REMARK                         _______ _______ _______ _____ _____    ______ ____
ROOT
ATOM      1  C   LIG A   1     -11.613   6.097 131.114  0.00  0.00    +0.066 A 
ATOM      2  C   LIG A   1     -11.223   5.032 130.281  0.00  0.00    +0.064 A 
ATOM      3  C   LIG A   1     -10.063   4.326 130.578  0.00  0.00    +0.163 A 
ATOM      4  C   LIG A   1      -9.303   4.668 131.691  0.00  0.00    +0.201 A 
ATOM      5  C   LIG A   1      -9.700   5.706 132.522  0.00  0.00    +0.163 A 
ATOM      6  C   LIG A   1     -10.853   6.423 132.249  0.00  0.00    +0.064 A 
ENDROOT
BRANCH   1   8
ATOM      7  O   LIG A   1     -13.504   7.491 131.543  0.00  0.00    -0.245 OA
ATOM      8  C   LIG A   1     -12.814   6.883 130.737  0.00  0.00    +0.339 C 
BRANCH   8   9
ATOM      9  O   LIG A   1     -13.033   6.779 129.407  0.00  0.00    -0.461 OA
BRANCH   9  10
ATOM     10  C   LIG A   1     -13.177   8.008 128.686  0.00  0.00    +0.232 C 
BRANCH  10  11
ATOM     11  C   LIG A   1     -11.861   8.780 128.645  0.00  0.00    +0.038 C 
ATOM     12  C   LIG A   1     -10.829   8.164 127.711  0.00  0.00    +0.007 C 
ENDBRANCH  10  11
ENDBRANCH   9  10
ENDBRANCH   8   9
ENDBRANCH   1   8
BRANCH   3  13
ATOM     13  O   LIG A   1      -9.621   3.296 129.796  0.00  0.00    -0.503 OA
ATOM     14  H   LIG A   1      -9.445   3.640 128.902  0.00  0.00    +0.292 HD
ENDBRANCH   3  13
BRANCH   4  15
ATOM     15  O   LIG A   1      -8.148   3.993 131.979  0.00  0.00    -0.501 OA
ATOM     16  H   LIG A   1      -8.112   3.984 132.957  0.00  0.00    +0.292 HD
ENDBRANCH   4  15
BRANCH   5  17
ATOM     17  O   LIG A   1      -8.950   6.043 133.611  0.00  0.00    -0.503 OA
ATOM     18  H   LIG A   1      -8.295   6.686 133.273  0.00  0.00    +0.292 HD
ENDBRANCH   5  17
TORSDOF 7
ENDMDL
MODEL 6
REMARK VINA RESULT:      -5.5      2.079      2.745
REMARK  Name = NuBBE_626
REMARK  8 active torsions:
REMARK  status: ('A' for Active; 'I' for Inactive)
REMARK    1  A    between atoms: C_2  and  O_3
REMARK    2  A    between atoms: C_2  and  C_7
REMARK    3  A    between atoms: O_3  and  C_4
REMARK    4  A    between atoms: C_4  and  C_5
REMARK    5  A    between atoms: C_5  and  C_6
REMARK    6  A    between atoms: C_9  and  O_10
REMARK    7  A    between atoms: C_11  and  O_12
REMARK    8  A    between atoms: C_13  and  O_14
REMARK                            x       y       z     vdW  Elec       q    Type
REMARK                         _______ _______ _______ _____ _____    ______ ____
ROOT
ATOM      1  C   LIG A   1     -11.639   6.116 130.989  0.00  0.00    +0.066 A 
ATOM      2  C   LIG A   1     -10.912   6.477 132.139  0.00  0.00    +0.064 A 
ATOM      3  C   LIG A   1      -9.806   5.721 132.509  0.00  0.00    +0.163 A 
ATOM      4  C   LIG A   1      -9.421   4.624 131.746  0.00  0.00    +0.201 A 
ATOM      5  C   LIG A   1     -10.129   4.281 130.602  0.00  0.00    +0.163 A 
ATOM      6  C   LIG A   1     -11.233   5.020 130.210  0.00  0.00    +0.064 A 
ENDROOT
BRANCH   1   8
ATOM      7  O   LIG A   1     -13.538   7.475 131.489  0.00  0.00    -0.245 OA
ATOM      8  C   LIG A   1     -12.858   6.892 130.655  0.00  0.00    +0.339 C 
BRANCH   8   9
ATOM      9  O   LIG A   1     -13.107   6.811 129.329  0.00  0.00    -0.461 OA
BRANCH   9  10
ATOM     10  C   LIG A   1     -13.238   8.053 128.628  0.00  0.00    +0.232 C 
BRANCH  10  11
ATOM     11  C   LIG A   1     -11.917   8.817 128.608  0.00  0.00    +0.038 C 
ATOM     12  C   LIG A   1     -10.862   8.174 127.718  0.00  0.00    +0.007 C 
ENDBRANCH  10  11
ENDBRANCH   9  10
ENDBRANCH   8   9
ENDBRANCH   1   8
BRANCH   3  13
ATOM     13  O   LIG A   1      -9.071   6.009 133.626  0.00  0.00    -0.503 OA
ATOM     14  H   LIG A   1      -8.657   5.188 133.943  0.00  0.00    +0.292 HD
ENDBRANCH   3  13
BRANCH   4  15
ATOM     15  O   LIG A   1      -8.348   3.861 132.114  0.00  0.00    -0.501 OA
ATOM     16  H   LIG A   1      -7.825   3.768 131.291  0.00  0.00    +0.292 HD
ENDBRANCH   4  15
BRANCH   5  17
ATOM     17  O   LIG A   1      -9.754   3.202 129.856  0.00  0.00    -0.503 OA
ATOM     18  H   LIG A   1      -9.593   3.561 128.961  0.00  0.00    +0.292 HD
ENDBRANCH   5  17
TORSDOF 7
ENDMDL
MODEL 7
REMARK VINA RESULT:      -5.5      2.031      3.046
REMARK  Name = NuBBE_626
REMARK  8 active torsions:
REMARK  status: ('A' for Active; 'I' for Inactive)
REMARK    1  A    between atoms: C_2  and  O_3
REMARK    2  A    between atoms: C_2  and  C_7
REMARK    3  A    between atoms: O_3  and  C_4
REMARK    4  A    between atoms: C_4  and  C_5
REMARK    5  A    between atoms: C_5  and  C_6
REMARK    6  A    between atoms: C_9  and  O_10
REMARK    7  A    between atoms: C_11  and  O_12
REMARK    8  A    between atoms: C_13  and  O_14
REMARK                            x       y       z     vdW  Elec       q    Type
REMARK                         _______ _______ _______ _____ _____    ______ ____
ROOT
ATOM      1  C   LIG A   1      -9.649   5.726 130.245  0.00  0.00    +0.066 A 
ATOM      2  C   LIG A   1      -9.383   6.454 131.420  0.00  0.00    +0.064 A 
ATOM      3  C   LIG A   1      -9.446   5.809 132.649  0.00  0.00    +0.163 A 
ATOM      4  C   LIG A   1      -9.762   4.456 132.713  0.00  0.00    +0.201 A 
ATOM      5  C   LIG A   1     -10.005   3.735 131.552  0.00  0.00    +0.163 A 
ATOM      6  C   LIG A   1      -9.946   4.355 130.315  0.00  0.00    +0.064 A 
ENDROOT
BRANCH   1   8
ATOM      7  O   LIG A   1      -9.479   5.906 127.870  0.00  0.00    -0.245 OA
ATOM      8  C   LIG A   1      -9.648   6.452 128.952  0.00  0.00    +0.339 C 
BRANCH   8   9
ATOM      9  O   LIG A   1      -9.813   7.776 129.167  0.00  0.00    -0.461 OA
BRANCH   9  10
ATOM     10  C   LIG A   1     -10.877   8.410 128.448  0.00  0.00    +0.232 C 
BRANCH  10  11
ATOM     11  C   LIG A   1     -12.150   8.472 129.287  0.00  0.00    +0.038 C 
ATOM     12  C   LIG A   1     -13.169   7.402 128.917  0.00  0.00    +0.007 C 
ENDBRANCH  10  11
ENDBRANCH   9  10
ENDBRANCH   8   9
ENDBRANCH   1   8
BRANCH   3  13
ATOM     13  O   LIG A   1      -9.219   6.466 133.827  0.00  0.00    -0.503 OA
ATOM     14  H   LIG A   1     -10.070   6.581 134.285  0.00  0.00    +0.292 HD
ENDBRANCH   3  13
BRANCH   4  15
ATOM     15  O   LIG A   1      -9.848   3.817 133.919  0.00  0.00    -0.501 OA
ATOM     16  H   LIG A   1     -10.543   3.141 133.785  0.00  0.00    +0.292 HD
ENDBRANCH   4  15
BRANCH   5  17
ATOM     17  O   LIG A   1     -10.320   2.409 131.616  0.00  0.00    -0.503 OA
ATOM     18  H   LIG A   1     -10.650   2.188 130.722  0.00  0.00    +0.292 HD
ENDBRANCH   5  17
TORSDOF 7
ENDMDL
MODEL 8
REMARK VINA RESULT:      -5.4      9.623     11.394
REMARK  Name = NuBBE_626
REMARK  8 active torsions:
REMARK  status: ('A' for Active; 'I' for Inactive)
REMARK    1  A    between atoms: C_2  and  O_3
REMARK    2  A    between atoms: C_2  and  C_7
REMARK    3  A    between atoms: O_3  and  C_4
REMARK    4  A    between atoms: C_4  and  C_5
REMARK    5  A    between atoms: C_5  and  C_6
REMARK    6  A    between atoms: C_9  and  O_10
REMARK    7  A    between atoms: C_11  and  O_12
REMARK    8  A    between atoms: C_13  and  O_14
REMARK                            x       y       z     vdW  Elec       q    Type
REMARK                         _______ _______ _______ _____ _____    ______ ____
ROOT
ATOM      1  C   LIG A   1      -8.998  -0.652 124.271  0.00  0.00    +0.066 A 
ATOM      2  C   LIG A   1      -9.011  -0.167 125.592  0.00  0.00    +0.064 A 
ATOM      3  C   LIG A   1      -9.063   1.204 125.812  0.00  0.00    +0.163 A 
ATOM      4  C   LIG A   1      -9.108   2.084 124.736  0.00  0.00    +0.201 A 
ATOM      5  C   LIG A   1      -9.114   1.602 123.435  0.00  0.00    +0.163 A 
ATOM      6  C   LIG A   1      -9.065   0.240 123.189  0.00  0.00    +0.064 A 
ENDROOT
BRANCH   1   8
ATOM      7  O   LIG A   1      -9.682  -2.932 124.469  0.00  0.00    -0.245 OA
ATOM      8  C   LIG A   1      -8.868  -2.115 124.060  0.00  0.00    +0.339 C 
BRANCH   8   9
ATOM      9  O   LIG A   1      -7.719  -2.386 123.402  0.00  0.00    -0.461 OA
BRANCH   9  10
ATOM     10  C   LIG A   1      -6.662  -2.964 124.177  0.00  0.00    +0.232 C 
BRANCH  10  11
ATOM     11  C   LIG A   1      -5.335  -2.913 123.425  0.00  0.00    +0.038 C 
ATOM     12  C   LIG A   1      -4.455  -4.131 123.672  0.00  0.00    +0.007 C 
ENDBRANCH  10  11
ENDBRANCH   9  10
ENDBRANCH   8   9
ENDBRANCH   1   8
BRANCH   3  13
ATOM     13  O   LIG A   1      -9.058   1.737 127.072  0.00  0.00    -0.503 OA
ATOM     14  H   LIG A   1      -8.387   1.271 127.601  0.00  0.00    +0.292 HD
ENDBRANCH   3  13
BRANCH   4  15
ATOM     15  O   LIG A   1      -9.136   3.435 124.943  0.00  0.00    -0.501 OA
ATOM     16  H   LIG A   1      -9.664   3.782 124.194  0.00  0.00    +0.292 HD
ENDBRANCH   4  15
BRANCH   5  17
ATOM     17  O   LIG A   1      -9.152   2.466 122.379  0.00  0.00    -0.503 OA
ATOM     18  H   LIG A   1      -9.878   3.086 122.591  0.00  0.00    +0.292 HD
ENDBRANCH   5  17
TORSDOF 7
ENDMDL
MODEL 9
REMARK VINA RESULT:      -5.4      9.669     11.559
REMARK  Name = NuBBE_626
REMARK  8 active torsions:
REMARK  status: ('A' for Active; 'I' for Inactive)
REMARK    1  A    between atoms: C_2  and  O_3
REMARK    2  A    between atoms: C_2  and  C_7
REMARK    3  A    between atoms: O_3  and  C_4
REMARK    4  A    between atoms: C_4  and  C_5
REMARK    5  A    between atoms: C_5  and  C_6
REMARK    6  A    between atoms: C_9  and  O_10
REMARK    7  A    between atoms: C_11  and  O_12
REMARK    8  A    between atoms: C_13  and  O_14
REMARK                            x       y       z     vdW  Elec       q    Type
REMARK                         _______ _______ _______ _____ _____    ______ ____
ROOT
ATOM      1  C   LIG A   1      -8.861  -0.682 124.363  0.00  0.00    +0.066 A 
ATOM      2  C   LIG A   1      -8.937   0.179 123.252  0.00  0.00    +0.064 A 
ATOM      3  C   LIG A   1      -9.048   1.548 123.459  0.00  0.00    +0.163 A 
ATOM      4  C   LIG A   1      -9.076   2.060 124.752  0.00  0.00    +0.201 A 
ATOM      5  C   LIG A   1      -8.982   1.210 125.846  0.00  0.00    +0.163 A 
ATOM      6  C   LIG A   1      -8.869  -0.159 125.665  0.00  0.00    +0.064 A 
ENDROOT
BRANCH   1   8
ATOM      7  O   LIG A   1      -9.697  -2.916 124.478  0.00  0.00    -0.245 OA
ATOM      8  C   LIG A   1      -8.818  -2.145 124.118  0.00  0.00    +0.339 C 
BRANCH   8   9
ATOM      9  O   LIG A   1      -7.665  -2.474 123.493  0.00  0.00    -0.461 OA
BRANCH   9  10
ATOM     10  C   LIG A   1      -6.762  -3.312 124.223  0.00  0.00    +0.232 C 
BRANCH  10  11
ATOM     11  C   LIG A   1      -5.321  -3.097 123.769  0.00  0.00    +0.038 C 
ATOM     12  C   LIG A   1      -4.509  -4.383 123.710  0.00  0.00    +0.007 C 
ENDBRANCH  10  11
ENDBRANCH   9  10
ENDBRANCH   8   9
ENDBRANCH   1   8
BRANCH   3  13
ATOM     13  O   LIG A   1      -9.146   2.434 122.422  0.00  0.00    -0.503 OA
ATOM     14  H   LIG A   1     -10.085   2.531 122.187  0.00  0.00    +0.292 HD
ENDBRANCH   3  13
BRANCH   4  15
ATOM     15  O   LIG A   1      -9.207   3.404 124.967  0.00  0.00    -0.501 OA
ATOM     16  H   LIG A   1      -8.449   3.630 125.545  0.00  0.00    +0.292 HD
ENDBRANCH   4  15
BRANCH   5  17
ATOM     17  O   LIG A   1      -9.016   1.712 127.114  0.00  0.00    -0.503 OA
ATOM     18  H   LIG A   1      -9.649   2.456 127.071  0.00  0.00    +0.292 HD
ENDBRANCH   5  17
TORSDOF 7
ENDMDL
