MODEL 1
REMARK VINA RESULT:      -8.3      0.000      0.000
REMARK  Name = NuBBE_327
REMARK  4 active torsions:
REMARK  status: ('A' for Active; 'I' for Inactive)
REMARK    1  A    between atoms: C_3  and  C_4
REMARK    2  A    between atoms: C_4  and  O_5
REMARK    3  A    between atoms: O_5  and  C_6
REMARK    4  A    between atoms: C_10  and  C_12
REMARK                            x       y       z     vdW  Elec       q    Type
REMARK                         _______ _______ _______ _____ _____    ______ ____
ROOT
ATOM      1  C   LIG A   1      -8.157  -0.557 125.089  0.00  0.00    +0.039 C 
ATOM      2  C   LIG A   1      -8.434  -2.033 124.889  0.00  0.00    +0.074 C 
ATOM      3  C   LIG A   1      -8.046  -2.937 125.805  0.00  0.00    +0.198 C 
ATOM      4  O   LIG A   1      -7.344  -2.683 126.956  0.00  0.00    -0.496 OA
ATOM      5  C   LIG A   1      -6.824  -1.346 127.090  0.00  0.00    +0.174 C 
ATOM      6  C   LIG A   1      -5.440  -1.288 126.440  0.00  0.00    +0.052 C 
ATOM      7  C   LIG A   1      -7.847  -0.321 126.582  0.00  0.00    +0.051 C 
ATOM      8  C   LIG A   1      -7.433   1.127 126.833  0.00  0.00    +0.092 C 
ATOM      9  N   LIG A   1      -8.510   2.051 126.441  0.00  0.00    -0.293 NA
ATOM     10  C   LIG A   1      -8.122   3.462 126.715  0.00  0.00    +0.090 C 
ATOM     11  C   LIG A   1      -6.923   3.998 125.893  0.00  0.00    +0.053 C 
ATOM     12  C   LIG A   1      -6.977   3.483 124.494  0.00  0.00    -0.016 A 
ATOM     13  C   LIG A   1      -7.880   2.505 124.118  0.00  0.00    +0.038 A 
ATOM     14  N   LIG A   1      -7.691   2.252 122.786  0.00  0.00    -0.356 N 
ATOM     15  H   LIG A   1      -8.215   1.594 122.226  0.00  0.00    +0.166 HD
ATOM     16  C   LIG A   1      -6.642   3.015 122.309  0.00  0.00    +0.047 A 
ATOM     17  C   LIG A   1      -6.078   3.072 121.029  0.00  0.00    +0.026 A 
ATOM     18  C   LIG A   1      -5.000   3.944 120.832  0.00  0.00    +0.002 A 
ATOM     19  C   LIG A   1      -4.510   4.729 121.873  0.00  0.00    +0.001 A 
ATOM     20  C   LIG A   1      -5.090   4.667 123.145  0.00  0.00    +0.010 A 
ATOM     21  C   LIG A   1      -6.175   3.797 123.368  0.00  0.00    +0.003 A 
ATOM     22  C   LIG A   1      -8.918   1.888 125.018  0.00  0.00    +0.104 C 
ATOM     23  C   LIG A   1      -9.276   0.423 124.693  0.00  0.00    +0.034 C 
ENDROOT
BRANCH   2  24
ATOM     24  C   LIG A   1      -9.060  -2.505 123.629  0.00  0.00    +0.338 C 
ATOM     25  O   LIG A   1      -9.984  -3.302 123.593  0.00  0.00    -0.245 OA
BRANCH  24  26
ATOM     26  O   LIG A   1      -8.486  -1.925 122.539  0.00  0.00    -0.465 OA
ATOM     27  C   LIG A   1      -7.071  -2.079 122.437  0.00  0.00    +0.280 C 
ENDBRANCH  24  26
ENDBRANCH   2  24
TORSDOF 2
ENDMDL
MODEL 2
REMARK VINA RESULT:      -7.9      6.828      8.982
REMARK  Name = NuBBE_327
REMARK  4 active torsions:
REMARK  status: ('A' for Active; 'I' for Inactive)
REMARK    1  A    between atoms: C_3  and  C_4
REMARK    2  A    between atoms: C_4  and  O_5
REMARK    3  A    between atoms: O_5  and  C_6
REMARK    4  A    between atoms: C_10  and  C_12
REMARK                            x       y       z     vdW  Elec       q    Type
REMARK                         _______ _______ _______ _____ _____    ______ ____
ROOT
ATOM      1  C   LIG A   1      -8.974   5.489 130.911  0.00  0.00    +0.039 C 
ATOM      2  C   LIG A   1     -10.326   5.838 130.321  0.00  0.00    +0.074 C 
ATOM      3  C   LIG A   1     -11.237   4.882 130.074  0.00  0.00    +0.198 C 
ATOM      4  O   LIG A   1     -11.075   3.532 130.256  0.00  0.00    -0.496 OA
ATOM      5  C   LIG A   1      -9.737   3.099 130.571  0.00  0.00    +0.174 C 
ATOM      6  C   LIG A   1      -8.984   2.837 129.265  0.00  0.00    +0.052 C 
ATOM      7  C   LIG A   1      -9.070   4.083 131.542  0.00  0.00    +0.051 C 
ATOM      8  C   LIG A   1      -7.707   3.614 132.044  0.00  0.00    +0.092 C 
ATOM      9  N   LIG A   1      -7.184   4.536 133.065  0.00  0.00    -0.293 NA
ATOM     10  C   LIG A   1      -5.870   4.064 133.581  0.00  0.00    +0.090 C 
ATOM     11  C   LIG A   1      -4.715   4.039 132.546  0.00  0.00    +0.053 C 
ATOM     12  C   LIG A   1      -4.796   5.225 131.646  0.00  0.00    -0.016 A 
ATOM     13  C   LIG A   1      -5.892   6.069 131.658  0.00  0.00    +0.038 A 
ATOM     14  N   LIG A   1      -5.669   7.056 130.735  0.00  0.00    -0.356 N 
ATOM     15  H   LIG A   1      -6.289   7.827 130.529  0.00  0.00    +0.166 HD
ATOM     16  C   LIG A   1      -4.468   6.831 130.090  0.00  0.00    +0.047 A 
ATOM     17  C   LIG A   1      -3.846   7.555 129.066  0.00  0.00    +0.026 A 
ATOM     18  C   LIG A   1      -2.617   7.082 128.590  0.00  0.00    +0.002 A 
ATOM     19  C   LIG A   1      -2.033   5.934 129.122  0.00  0.00    +0.001 A 
ATOM     20  C   LIG A   1      -2.663   5.226 130.151  0.00  0.00    +0.010 A 
ATOM     21  C   LIG A   1      -3.901   5.682 130.645  0.00  0.00    +0.003 A 
ATOM     22  C   LIG A   1      -7.080   5.938 132.574  0.00  0.00    +0.104 C 
ATOM     23  C   LIG A   1      -8.416   6.437 131.987  0.00  0.00    +0.034 C 
ENDROOT
BRANCH   2  24
ATOM     24  C   LIG A   1     -10.622   7.238 129.927  0.00  0.00    +0.338 C 
ATOM     25  O   LIG A   1      -9.865   7.925 129.261  0.00  0.00    -0.245 OA
BRANCH  24  26
ATOM     26  O   LIG A   1     -11.840   7.638 130.385  0.00  0.00    -0.465 OA
ATOM     27  C   LIG A   1     -12.468   8.674 129.631  0.00  0.00    +0.280 C 
ENDBRANCH  24  26
ENDBRANCH   2  24
TORSDOF 2
ENDMDL
MODEL 3
REMARK VINA RESULT:      -7.8      4.432      6.819
REMARK  Name = NuBBE_327
REMARK  4 active torsions:
REMARK  status: ('A' for Active; 'I' for Inactive)
REMARK    1  A    between atoms: C_3  and  C_4
REMARK    2  A    between atoms: C_4  and  O_5
REMARK    3  A    between atoms: O_5  and  C_6
REMARK    4  A    between atoms: C_10  and  C_12
REMARK                            x       y       z     vdW  Elec       q    Type
REMARK                         _______ _______ _______ _____ _____    ______ ____
ROOT
ATOM      1  C   LIG A   1      -6.066   0.674 128.538  0.00  0.00    +0.039 C 
ATOM      2  C   LIG A   1      -5.388   2.024 128.649  0.00  0.00    +0.074 C 
ATOM      3  C   LIG A   1      -5.841   2.954 129.507  0.00  0.00    +0.198 C 
ATOM      4  O   LIG A   1      -6.941   2.847 130.321  0.00  0.00    -0.496 OA
ATOM      5  C   LIG A   1      -7.782   1.700 130.089  0.00  0.00    +0.174 C 
ATOM      6  C   LIG A   1      -8.820   2.058 129.024  0.00  0.00    +0.052 C 
ATOM      7  C   LIG A   1      -6.927   0.459 129.801  0.00  0.00    +0.051 C 
ATOM      8  C   LIG A   1      -7.740  -0.829 129.697  0.00  0.00    +0.092 C 
ATOM      9  N   LIG A   1      -6.851  -1.994 129.549  0.00  0.00    -0.293 NA
ATOM     10  C   LIG A   1      -7.639  -3.255 129.481  0.00  0.00    +0.090 C 
ATOM     11  C   LIG A   1      -8.567  -3.398 128.247  0.00  0.00    +0.053 C 
ATOM     12  C   LIG A   1      -7.903  -2.850 127.029  0.00  0.00    -0.016 A 
ATOM     13  C   LIG A   1      -6.718  -2.142 127.108  0.00  0.00    +0.038 A 
ATOM     14  N   LIG A   1      -6.361  -1.781 125.836  0.00  0.00    -0.356 N 
ATOM     15  H   LIG A   1      -5.531  -1.266 125.575  0.00  0.00    +0.166 HD
ATOM     16  C   LIG A   1      -7.328  -2.201 124.942  0.00  0.00    +0.047 A 
ATOM     17  C   LIG A   1      -7.404  -2.037 123.554  0.00  0.00    +0.026 A 
ATOM     18  C   LIG A   1      -8.521  -2.567 122.898  0.00  0.00    +0.002 A 
ATOM     19  C   LIG A   1      -9.519  -3.237 123.602  0.00  0.00    +0.001 A 
ATOM     20  C   LIG A   1      -9.425  -3.400 124.988  0.00  0.00    +0.010 A 
ATOM     21  C   LIG A   1      -8.311  -2.875 125.671  0.00  0.00    +0.003 A 
ATOM     22  C   LIG A   1      -5.945  -1.879 128.374  0.00  0.00    +0.104 C 
ATOM     23  C   LIG A   1      -5.152  -0.556 128.392  0.00  0.00    +0.034 C 
ENDROOT
BRANCH   2  24
ATOM     24  C   LIG A   1      -4.266   2.367 127.740  0.00  0.00    +0.338 C 
ATOM     25  O   LIG A   1      -4.285   2.158 126.537  0.00  0.00    -0.245 OA
BRANCH  24  26
ATOM     26  O   LIG A   1      -3.238   2.951 128.415  0.00  0.00    -0.465 OA
ATOM     27  C   LIG A   1      -2.518   3.948 127.691  0.00  0.00    +0.280 C 
ENDBRANCH  24  26
ENDBRANCH   2  24
TORSDOF 2
ENDMDL
MODEL 4
REMARK VINA RESULT:      -7.6      3.291      6.467
REMARK  Name = NuBBE_327
REMARK  4 active torsions:
REMARK  status: ('A' for Active; 'I' for Inactive)
REMARK    1  A    between atoms: C_3  and  C_4
REMARK    2  A    between atoms: C_4  and  O_5
REMARK    3  A    between atoms: O_5  and  C_6
REMARK    4  A    between atoms: C_10  and  C_12
REMARK                            x       y       z     vdW  Elec       q    Type
REMARK                         _______ _______ _______ _____ _____    ______ ____
ROOT
ATOM      1  C   LIG A   1      -6.318   3.785 126.937  0.00  0.00    +0.039 C 
ATOM      2  C   LIG A   1      -6.038   4.336 128.321  0.00  0.00    +0.074 C 
ATOM      3  C   LIG A   1      -4.841   4.867 128.621  0.00  0.00    +0.198 C 
ATOM      4  O   LIG A   1      -3.748   4.938 127.794  0.00  0.00    -0.496 OA
ATOM      5  C   LIG A   1      -3.853   4.210 126.555  0.00  0.00    +0.174 C 
ATOM      6  C   LIG A   1      -3.369   2.777 126.783  0.00  0.00    +0.052 C 
ATOM      7  C   LIG A   1      -5.262   4.355 125.966  0.00  0.00    +0.051 C 
ATOM      8  C   LIG A   1      -5.408   3.740 124.577  0.00  0.00    +0.092 C 
ATOM      9  N   LIG A   1      -6.740   4.026 124.019  0.00  0.00    -0.293 NA
ATOM     10  C   LIG A   1      -6.874   3.456 122.650  0.00  0.00    +0.090 C 
ATOM     11  C   LIG A   1      -6.811   1.910 122.560  0.00  0.00    +0.053 C 
ATOM     12  C   LIG A   1      -7.526   1.291 123.714  0.00  0.00    -0.016 A 
ATOM     13  C   LIG A   1      -7.972   2.050 124.780  0.00  0.00    +0.038 A 
ATOM     14  N   LIG A   1      -8.587   1.207 125.665  0.00  0.00    -0.356 N 
ATOM     15  H   LIG A   1      -9.026   1.476 126.535  0.00  0.00    +0.166 HD
ATOM     16  C   LIG A   1      -8.497  -0.095 125.211  0.00  0.00    +0.047 A 
ATOM     17  C   LIG A   1      -8.955  -1.285 125.789  0.00  0.00    +0.026 A 
ATOM     18  C   LIG A   1      -8.712  -2.478 125.098  0.00  0.00    +0.002 A 
ATOM     19  C   LIG A   1      -8.042  -2.479 123.876  0.00  0.00    +0.001 A 
ATOM     20  C   LIG A   1      -7.598  -1.281 123.307  0.00  0.00    +0.010 A 
ATOM     21  C   LIG A   1      -7.830  -0.067 123.984  0.00  0.00    +0.003 A 
ATOM     22  C   LIG A   1      -7.844   3.547 124.895  0.00  0.00    +0.104 C 
ATOM     23  C   LIG A   1      -7.703   4.082 126.334  0.00  0.00    +0.034 C 
ENDROOT
BRANCH   2  24
ATOM     24  C   LIG A   1      -7.061   4.212 129.388  0.00  0.00    +0.338 C 
ATOM     25  O   LIG A   1      -7.298   3.170 129.977  0.00  0.00    -0.245 OA
BRANCH  24  26
ATOM     26  O   LIG A   1      -7.678   5.402 129.629  0.00  0.00    -0.465 OA
ATOM     27  C   LIG A   1      -9.103   5.358 129.663  0.00  0.00    +0.280 C 
ENDBRANCH  24  26
ENDBRANCH   2  24
TORSDOF 2
ENDMDL
MODEL 5
REMARK VINA RESULT:      -7.5      3.413      6.086
REMARK  Name = NuBBE_327
REMARK  4 active torsions:
REMARK  status: ('A' for Active; 'I' for Inactive)
REMARK    1  A    between atoms: C_3  and  C_4
REMARK    2  A    between atoms: C_4  and  O_5
REMARK    3  A    between atoms: O_5  and  C_6
REMARK    4  A    between atoms: C_10  and  C_12
REMARK                            x       y       z     vdW  Elec       q    Type
REMARK                         _______ _______ _______ _____ _____    ______ ____
ROOT
ATOM      1  C   LIG A   1      -7.038   2.274 127.586  0.00  0.00    +0.039 C 
ATOM      2  C   LIG A   1      -6.455   2.796 128.884  0.00  0.00    +0.074 C 
ATOM      3  C   LIG A   1      -6.048   4.073 128.991  0.00  0.00    +0.198 C 
ATOM      4  O   LIG A   1      -6.050   5.018 127.996  0.00  0.00    -0.496 OA
ATOM      5  C   LIG A   1      -6.348   4.532 126.673  0.00  0.00    +0.174 C 
ATOM      6  C   LIG A   1      -5.045   4.085 126.007  0.00  0.00    +0.052 C 
ATOM      7  C   LIG A   1      -7.467   3.483 126.727  0.00  0.00    +0.051 C 
ATOM      8  C   LIG A   1      -7.946   3.033 125.350  0.00  0.00    +0.092 C 
ATOM      9  N   LIG A   1      -9.102   2.128 125.472  0.00  0.00    -0.293 NA
ATOM     10  C   LIG A   1      -9.593   1.714 124.129  0.00  0.00    +0.090 C 
ATOM     11  C   LIG A   1      -8.605   0.865 123.288  0.00  0.00    +0.053 C 
ATOM     12  C   LIG A   1      -7.873  -0.099 124.160  0.00  0.00    -0.016 A 
ATOM     13  C   LIG A   1      -7.962  -0.039 125.539  0.00  0.00    +0.038 A 
ATOM     14  N   LIG A   1      -7.191  -1.047 126.051  0.00  0.00    -0.356 N 
ATOM     15  H   LIG A   1      -7.071  -1.264 127.032  0.00  0.00    +0.166 HD
ATOM     16  C   LIG A   1      -6.563  -1.725 125.024  0.00  0.00    +0.047 A 
ATOM     17  C   LIG A   1      -5.669  -2.802 125.068  0.00  0.00    +0.026 A 
ATOM     18  C   LIG A   1      -5.176  -3.287 123.851  0.00  0.00    +0.002 A 
ATOM     19  C   LIG A   1      -5.566  -2.720 122.640  0.00  0.00    +0.001 A 
ATOM     20  C   LIG A   1      -6.466  -1.650 122.611  0.00  0.00    +0.010 A 
ATOM     21  C   LIG A   1      -6.975  -1.143 123.823  0.00  0.00    +0.003 A 
ATOM     22  C   LIG A   1      -8.811   0.935 126.313  0.00  0.00    +0.104 C 
ATOM     23  C   LIG A   1      -8.251   1.335 127.694  0.00  0.00    +0.034 C 
ENDROOT
BRANCH   2  24
ATOM     24  C   LIG A   1      -6.245   1.873 130.026  0.00  0.00    +0.338 C 
ATOM     25  O   LIG A   1      -5.619   0.829 129.942  0.00  0.00    -0.245 OA
BRANCH  24  26
ATOM     26  O   LIG A   1      -6.820   2.349 131.165  0.00  0.00    -0.465 OA
ATOM     27  C   LIG A   1      -8.201   2.031 131.332  0.00  0.00    +0.280 C 
ENDBRANCH  24  26
ENDBRANCH   2  24
TORSDOF 2
ENDMDL
MODEL 6
REMARK VINA RESULT:      -7.5      6.715      8.883
REMARK  Name = NuBBE_327
REMARK  4 active torsions:
REMARK  status: ('A' for Active; 'I' for Inactive)
REMARK    1  A    between atoms: C_3  and  C_4
REMARK    2  A    between atoms: C_4  and  O_5
REMARK    3  A    between atoms: O_5  and  C_6
REMARK    4  A    between atoms: C_10  and  C_12
REMARK                            x       y       z     vdW  Elec       q    Type
REMARK                         _______ _______ _______ _____ _____    ______ ____
ROOT
ATOM      1  C   LIG A   1      -6.496   5.777 132.147  0.00  0.00    +0.039 C 
ATOM      2  C   LIG A   1      -7.850   5.579 132.797  0.00  0.00    +0.074 C 
ATOM      3  C   LIG A   1      -7.947   5.212 134.087  0.00  0.00    +0.198 C 
ATOM      4  O   LIG A   1      -6.907   4.931 134.937  0.00  0.00    -0.496 OA
ATOM      5  C   LIG A   1      -5.604   4.849 134.326  0.00  0.00    +0.174 C 
ATOM      6  C   LIG A   1      -5.373   3.414 133.849  0.00  0.00    +0.052 C 
ATOM      7  C   LIG A   1      -5.442   5.943 133.263  0.00  0.00    +0.051 C 
ATOM      8  C   LIG A   1      -4.034   6.020 132.678  0.00  0.00    +0.092 C 
ATOM      9  N   LIG A   1      -3.912   7.167 131.763  0.00  0.00    -0.293 NA
ATOM     10  C   LIG A   1      -2.531   7.265 131.218  0.00  0.00    +0.090 C 
ATOM     11  C   LIG A   1      -2.083   6.085 130.317  0.00  0.00    +0.053 C 
ATOM     12  C   LIG A   1      -3.210   5.630 129.453  0.00  0.00    -0.016 A 
ATOM     13  C   LIG A   1      -4.498   6.102 129.637  0.00  0.00    +0.038 A 
ATOM     14  N   LIG A   1      -5.297   5.510 128.696  0.00  0.00    -0.356 N 
ATOM     15  H   LIG A   1      -6.288   5.670 128.573  0.00  0.00    +0.166 HD
ATOM     16  C   LIG A   1      -4.554   4.623 127.942  0.00  0.00    +0.047 A 
ATOM     17  C   LIG A   1      -4.947   3.782 126.893  0.00  0.00    +0.026 A 
ATOM     18  C   LIG A   1      -3.967   2.970 126.310  0.00  0.00    +0.002 A 
ATOM     19  C   LIG A   1      -2.647   3.002 126.755  0.00  0.00    +0.001 A 
ATOM     20  C   LIG A   1      -2.268   3.853 127.798  0.00  0.00    +0.010 A 
ATOM     21  C   LIG A   1      -3.237   4.679 128.402  0.00  0.00    +0.003 A 
ATOM     22  C   LIG A   1      -4.910   7.129 130.659  0.00  0.00    +0.104 C 
ATOM     23  C   LIG A   1      -6.348   6.977 131.194  0.00  0.00    +0.034 C 
ENDROOT
BRANCH   2  24
ATOM     24  C   LIG A   1      -9.086   5.701 131.987  0.00  0.00    +0.338 C 
ATOM     25  O   LIG A   1      -9.968   6.513 132.220  0.00  0.00    -0.245 OA
BRANCH  24  26
ATOM     26  O   LIG A   1      -9.096   4.813 130.954  0.00  0.00    -0.465 OA
ATOM     27  C   LIG A   1     -10.327   4.121 130.754  0.00  0.00    +0.280 C 
ENDBRANCH  24  26
ENDBRANCH   2  24
TORSDOF 2
ENDMDL
MODEL 7
REMARK VINA RESULT:      -7.5      5.976      8.963
REMARK  Name = NuBBE_327
REMARK  4 active torsions:
REMARK  status: ('A' for Active; 'I' for Inactive)
REMARK    1  A    between atoms: C_3  and  C_4
REMARK    2  A    between atoms: C_4  and  O_5
REMARK    3  A    between atoms: O_5  and  C_6
REMARK    4  A    between atoms: C_10  and  C_12
REMARK                            x       y       z     vdW  Elec       q    Type
REMARK                         _______ _______ _______ _____ _____    ______ ____
ROOT
ATOM      1  C   LIG A   1      -4.488   4.926 129.339  0.00  0.00    +0.039 C 
ATOM      2  C   LIG A   1      -3.708   5.198 128.069  0.00  0.00    +0.074 C 
ATOM      3  C   LIG A   1      -2.561   5.900 128.103  0.00  0.00    +0.198 C 
ATOM      4  O   LIG A   1      -1.990   6.480 129.208  0.00  0.00    -0.496 OA
ATOM      5  C   LIG A   1      -2.799   6.483 130.400  0.00  0.00    +0.174 C 
ATOM      6  C   LIG A   1      -3.668   7.743 130.403  0.00  0.00    +0.052 C 
ATOM      7  C   LIG A   1      -3.549   5.152 130.543  0.00  0.00    +0.051 C 
ATOM      8  C   LIG A   1      -4.307   5.019 131.861  0.00  0.00    +0.092 C 
ATOM      9  N   LIG A   1      -4.895   3.675 131.989  0.00  0.00    -0.293 NA
ATOM     10  C   LIG A   1      -5.607   3.531 133.288  0.00  0.00    +0.090 C 
ATOM     11  C   LIG A   1      -6.845   4.444 133.477  0.00  0.00    +0.053 C 
ATOM     12  C   LIG A   1      -7.609   4.559 132.202  0.00  0.00    -0.016 A 
ATOM     13  C   LIG A   1      -7.107   4.065 131.011  0.00  0.00    +0.038 A 
ATOM     14  N   LIG A   1      -8.032   4.313 130.033  0.00  0.00    -0.356 N 
ATOM     15  H   LIG A   1      -7.951   4.054 129.059  0.00  0.00    +0.166 HD
ATOM     16  C   LIG A   1      -9.101   5.008 130.565  0.00  0.00    +0.047 A 
ATOM     17  C   LIG A   1     -10.258   5.495 129.945  0.00  0.00    +0.026 A 
ATOM     18  C   LIG A   1     -11.181   6.183 130.741  0.00  0.00    +0.002 A 
ATOM     19  C   LIG A   1     -10.957   6.371 132.104  0.00  0.00    +0.001 A 
ATOM     20  C   LIG A   1      -9.801   5.872 132.711  0.00  0.00    +0.010 A 
ATOM     21  C   LIG A   1      -8.856   5.177 131.929  0.00  0.00    +0.003 A 
ATOM     22  C   LIG A   1      -5.799   3.333 130.857  0.00  0.00    +0.104 C 
ATOM     23  C   LIG A   1      -5.103   3.524 129.494  0.00  0.00    +0.034 C 
ENDROOT
BRANCH   2  24
ATOM     24  C   LIG A   1      -4.252   4.767 126.758  0.00  0.00    +0.338 C 
ATOM     25  O   LIG A   1      -3.724   3.920 126.055  0.00  0.00    -0.245 OA
BRANCH  24  26
ATOM     26  O   LIG A   1      -5.408   5.420 126.459  0.00  0.00    -0.465 OA
ATOM     27  C   LIG A   1      -6.060   4.995 125.263  0.00  0.00    +0.280 C 
ENDBRANCH  24  26
ENDBRANCH   2  24
TORSDOF 2
ENDMDL
MODEL 8
REMARK VINA RESULT:      -7.4      2.973      6.590
REMARK  Name = NuBBE_327
REMARK  4 active torsions:
REMARK  status: ('A' for Active; 'I' for Inactive)
REMARK    1  A    between atoms: C_3  and  C_4
REMARK    2  A    between atoms: C_4  and  O_5
REMARK    3  A    between atoms: O_5  and  C_6
REMARK    4  A    between atoms: C_10  and  C_12
REMARK                            x       y       z     vdW  Elec       q    Type
REMARK                         _______ _______ _______ _____ _____    ______ ____
ROOT
ATOM      1  C   LIG A   1      -6.715   3.124 123.914  0.00  0.00    +0.039 C 
ATOM      2  C   LIG A   1      -5.600   4.113 124.189  0.00  0.00    +0.074 C 
ATOM      3  C   LIG A   1      -5.084   4.862 123.199  0.00  0.00    +0.198 C 
ATOM      4  O   LIG A   1      -5.429   4.812 121.872  0.00  0.00    -0.496 OA
ATOM      5  C   LIG A   1      -6.295   3.725 121.491  0.00  0.00    +0.174 C 
ATOM      6  C   LIG A   1      -5.435   2.511 121.134  0.00  0.00    +0.052 C 
ATOM      7  C   LIG A   1      -7.367   3.494 122.564  0.00  0.00    +0.051 C 
ATOM      8  C   LIG A   1      -8.417   2.461 122.163  0.00  0.00    +0.092 C 
ATOM      9  N   LIG A   1      -9.482   2.381 123.177  0.00  0.00    -0.293 NA
ATOM     10  C   LIG A   1     -10.525   1.399 122.772  0.00  0.00    +0.090 C 
ATOM     11  C   LIG A   1     -10.055  -0.076 122.682  0.00  0.00    +0.053 C 
ATOM     12  C   LIG A   1      -9.104  -0.389 123.787  0.00  0.00    -0.016 A 
ATOM     13  C   LIG A   1      -8.599   0.601 124.609  0.00  0.00    +0.038 A 
ATOM     14  N   LIG A   1      -7.768   0.005 125.519  0.00  0.00    -0.356 N 
ATOM     15  H   LIG A   1      -7.264   0.474 126.259  0.00  0.00    +0.166 HD
ATOM     16  C   LIG A   1      -7.688  -1.350 125.262  0.00  0.00    +0.047 A 
ATOM     17  C   LIG A   1      -6.949  -2.348 125.909  0.00  0.00    +0.026 A 
ATOM     18  C   LIG A   1      -7.055  -3.655 125.419  0.00  0.00    +0.002 A 
ATOM     19  C   LIG A   1      -7.872  -3.952 124.330  0.00  0.00    +0.001 A 
ATOM     20  C   LIG A   1      -8.611  -2.946 123.700  0.00  0.00    +0.010 A 
ATOM     21  C   LIG A   1      -8.519  -1.622 124.174  0.00  0.00    +0.003 A 
ATOM     22  C   LIG A   1      -8.961   2.062 124.534  0.00  0.00    +0.104 C 
ATOM     23  C   LIG A   1      -7.842   3.034 124.958  0.00  0.00    +0.034 C 
ENDROOT
BRANCH   2  24
ATOM     24  C   LIG A   1      -5.003   4.198 125.545  0.00  0.00    +0.338 C 
ATOM     25  O   LIG A   1      -5.277   5.075 126.348  0.00  0.00    -0.245 OA
BRANCH  24  26
ATOM     26  O   LIG A   1      -4.137   3.172 125.774  0.00  0.00    -0.465 OA
ATOM     27  C   LIG A   1      -4.565   2.214 126.741  0.00  0.00    +0.280 C 
ENDBRANCH  24  26
ENDBRANCH   2  24
TORSDOF 2
ENDMDL
MODEL 9
REMARK VINA RESULT:      -7.4      7.784      9.589
REMARK  Name = NuBBE_327
REMARK  4 active torsions:
REMARK  status: ('A' for Active; 'I' for Inactive)
REMARK    1  A    between atoms: C_3  and  C_4
REMARK    2  A    between atoms: C_4  and  O_5
REMARK    3  A    between atoms: O_5  and  C_6
REMARK    4  A    between atoms: C_10  and  C_12
REMARK                            x       y       z     vdW  Elec       q    Type
REMARK                         _______ _______ _______ _____ _____    ______ ____
ROOT
ATOM      1  C   LIG A   1      -8.623   4.458 131.909  0.00  0.00    +0.039 C 
ATOM      2  C   LIG A   1      -9.677   4.284 130.835  0.00  0.00    +0.074 C 
ATOM      3  C   LIG A   1     -10.433   3.173 130.786  0.00  0.00    +0.198 C 
ATOM      4  O   LIG A   1     -10.337   2.082 131.613  0.00  0.00    -0.496 OA
ATOM      5  C   LIG A   1      -9.196   2.063 132.493  0.00  0.00    +0.174 C 
ATOM      6  C   LIG A   1      -8.024   1.398 131.767  0.00  0.00    +0.052 C 
ATOM      7  C   LIG A   1      -8.927   3.466 133.052  0.00  0.00    +0.051 C 
ATOM      8  C   LIG A   1      -7.830   3.499 134.112  0.00  0.00    +0.092 C 
ATOM      9  N   LIG A   1      -7.712   4.845 134.697  0.00  0.00    -0.293 NA
ATOM     10  C   LIG A   1      -6.665   4.873 135.755  0.00  0.00    +0.090 C 
ATOM     11  C   LIG A   1      -5.218   4.604 135.270  0.00  0.00    +0.053 C 
ATOM     12  C   LIG A   1      -4.980   5.255 133.950  0.00  0.00    -0.016 A 
ATOM     13  C   LIG A   1      -6.014   5.820 133.226  0.00  0.00    +0.038 A 
ATOM     14  N   LIG A   1      -5.483   6.337 132.075  0.00  0.00    -0.356 N 
ATOM     15  H   LIG A   1      -5.995   6.826 131.352  0.00  0.00    +0.166 HD
ATOM     16  C   LIG A   1      -4.130   6.066 132.020  0.00  0.00    +0.047 A 
ATOM     17  C   LIG A   1      -3.188   6.374 131.031  0.00  0.00    +0.026 A 
ATOM     18  C   LIG A   1      -1.867   5.960 131.240  0.00  0.00    +0.002 A 
ATOM     19  C   LIG A   1      -1.503   5.270 132.395  0.00  0.00    +0.001 A 
ATOM     20  C   LIG A   1      -2.454   4.977 133.378  0.00  0.00    +0.010 A 
ATOM     21  C   LIG A   1      -3.790   5.382 133.189  0.00  0.00    +0.003 A 
ATOM     22  C   LIG A   1      -7.450   5.895 133.675  0.00  0.00    +0.104 C 
ATOM     23  C   LIG A   1      -8.491   5.856 132.538  0.00  0.00    +0.034 C 
ENDROOT
BRANCH   2  24
ATOM     24  C   LIG A   1      -9.823   5.304 129.767  0.00  0.00    +0.338 C 
ATOM     25  O   LIG A   1      -8.880   5.775 129.152  0.00  0.00    -0.245 OA
BRANCH  24  26
ATOM     26  O   LIG A   1     -11.130   5.624 129.558  0.00  0.00    -0.465 OA
ATOM     27  C   LIG A   1     -11.637   6.684 130.367  0.00  0.00    +0.280 C 
ENDBRANCH  24  26
ENDBRANCH   2  24
TORSDOF 2
ENDMDL
