MODEL 1
REMARK VINA RESULT:      -8.1      0.000      0.000
REMARK  Name = NuBBE_1673
REMARK  9 active torsions:
REMARK  status: ('A' for Active; 'I' for Inactive)
REMARK    1  A    between atoms: O_1  and  C_2
REMARK    2  A    between atoms: O_1  and  C_3
REMARK    3  A    between atoms: C_6  and  C_20
REMARK    4  A    between atoms: C_8  and  C_11
REMARK    5  A    between atoms: C_13  and  O_14
REMARK    6  A    between atoms: O_14  and  C_15
REMARK    7  A    between atoms: C_16  and  O_19
REMARK    8  A    between atoms: C_22  and  C_24
REMARK    9  A    between atoms: C_25  and  C_26
REMARK                            x       y       z     vdW  Elec       q    Type
REMARK                         _______ _______ _______ _____ _____    ______ ____
ROOT
ATOM      1  C   LIG A   1      -5.604   0.636 125.474  0.00  0.00    +0.162 A 
ATOM      2  C   LIG A   1      -6.616   1.053 124.624  0.00  0.00    +0.166 A 
ATOM      3  C   LIG A   1      -7.264   0.160 123.780  0.00  0.00    +0.005 A 
ATOM      4  C   LIG A   1      -8.282   0.878 122.961  0.00  0.00    +0.065 C 
ATOM      5  C   LIG A   1      -7.947   2.345 123.336  0.00  0.00    +0.211 C 
ATOM      6  O   LIG A   1      -7.080   2.338 124.498  0.00  0.00    -0.480 OA
ATOM      7  C   LIG A   1      -9.703   0.496 123.370  0.00  0.00    +0.016 C 
ATOM      8  C   LIG A   1      -6.934  -1.191 123.771  0.00  0.00    +0.015 A 
ATOM      9  C   LIG A   1      -5.908  -1.649 124.612  0.00  0.00    -0.021 A 
ATOM     10  C   LIG A   1      -5.265  -0.727 125.462  0.00  0.00    +0.057 A 
ENDROOT
BRANCH   5  11
ATOM     11  C   LIG A   1      -7.277   3.174 122.245  0.00  0.00    -0.003 A 
ATOM     12  C   LIG A   1      -7.956   3.499 121.055  0.00  0.00    +0.056 A 
ATOM     13  C   LIG A   1      -7.334   4.241 120.048  0.00  0.00    +0.162 A 
ATOM     14  C   LIG A   1      -6.017   4.667 120.240  0.00  0.00    +0.159 A 
ATOM     15  C   LIG A   1      -5.316   4.347 121.394  0.00  0.00    +0.049 A 
ATOM     16  C   LIG A   1      -5.942   3.596 122.391  0.00  0.00    +0.011 A 
BRANCH  13  17
ATOM     17  O   LIG A   1      -7.897   4.604 118.851  0.00  0.00    -0.491 OA
ATOM     18  C   LIG A   1      -9.299   4.385 118.726  0.00  0.00    +0.277 C 
ENDBRANCH  13  17
BRANCH  14  19
ATOM     19  O   LIG A   1      -5.385   5.415 119.283  0.00  0.00    -0.503 OA
ATOM     20  H   LIG A   1      -5.407   6.330 119.625  0.00  0.00    +0.292 HD
ENDBRANCH  14  19
ENDBRANCH   5  11
BRANCH   9  21
ATOM     21  C   LIG A   1      -5.565  -3.083 124.609  0.00  0.00    +0.003 C 
ATOM     22  C   LIG A   1      -4.748  -3.663 123.723  0.00  0.00    -0.030 C 
ATOM     23  C   LIG A   1      -4.417  -5.123 123.709  0.00  0.00    +0.035 C 
ENDBRANCH   9  21
BRANCH   1  24
ATOM     24  O   LIG A   1      -4.853   1.390 126.329  0.00  0.00    -0.491 OA
ATOM     25  C   LIG A   1      -5.399   1.652 127.614  0.00  0.00    +0.277 C 
ENDBRANCH   1  24
TORSDOF 5
ENDMDL
MODEL 2
REMARK VINA RESULT:      -7.3      6.750      8.897
REMARK  Name = NuBBE_1673
REMARK  9 active torsions:
REMARK  status: ('A' for Active; 'I' for Inactive)
REMARK    1  A    between atoms: O_1  and  C_2
REMARK    2  A    between atoms: O_1  and  C_3
REMARK    3  A    between atoms: C_6  and  C_20
REMARK    4  A    between atoms: C_8  and  C_11
REMARK    5  A    between atoms: C_13  and  O_14
REMARK    6  A    between atoms: O_14  and  C_15
REMARK    7  A    between atoms: C_16  and  O_19
REMARK    8  A    between atoms: C_22  and  C_24
REMARK    9  A    between atoms: C_25  and  C_26
REMARK                            x       y       z     vdW  Elec       q    Type
REMARK                         _______ _______ _______ _____ _____    ______ ____
ROOT
ATOM      1  C   LIG A   1      -7.019   3.860 129.358  0.00  0.00    +0.162 A 
ATOM      2  C   LIG A   1      -7.840   4.281 130.392  0.00  0.00    +0.166 A 
ATOM      3  C   LIG A   1      -8.667   3.392 131.066  0.00  0.00    +0.005 A 
ATOM      4  C   LIG A   1      -9.458   4.115 132.104  0.00  0.00    +0.065 C 
ATOM      5  C   LIG A   1      -9.091   5.580 131.753  0.00  0.00    +0.211 C 
ATOM      6  O   LIG A   1      -7.953   5.569 130.855  0.00  0.00    -0.480 OA
ATOM      7  C   LIG A   1      -9.011   3.738 133.514  0.00  0.00    +0.016 C 
ATOM      8  C   LIG A   1      -8.687   2.039 130.742  0.00  0.00    +0.015 A 
ATOM      9  C   LIG A   1      -7.874   1.578 129.695  0.00  0.00    -0.021 A 
ATOM     10  C   LIG A   1      -7.041   2.496 129.026  0.00  0.00    +0.057 A 
ENDROOT
BRANCH   5  11
ATOM     11  C   LIG A   1     -10.199   6.407 131.109  0.00  0.00    -0.003 A 
ATOM     12  C   LIG A   1      -9.966   7.151 129.936  0.00  0.00    +0.056 A 
ATOM     13  C   LIG A   1     -10.977   7.923 129.359  0.00  0.00    +0.162 A 
ATOM     14  C   LIG A   1     -12.238   7.945 129.962  0.00  0.00    +0.159 A 
ATOM     15  C   LIG A   1     -12.492   7.236 131.128  0.00  0.00    +0.049 A 
ATOM     16  C   LIG A   1     -11.473   6.475 131.704  0.00  0.00    +0.011 A 
BRANCH  13  17
ATOM     17  O   LIG A   1     -10.857   8.690 128.227  0.00  0.00    -0.491 OA
ATOM     18  C   LIG A   1     -10.882   7.987 126.989  0.00  0.00    +0.277 C 
ENDBRANCH  13  17
BRANCH  14  19
ATOM     19  O   LIG A   1     -13.256   8.673 129.409  0.00  0.00    -0.503 OA
ATOM     20  H   LIG A   1     -12.874   9.068 128.601  0.00  0.00    +0.292 HD
ENDBRANCH  14  19
ENDBRANCH   5  11
BRANCH   9  21
ATOM     21  C   LIG A   1      -7.888   0.142 129.357  0.00  0.00    +0.003 C 
ATOM     22  C   LIG A   1      -7.893  -0.847 130.257  0.00  0.00    -0.030 C 
ATOM     23  C   LIG A   1      -7.886  -2.303 129.912  0.00  0.00    +0.035 C 
ENDBRANCH   9  21
BRANCH   1  24
ATOM     24  O   LIG A   1      -6.184   4.611 128.581  0.00  0.00    -0.491 OA
ATOM     25  C   LIG A   1      -4.814   4.653 128.955  0.00  0.00    +0.277 C 
ENDBRANCH   1  24
TORSDOF 5
ENDMDL
MODEL 3
REMARK VINA RESULT:      -7.2      4.089      7.655
REMARK  Name = NuBBE_1673
REMARK  9 active torsions:
REMARK  status: ('A' for Active; 'I' for Inactive)
REMARK    1  A    between atoms: O_1  and  C_2
REMARK    2  A    between atoms: O_1  and  C_3
REMARK    3  A    between atoms: C_6  and  C_20
REMARK    4  A    between atoms: C_8  and  C_11
REMARK    5  A    between atoms: C_13  and  O_14
REMARK    6  A    between atoms: O_14  and  C_15
REMARK    7  A    between atoms: C_16  and  O_19
REMARK    8  A    between atoms: C_22  and  C_24
REMARK    9  A    between atoms: C_25  and  C_26
REMARK                            x       y       z     vdW  Elec       q    Type
REMARK                         _______ _______ _______ _____ _____    ______ ____
ROOT
ATOM      1  C   LIG A   1      -4.263   3.274 130.278  0.00  0.00    +0.162 A 
ATOM      2  C   LIG A   1      -3.920   3.096 128.947  0.00  0.00    +0.166 A 
ATOM      3  C   LIG A   1      -3.018   3.941 128.314  0.00  0.00    +0.005 A 
ATOM      4  C   LIG A   1      -2.857   3.541 126.887  0.00  0.00    +0.065 C 
ATOM      5  C   LIG A   1      -3.973   2.469 126.777  0.00  0.00    +0.211 C 
ATOM      6  O   LIG A   1      -4.411   2.121 128.115  0.00  0.00    -0.480 OA
ATOM      7  C   LIG A   1      -1.474   2.951 126.622  0.00  0.00    +0.016 C 
ATOM      8  C   LIG A   1      -2.410   4.988 128.999  0.00  0.00    +0.015 A 
ATOM      9  C   LIG A   1      -2.738   5.203 130.347  0.00  0.00    -0.021 A 
ATOM     10  C   LIG A   1      -3.654   4.333 130.970  0.00  0.00    +0.057 A 
ENDROOT
BRANCH   5  11
ATOM     11  C   LIG A   1      -5.200   2.868 125.962  0.00  0.00    -0.003 A 
ATOM     12  C   LIG A   1      -6.472   2.338 126.253  0.00  0.00    +0.056 A 
ATOM     13  C   LIG A   1      -7.590   2.689 125.493  0.00  0.00    +0.162 A 
ATOM     14  C   LIG A   1      -7.432   3.587 124.434  0.00  0.00    +0.159 A 
ATOM     15  C   LIG A   1      -6.188   4.112 124.113  0.00  0.00    +0.049 A 
ATOM     16  C   LIG A   1      -5.073   3.748 124.872  0.00  0.00    +0.011 A 
BRANCH  13  17
ATOM     17  O   LIG A   1      -8.868   2.228 125.682  0.00  0.00    -0.491 OA
ATOM     18  C   LIG A   1      -9.023   0.813 125.727  0.00  0.00    +0.277 C 
ENDBRANCH  13  17
BRANCH  14  19
ATOM     19  O   LIG A   1      -8.511   3.969 123.684  0.00  0.00    -0.503 OA
ATOM     20  H   LIG A   1      -8.288   4.864 123.359  0.00  0.00    +0.292 HD
ENDBRANCH  14  19
ENDBRANCH   5  11
BRANCH   9  21
ATOM     21  C   LIG A   1      -2.086   6.307 131.075  0.00  0.00    +0.003 C 
ATOM     22  C   LIG A   1      -1.061   6.154 131.921  0.00  0.00    -0.030 C 
ATOM     23  C   LIG A   1      -0.414   7.273 132.675  0.00  0.00    +0.035 C 
ENDBRANCH   9  21
BRANCH   1  24
ATOM     24  O   LIG A   1      -5.153   2.557 131.026  0.00  0.00    -0.491 OA
ATOM     25  C   LIG A   1      -6.408   3.163 131.300  0.00  0.00    +0.277 C 
ENDBRANCH   1  24
TORSDOF 5
ENDMDL
MODEL 4
REMARK VINA RESULT:      -7.1      9.637     13.606
REMARK  Name = NuBBE_1673
REMARK  9 active torsions:
REMARK  status: ('A' for Active; 'I' for Inactive)
REMARK    1  A    between atoms: O_1  and  C_2
REMARK    2  A    between atoms: O_1  and  C_3
REMARK    3  A    between atoms: C_6  and  C_20
REMARK    4  A    between atoms: C_8  and  C_11
REMARK    5  A    between atoms: C_13  and  O_14
REMARK    6  A    between atoms: O_14  and  C_15
REMARK    7  A    between atoms: C_16  and  O_19
REMARK    8  A    between atoms: C_22  and  C_24
REMARK    9  A    between atoms: C_25  and  C_26
REMARK                            x       y       z     vdW  Elec       q    Type
REMARK                         _______ _______ _______ _____ _____    ______ ____
ROOT
ATOM      1  C   LIG A   1      -7.118   6.787 131.261  0.00  0.00    +0.162 A 
ATOM      2  C   LIG A   1      -7.372   5.984 132.362  0.00  0.00    +0.166 A 
ATOM      3  C   LIG A   1      -8.667   5.615 132.703  0.00  0.00    +0.005 A 
ATOM      4  C   LIG A   1      -8.652   4.781 133.939  0.00  0.00    +0.065 C 
ATOM      5  C   LIG A   1      -7.162   4.923 134.345  0.00  0.00    +0.211 C 
ATOM      6  O   LIG A   1      -6.430   5.485 133.226  0.00  0.00    -0.480 OA
ATOM      7  C   LIG A   1      -9.024   3.330 133.642  0.00  0.00    +0.016 C 
ATOM      8  C   LIG A   1      -9.757   6.021 131.940  0.00  0.00    +0.015 A 
ATOM      9  C   LIG A   1      -9.538   6.841 130.822  0.00  0.00    -0.021 A 
ATOM     10  C   LIG A   1      -8.217   7.203 130.492  0.00  0.00    +0.057 A 
ENDROOT
BRANCH   5  11
ATOM     11  C   LIG A   1      -6.888   5.784 135.575  0.00  0.00    -0.003 A 
ATOM     12  C   LIG A   1      -7.941   6.263 136.378  0.00  0.00    +0.056 A 
ATOM     13  C   LIG A   1      -7.689   7.067 137.493  0.00  0.00    +0.162 A 
ATOM     14  C   LIG A   1      -6.367   7.389 137.809  0.00  0.00    +0.159 A 
ATOM     15  C   LIG A   1      -5.310   6.945 137.026  0.00  0.00    +0.049 A 
ATOM     16  C   LIG A   1      -5.571   6.150 135.908  0.00  0.00    +0.011 A 
BRANCH  13  17
ATOM     17  O   LIG A   1      -8.636   7.594 138.335  0.00  0.00    -0.491 OA
ATOM     18  C   LIG A   1      -9.502   8.573 137.770  0.00  0.00    +0.277 C 
ENDBRANCH  13  17
BRANCH  14  19
ATOM     19  O   LIG A   1      -6.084   8.156 138.907  0.00  0.00    -0.503 OA
ATOM     20  H   LIG A   1      -5.157   7.943 139.130  0.00  0.00    +0.292 HD
ENDBRANCH  14  19
ENDBRANCH   5  11
BRANCH   9  21
ATOM     21  C   LIG A   1     -10.693   7.264 130.007  0.00  0.00    +0.003 C 
ATOM     22  C   LIG A   1     -10.605   8.010 128.900  0.00  0.00    -0.030 C 
ATOM     23  C   LIG A   1     -11.780   8.455 128.087  0.00  0.00    +0.035 C 
ENDBRANCH   9  21
BRANCH   1  24
ATOM     24  O   LIG A   1      -5.917   7.262 130.820  0.00  0.00    -0.491 OA
ATOM     25  C   LIG A   1      -5.043   6.335 130.191  0.00  0.00    +0.277 C 
ENDBRANCH   1  24
TORSDOF 5
ENDMDL
MODEL 5
REMARK VINA RESULT:      -7.1      5.610      8.053
REMARK  Name = NuBBE_1673
REMARK  9 active torsions:
REMARK  status: ('A' for Active; 'I' for Inactive)
REMARK    1  A    between atoms: O_1  and  C_2
REMARK    2  A    between atoms: O_1  and  C_3
REMARK    3  A    between atoms: C_6  and  C_20
REMARK    4  A    between atoms: C_8  and  C_11
REMARK    5  A    between atoms: C_13  and  O_14
REMARK    6  A    between atoms: O_14  and  C_15
REMARK    7  A    between atoms: C_16  and  O_19
REMARK    8  A    between atoms: C_22  and  C_24
REMARK    9  A    between atoms: C_25  and  C_26
REMARK                            x       y       z     vdW  Elec       q    Type
REMARK                         _______ _______ _______ _____ _____    ______ ____
ROOT
ATOM      1  C   LIG A   1      -4.520  -2.902 130.064  0.00  0.00    +0.162 A 
ATOM      2  C   LIG A   1      -5.717  -2.222 129.905  0.00  0.00    +0.166 A 
ATOM      3  C   LIG A   1      -6.800  -2.459 130.743  0.00  0.00    +0.005 A 
ATOM      4  C   LIG A   1      -7.960  -1.619 130.329  0.00  0.00    +0.065 C 
ATOM      5  C   LIG A   1      -7.413  -1.035 129.000  0.00  0.00    +0.211 C 
ATOM      6  O   LIG A   1      -5.986  -1.284 128.940  0.00  0.00    -0.480 OA
ATOM      7  C   LIG A   1      -8.254  -0.525 131.353  0.00  0.00    +0.016 C 
ATOM      8  C   LIG A   1      -6.715  -3.375 131.787  0.00  0.00    +0.015 A 
ATOM      9  C   LIG A   1      -5.521  -4.088 131.974  0.00  0.00    -0.021 A 
ATOM     10  C   LIG A   1      -4.435  -3.830 131.114  0.00  0.00    +0.057 A 
ENDROOT
BRANCH   5  11
ATOM     11  C   LIG A   1      -8.048  -1.579 127.724  0.00  0.00    -0.003 A 
ATOM     12  C   LIG A   1      -8.390  -0.724 126.658  0.00  0.00    +0.056 A 
ATOM     13  C   LIG A   1      -8.988  -1.222 125.499  0.00  0.00    +0.162 A 
ATOM     14  C   LIG A   1      -9.242  -2.593 125.404  0.00  0.00    +0.159 A 
ATOM     15  C   LIG A   1      -8.932  -3.457 126.445  0.00  0.00    +0.049 A 
ATOM     16  C   LIG A   1      -8.343  -2.950 127.605  0.00  0.00    +0.011 A 
BRANCH  13  17
ATOM     17  O   LIG A   1      -9.370  -0.481 124.408  0.00  0.00    -0.491 OA
ATOM     18  C   LIG A   1      -9.657   0.892 124.654  0.00  0.00    +0.277 C 
ENDBRANCH  13  17
BRANCH  14  19
ATOM     19  O   LIG A   1      -9.807  -3.116 124.273  0.00  0.00    -0.503 OA
ATOM     20  H   LIG A   1      -9.790  -2.386 123.622  0.00  0.00    +0.292 HD
ENDBRANCH  14  19
ENDBRANCH   5  11
BRANCH   9  21
ATOM     21  C   LIG A   1      -5.429  -5.051 133.086  0.00  0.00    +0.003 C 
ATOM     22  C   LIG A   1      -6.211  -5.031 134.171  0.00  0.00    -0.030 C 
ATOM     23  C   LIG A   1      -6.102  -5.998 135.309  0.00  0.00    +0.035 C 
ENDBRANCH   9  21
BRANCH   1  24
ATOM     24  O   LIG A   1      -3.387  -2.809 129.308  0.00  0.00    -0.491 OA
ATOM     25  C   LIG A   1      -2.816  -4.023 128.842  0.00  0.00    +0.277 C 
ENDBRANCH   1  24
TORSDOF 5
ENDMDL
MODEL 6
REMARK VINA RESULT:      -6.9      7.258      8.986
REMARK  Name = NuBBE_1673
REMARK  9 active torsions:
REMARK  status: ('A' for Active; 'I' for Inactive)
REMARK    1  A    between atoms: O_1  and  C_2
REMARK    2  A    between atoms: O_1  and  C_3
REMARK    3  A    between atoms: C_6  and  C_20
REMARK    4  A    between atoms: C_8  and  C_11
REMARK    5  A    between atoms: C_13  and  O_14
REMARK    6  A    between atoms: O_14  and  C_15
REMARK    7  A    between atoms: C_16  and  O_19
REMARK    8  A    between atoms: C_22  and  C_24
REMARK    9  A    between atoms: C_25  and  C_26
REMARK                            x       y       z     vdW  Elec       q    Type
REMARK                         _______ _______ _______ _____ _____    ______ ____
ROOT
ATOM      1  C   LIG A   1      -6.013   5.895 130.760  0.00  0.00    +0.162 A 
ATOM      2  C   LIG A   1      -7.287   5.352 130.729  0.00  0.00    +0.166 A 
ATOM      3  C   LIG A   1      -7.641   4.393 129.788  0.00  0.00    +0.005 A 
ATOM      4  C   LIG A   1      -9.071   4.009 129.963  0.00  0.00    +0.065 C 
ATOM      5  C   LIG A   1      -9.509   5.060 131.016  0.00  0.00    +0.211 C 
ATOM      6  O   LIG A   1      -8.321   5.681 131.570  0.00  0.00    -0.480 OA
ATOM      7  C   LIG A   1      -9.208   2.583 130.493  0.00  0.00    +0.016 C 
ATOM      8  C   LIG A   1      -6.722   3.928 128.853  0.00  0.00    +0.015 A 
ATOM      9  C   LIG A   1      -5.424   4.461 128.850  0.00  0.00    -0.021 A 
ATOM     10  C   LIG A   1      -5.085   5.431 129.815  0.00  0.00    +0.057 A 
ENDROOT
BRANCH   5  11
ATOM     11  C   LIG A   1     -10.432   6.164 130.509  0.00  0.00    -0.003 A 
ATOM     12  C   LIG A   1     -10.186   6.814 129.284  0.00  0.00    +0.056 A 
ATOM     13  C   LIG A   1     -11.022   7.837 128.830  0.00  0.00    +0.162 A 
ATOM     14  C   LIG A   1     -12.120   8.209 129.611  0.00  0.00    +0.159 A 
ATOM     15  C   LIG A   1     -12.377   7.598 130.831  0.00  0.00    +0.049 A 
ATOM     16  C   LIG A   1     -11.531   6.583 131.281  0.00  0.00    +0.011 A 
BRANCH  13  17
ATOM     17  O   LIG A   1     -10.871   8.541 127.662  0.00  0.00    -0.491 OA
ATOM     18  C   LIG A   1     -10.949   7.783 126.459  0.00  0.00    +0.277 C 
ENDBRANCH  13  17
BRANCH  14  19
ATOM     19  O   LIG A   1     -12.971   9.193 129.185  0.00  0.00    -0.503 OA
ATOM     20  H   LIG A   1     -12.515  10.030 129.399  0.00  0.00    +0.292 HD
ENDBRANCH  14  19
ENDBRANCH   5  11
BRANCH   9  21
ATOM     21  C   LIG A   1      -4.447   3.961 127.865  0.00  0.00    +0.003 C 
ATOM     22  C   LIG A   1      -3.128   3.889 128.077  0.00  0.00    -0.030 C 
ATOM     23  C   LIG A   1      -2.136   3.400 127.068  0.00  0.00    +0.035 C 
ENDBRANCH   9  21
BRANCH   1  24
ATOM     24  O   LIG A   1      -5.525   6.862 131.592  0.00  0.00    -0.491 OA
ATOM     25  C   LIG A   1      -4.117   7.050 131.614  0.00  0.00    +0.277 C 
ENDBRANCH   1  24
TORSDOF 5
ENDMDL
MODEL 7
REMARK VINA RESULT:      -6.8      4.291      8.270
REMARK  Name = NuBBE_1673
REMARK  9 active torsions:
REMARK  status: ('A' for Active; 'I' for Inactive)
REMARK    1  A    between atoms: O_1  and  C_2
REMARK    2  A    between atoms: O_1  and  C_3
REMARK    3  A    between atoms: C_6  and  C_20
REMARK    4  A    between atoms: C_8  and  C_11
REMARK    5  A    between atoms: C_13  and  O_14
REMARK    6  A    between atoms: O_14  and  C_15
REMARK    7  A    between atoms: C_16  and  O_19
REMARK    8  A    between atoms: C_22  and  C_24
REMARK    9  A    between atoms: C_25  and  C_26
REMARK                            x       y       z     vdW  Elec       q    Type
REMARK                         _______ _______ _______ _____ _____    ______ ____
ROOT
ATOM      1  C   LIG A   1      -5.842   4.083 126.113  0.00  0.00    +0.162 A 
ATOM      2  C   LIG A   1      -4.550   4.100 126.615  0.00  0.00    +0.166 A 
ATOM      3  C   LIG A   1      -3.823   2.928 126.779  0.00  0.00    +0.005 A 
ATOM      4  C   LIG A   1      -2.485   3.234 127.361  0.00  0.00    +0.065 C 
ATOM      5  C   LIG A   1      -2.668   4.739 127.687  0.00  0.00    +0.211 C 
ATOM      6  O   LIG A   1      -3.857   5.217 127.010  0.00  0.00    -0.480 OA
ATOM      7  C   LIG A   1      -1.367   3.003 126.348  0.00  0.00    +0.016 C 
ATOM      8  C   LIG A   1      -4.358   1.693 126.427  0.00  0.00    +0.015 A 
ATOM      9  C   LIG A   1      -5.667   1.636 125.923  0.00  0.00    -0.021 A 
ATOM     10  C   LIG A   1      -6.386   2.837 125.761  0.00  0.00    +0.057 A 
ENDROOT
BRANCH   5  11
ATOM     11  C   LIG A   1      -2.789   5.088 129.168  0.00  0.00    -0.003 A 
ATOM     12  C   LIG A   1      -3.432   4.220 130.071  0.00  0.00    +0.056 A 
ATOM     13  C   LIG A   1      -3.559   4.550 131.422  0.00  0.00    +0.162 A 
ATOM     14  C   LIG A   1      -3.029   5.762 131.874  0.00  0.00    +0.159 A 
ATOM     15  C   LIG A   1      -2.405   6.645 131.004  0.00  0.00    +0.049 A 
ATOM     16  C   LIG A   1      -2.291   6.312 129.653  0.00  0.00    +0.011 A 
BRANCH  13  17
ATOM     17  O   LIG A   1      -4.172   3.786 132.383  0.00  0.00    -0.491 OA
ATOM     18  C   LIG A   1      -5.576   3.599 132.233  0.00  0.00    +0.277 C 
ENDBRANCH  13  17
BRANCH  14  19
ATOM     19  O   LIG A   1      -3.116   6.105 133.196  0.00  0.00    -0.503 OA
ATOM     20  H   LIG A   1      -2.783   7.023 133.240  0.00  0.00    +0.292 HD
ENDBRANCH  14  19
ENDBRANCH   5  11
BRANCH   9  21
ATOM     21  C   LIG A   1      -6.231   0.328 125.540  0.00  0.00    +0.003 C 
ATOM     22  C   LIG A   1      -5.543  -0.819 125.533  0.00  0.00    -0.030 C 
ATOM     23  C   LIG A   1      -6.112  -2.142 125.124  0.00  0.00    +0.035 C 
ENDBRANCH   9  21
BRANCH   1  24
ATOM     24  O   LIG A   1      -6.692   5.135 125.927  0.00  0.00    -0.491 OA
ATOM     25  C   LIG A   1      -8.066   4.833 125.732  0.00  0.00    +0.277 C 
ENDBRANCH   1  24
TORSDOF 5
ENDMDL
MODEL 8
REMARK VINA RESULT:      -6.8      4.596      7.046
REMARK  Name = NuBBE_1673
REMARK  9 active torsions:
REMARK  status: ('A' for Active; 'I' for Inactive)
REMARK    1  A    between atoms: O_1  and  C_2
REMARK    2  A    between atoms: O_1  and  C_3
REMARK    3  A    between atoms: C_6  and  C_20
REMARK    4  A    between atoms: C_8  and  C_11
REMARK    5  A    between atoms: C_13  and  O_14
REMARK    6  A    between atoms: O_14  and  C_15
REMARK    7  A    between atoms: C_16  and  O_19
REMARK    8  A    between atoms: C_22  and  C_24
REMARK    9  A    between atoms: C_25  and  C_26
REMARK                            x       y       z     vdW  Elec       q    Type
REMARK                         _______ _______ _______ _____ _____    ______ ____
ROOT
ATOM      1  C   LIG A   1      -6.271  -1.121 129.671  0.00  0.00    +0.162 A 
ATOM      2  C   LIG A   1      -7.121  -1.776 128.794  0.00  0.00    +0.166 A 
ATOM      3  C   LIG A   1      -7.287  -3.154 128.842  0.00  0.00    +0.005 A 
ATOM      4  C   LIG A   1      -8.228  -3.593 127.772  0.00  0.00    +0.065 C 
ATOM      5  C   LIG A   1      -8.392  -2.263 126.991  0.00  0.00    +0.211 C 
ATOM      6  O   LIG A   1      -7.861  -1.184 127.801  0.00  0.00    -0.480 OA
ATOM      7  C   LIG A   1      -9.554  -4.078 128.354  0.00  0.00    +0.016 C 
ATOM      8  C   LIG A   1      -6.622  -3.927 129.788  0.00  0.00    +0.015 A 
ATOM      9  C   LIG A   1      -5.747  -3.299 130.688  0.00  0.00    -0.021 A 
ATOM     10  C   LIG A   1      -5.594  -1.900 130.624  0.00  0.00    +0.057 A 
ENDROOT
BRANCH   5  11
ATOM     11  C   LIG A   1      -7.718  -2.209 125.623  0.00  0.00    -0.003 A 
ATOM     12  C   LIG A   1      -6.439  -2.763 125.418  0.00  0.00    +0.056 A 
ATOM     13  C   LIG A   1      -5.816  -2.695 124.169  0.00  0.00    +0.162 A 
ATOM     14  C   LIG A   1      -6.486  -2.070 123.113  0.00  0.00    +0.159 A 
ATOM     15  C   LIG A   1      -7.739  -1.501 123.290  0.00  0.00    +0.049 A 
ATOM     16  C   LIG A   1      -8.351  -1.564 124.544  0.00  0.00    +0.011 A 
BRANCH  13  17
ATOM     17  O   LIG A   1      -4.574  -3.190 123.862  0.00  0.00    -0.491 OA
ATOM     18  C   LIG A   1      -4.484  -4.603 123.707  0.00  0.00    +0.277 C 
ENDBRANCH  13  17
BRANCH  14  19
ATOM     19  O   LIG A   1      -5.913  -2.007 121.872  0.00  0.00    -0.503 OA
ATOM     20  H   LIG A   1      -6.279  -1.196 121.467  0.00  0.00    +0.292 HD
ENDBRANCH  14  19
ENDBRANCH   5  11
BRANCH   9  21
ATOM     21  C   LIG A   1      -5.049  -4.118 131.697  0.00  0.00    +0.003 C 
ATOM     22  C   LIG A   1      -5.650  -4.730 132.723  0.00  0.00    -0.030 C 
ATOM     23  C   LIG A   1      -4.937  -5.543 133.758  0.00  0.00    +0.035 C 
ENDBRANCH   9  21
BRANCH   1  24
ATOM     24  O   LIG A   1      -5.975   0.211 129.727  0.00  0.00    -0.491 OA
ATOM     25  C   LIG A   1      -4.643   0.566 130.071  0.00  0.00    +0.277 C 
ENDBRANCH   1  24
TORSDOF 5
ENDMDL
MODEL 9
REMARK VINA RESULT:      -6.7      6.029      8.624
REMARK  Name = NuBBE_1673
REMARK  9 active torsions:
REMARK  status: ('A' for Active; 'I' for Inactive)
REMARK    1  A    between atoms: O_1  and  C_2
REMARK    2  A    between atoms: O_1  and  C_3
REMARK    3  A    between atoms: C_6  and  C_20
REMARK    4  A    between atoms: C_8  and  C_11
REMARK    5  A    between atoms: C_13  and  O_14
REMARK    6  A    between atoms: O_14  and  C_15
REMARK    7  A    between atoms: C_16  and  O_19
REMARK    8  A    between atoms: C_22  and  C_24
REMARK    9  A    between atoms: C_25  and  C_26
REMARK                            x       y       z     vdW  Elec       q    Type
REMARK                         _______ _______ _______ _____ _____    ______ ____
ROOT
ATOM      1  C   LIG A   1      -8.029   2.766 127.647  0.00  0.00    +0.162 A 
ATOM      2  C   LIG A   1      -7.884   3.576 128.761  0.00  0.00    +0.166 A 
ATOM      3  C   LIG A   1      -7.589   3.042 130.009  0.00  0.00    +0.005 A 
ATOM      4  C   LIG A   1      -7.520   4.130 131.027  0.00  0.00    +0.065 C 
ATOM      5  C   LIG A   1      -8.031   5.326 130.183  0.00  0.00    +0.211 C 
ATOM      6  O   LIG A   1      -8.020   4.942 128.784  0.00  0.00    -0.480 OA
ATOM      7  C   LIG A   1      -6.091   4.350 131.517  0.00  0.00    +0.016 C 
ATOM      8  C   LIG A   1      -7.408   1.674 130.183  0.00  0.00    +0.015 A 
ATOM      9  C   LIG A   1      -7.554   0.821 129.078  0.00  0.00    -0.021 A 
ATOM     10  C   LIG A   1      -7.851   1.384 127.820  0.00  0.00    +0.057 A 
ENDROOT
BRANCH   5  11
ATOM     11  C   LIG A   1      -9.428   5.833 130.527  0.00  0.00    -0.003 A 
ATOM     12  C   LIG A   1     -10.286   6.340 129.532  0.00  0.00    +0.056 A 
ATOM     13  C   LIG A   1     -11.557   6.822 129.852  0.00  0.00    +0.162 A 
ATOM     14  C   LIG A   1     -11.975   6.791 131.185  0.00  0.00    +0.159 A 
ATOM     15  C   LIG A   1     -11.146   6.313 132.190  0.00  0.00    +0.049 A 
ATOM     16  C   LIG A   1      -9.873   5.842 131.862  0.00  0.00    +0.011 A 
BRANCH  13  17
ATOM     17  O   LIG A   1     -12.466   7.345 128.967  0.00  0.00    -0.491 OA
ATOM     18  C   LIG A   1     -12.085   8.554 128.318  0.00  0.00    +0.277 C 
ENDBRANCH  13  17
BRANCH  14  19
ATOM     19  O   LIG A   1     -13.223   7.234 131.530  0.00  0.00    -0.503 OA
ATOM     20  H   LIG A   1     -13.228   7.239 132.507  0.00  0.00    +0.292 HD
ENDBRANCH  14  19
ENDBRANCH   5  11
BRANCH   9  21
ATOM     21  C   LIG A   1      -7.353  -0.628 129.260  0.00  0.00    +0.003 C 
ATOM     22  C   LIG A   1      -7.984  -1.370 130.176  0.00  0.00    -0.030 C 
ATOM     23  C   LIG A   1      -7.763  -2.838 130.373  0.00  0.00    +0.035 C 
ENDBRANCH   9  21
BRANCH   1  24
ATOM     24  O   LIG A   1      -8.351   3.131 126.371  0.00  0.00    -0.491 OA
ATOM     25  C   LIG A   1      -8.041   2.211 125.334  0.00  0.00    +0.277 C 
ENDBRANCH   1  24
TORSDOF 5
ENDMDL
