MODEL 1
REMARK VINA RESULT:      -7.8      0.000      0.000
REMARK  Name = NuBBE_1926
REMARK  5 active torsions:
REMARK  status: ('A' for Active; 'I' for Inactive)
REMARK    1  A    between atoms: C_1  and  C_2
REMARK    2  A    between atoms: C_8  and  C_9
REMARK    3  A    between atoms: C_8  and  C_10
REMARK    4  A    between atoms: C_17  and  C_18
REMARK    5  A    between atoms: C_17  and  C_19
REMARK                            x       y       z     vdW  Elec       q    Type
REMARK                         _______ _______ _______ _____ _____    ______ ____
ROOT
ATOM      1  C   LIG A   1      -7.358  -0.533 126.806  0.00  0.00    +0.012 C 
ATOM      2  C   LIG A   1      -6.923  -1.920 126.277  0.00  0.00    -0.021 C 
ATOM      3  C   LIG A   1      -8.054  -2.682 125.475  0.00  0.00    +0.009 C 
ATOM      4  C   LIG A   1      -9.307  -2.907 126.340  0.00  0.00    +0.084 C 
ATOM      5  C   LIG A   1      -8.987  -3.601 127.646  0.00  0.00    +0.160 C 
ATOM      6  C   LIG A   1      -7.745  -3.171 128.353  0.00  0.00    -0.004 C 
ATOM      7  C   LIG A   1      -7.798  -3.075 129.693  0.00  0.00    -0.009 C 
ATOM      8  C   LIG A   1      -6.653  -2.587 130.555  0.00  0.00    +0.004 C 
ATOM      9  C   LIG A   1      -7.223  -1.674 131.661  0.00  0.00    +0.020 C 
ATOM     10  C   LIG A   1      -5.700  -1.732 129.682  0.00  0.00    +0.015 C 
ATOM     11  C   LIG A   1      -5.328  -2.401 128.355  0.00  0.00    +0.010 C 
ATOM     12  C   LIG A   1      -6.540  -2.852 127.501  0.00  0.00    +0.028 C 
ATOM     13  O   LIG A   1      -9.769  -4.401 128.158  0.00  0.00    -0.292 OA
ATOM     14  C   LIG A   1      -8.374  -2.165 124.022  0.00  0.00    -0.031 C 
ATOM     15  C   LIG A   1      -9.172  -3.250 123.248  0.00  0.00    +0.011 C 
ATOM     16  C   LIG A   1      -9.232  -0.886 123.973  0.00  0.00    +0.011 C 
ATOM     17  C   LIG A   1      -7.056  -1.948 123.243  0.00  0.00    +0.007 C 
ATOM     18  C   LIG A   1      -6.030  -1.115 123.995  0.00  0.00    +0.001 C 
ATOM     19  C   LIG A   1      -5.693  -1.734 125.347  0.00  0.00    +0.007 C 
ENDROOT
BRANCH   8  20
ATOM     20  C   LIG A   1      -6.017  -3.788 131.244  0.00  0.00    -0.024 C 
ATOM     21  C   LIG A   1      -5.602  -4.940 130.699  0.00  0.00    +0.005 C 
ENDBRANCH   8  20
TORSDOF 1
ENDMDL
MODEL 2
REMARK VINA RESULT:      -7.5      1.974      3.192
REMARK  Name = NuBBE_1926
REMARK  5 active torsions:
REMARK  status: ('A' for Active; 'I' for Inactive)
REMARK    1  A    between atoms: C_1  and  C_2
REMARK    2  A    between atoms: C_8  and  C_9
REMARK    3  A    between atoms: C_8  and  C_10
REMARK    4  A    between atoms: C_17  and  C_18
REMARK    5  A    between atoms: C_17  and  C_19
REMARK                            x       y       z     vdW  Elec       q    Type
REMARK                         _______ _______ _______ _____ _____    ______ ____
ROOT
ATOM      1  C   LIG A   1      -6.321  -2.164 126.176  0.00  0.00    +0.012 C 
ATOM      2  C   LIG A   1      -7.867  -2.185 126.190  0.00  0.00    -0.021 C 
ATOM      3  C   LIG A   1      -8.530  -1.158 125.185  0.00  0.00    +0.009 C 
ATOM      4  C   LIG A   1      -8.100   0.288 125.489  0.00  0.00    +0.084 C 
ATOM      5  C   LIG A   1      -8.358   0.674 126.929  0.00  0.00    +0.160 C 
ATOM      6  C   LIG A   1      -8.056  -0.354 127.968  0.00  0.00    -0.004 C 
ATOM      7  C   LIG A   1      -7.493   0.071 129.113  0.00  0.00    -0.009 C 
ATOM      8  C   LIG A   1      -7.059  -0.847 130.236  0.00  0.00    +0.004 C 
ATOM      9  C   LIG A   1      -5.703  -0.351 130.783  0.00  0.00    +0.020 C 
ATOM     10  C   LIG A   1      -6.844  -2.271 129.665  0.00  0.00    +0.015 C 
ATOM     11  C   LIG A   1      -8.005  -2.754 128.788  0.00  0.00    +0.010 C 
ATOM     12  C   LIG A   1      -8.384  -1.790 127.635  0.00  0.00    +0.028 C 
ATOM     13  O   LIG A   1      -8.693   1.816 127.239  0.00  0.00    -0.292 OA
ATOM     14  C   LIG A   1      -8.482  -1.522 123.654  0.00  0.00    -0.031 C 
ATOM     15  C   LIG A   1      -9.514  -0.656 122.880  0.00  0.00    +0.011 C 
ATOM     16  C   LIG A   1      -7.120  -1.270 122.979  0.00  0.00    +0.011 C 
ATOM     17  C   LIG A   1      -8.907  -2.996 123.454  0.00  0.00    +0.007 C 
ATOM     18  C   LIG A   1      -8.169  -3.973 124.356  0.00  0.00    +0.001 C 
ATOM     19  C   LIG A   1      -8.348  -3.616 125.827  0.00  0.00    +0.007 C 
ENDROOT
BRANCH   8  20
ATOM     20  C   LIG A   1      -8.070  -0.736 131.371  0.00  0.00    -0.024 C 
ATOM     21  C   LIG A   1      -9.002   0.206 131.571  0.00  0.00    +0.005 C 
ENDBRANCH   8  20
TORSDOF 1
ENDMDL
MODEL 3
REMARK VINA RESULT:      -7.2      2.080      5.700
REMARK  Name = NuBBE_1926
REMARK  5 active torsions:
REMARK  status: ('A' for Active; 'I' for Inactive)
REMARK    1  A    between atoms: C_1  and  C_2
REMARK    2  A    between atoms: C_8  and  C_9
REMARK    3  A    between atoms: C_8  and  C_10
REMARK    4  A    between atoms: C_17  and  C_18
REMARK    5  A    between atoms: C_17  and  C_19
REMARK                            x       y       z     vdW  Elec       q    Type
REMARK                         _______ _______ _______ _____ _____    ______ ____
ROOT
ATOM      1  C   LIG A   1      -6.142   0.415 127.767  0.00  0.00    +0.012 C 
ATOM      2  C   LIG A   1      -7.683   0.379 127.884  0.00  0.00    -0.021 C 
ATOM      3  C   LIG A   1      -8.207  -0.240 129.243  0.00  0.00    +0.009 C 
ATOM      4  C   LIG A   1      -7.711  -1.683 129.436  0.00  0.00    +0.084 C 
ATOM      5  C   LIG A   1      -8.046  -2.569 128.256  0.00  0.00    +0.160 C 
ATOM      6  C   LIG A   1      -7.884  -1.974 126.897  0.00  0.00    -0.004 C 
ATOM      7  C   LIG A   1      -7.378  -2.762 125.933  0.00  0.00    -0.009 C 
ATOM      8  C   LIG A   1      -7.083  -2.296 124.523  0.00  0.00    +0.004 C 
ATOM      9  C   LIG A   1      -5.742  -2.910 124.069  0.00  0.00    +0.020 C 
ATOM     10  C   LIG A   1      -6.918  -0.755 124.529  0.00  0.00    +0.015 C 
ATOM     11  C   LIG A   1      -8.041  -0.028 125.277  0.00  0.00    +0.010 C 
ATOM     12  C   LIG A   1      -8.276  -0.526 126.725  0.00  0.00    +0.028 C 
ATOM     13  O   LIG A   1      -8.330  -3.757 128.403  0.00  0.00    -0.292 OA
ATOM     14  C   LIG A   1      -8.074   0.652 130.534  0.00  0.00    -0.031 C 
ATOM     15  C   LIG A   1      -8.991   0.088 131.653  0.00  0.00    +0.011 C 
ATOM     16  C   LIG A   1      -6.654   0.704 131.131  0.00  0.00    +0.011 C 
ATOM     17  C   LIG A   1      -8.574   2.084 130.234  0.00  0.00    +0.007 C 
ATOM     18  C   LIG A   1      -7.965   2.696 128.982  0.00  0.00    +0.001 C 
ATOM     19  C   LIG A   1      -8.226   1.828 127.756  0.00  0.00    +0.007 C 
ENDROOT
BRANCH   8  20
ATOM     20  C   LIG A   1      -8.164  -2.840 123.596  0.00  0.00    -0.024 C 
ATOM     21  C   LIG A   1      -9.386  -3.289 123.912  0.00  0.00    +0.005 C 
ENDBRANCH   8  20
TORSDOF 1
ENDMDL
MODEL 4
REMARK VINA RESULT:      -7.2      7.462      9.881
REMARK  Name = NuBBE_1926
REMARK  5 active torsions:
REMARK  status: ('A' for Active; 'I' for Inactive)
REMARK    1  A    between atoms: C_1  and  C_2
REMARK    2  A    between atoms: C_8  and  C_9
REMARK    3  A    between atoms: C_8  and  C_10
REMARK    4  A    between atoms: C_17  and  C_18
REMARK    5  A    between atoms: C_17  and  C_19
REMARK                            x       y       z     vdW  Elec       q    Type
REMARK                         _______ _______ _______ _____ _____    ______ ____
ROOT
ATOM      1  C   LIG A   1      -6.179   5.775 133.157  0.00  0.00    +0.012 C 
ATOM      2  C   LIG A   1      -6.758   5.514 131.747  0.00  0.00    -0.021 C 
ATOM      3  C   LIG A   1      -7.317   4.047 131.546  0.00  0.00    +0.009 C 
ATOM      4  C   LIG A   1      -6.225   2.989 131.783  0.00  0.00    +0.084 C 
ATOM      5  C   LIG A   1      -4.993   3.235 130.940  0.00  0.00    +0.160 C 
ATOM      6  C   LIG A   1      -4.543   4.652 130.799  0.00  0.00    -0.004 C 
ATOM      7  C   LIG A   1      -3.220   4.886 130.824  0.00  0.00    -0.009 C 
ATOM      8  C   LIG A   1      -2.600   6.266 130.766  0.00  0.00    +0.004 C 
ATOM      9  C   LIG A   1      -1.421   6.321 131.759  0.00  0.00    +0.020 C 
ATOM     10  C   LIG A   1      -3.653   7.307 131.226  0.00  0.00    +0.015 C 
ATOM     11  C   LIG A   1      -5.016   7.131 130.547  0.00  0.00    +0.010 C 
ATOM     12  C   LIG A   1      -5.615   5.707 130.666  0.00  0.00    +0.028 C 
ATOM     13  O   LIG A   1      -4.328   2.306 130.485  0.00  0.00    -0.292 OA
ATOM     14  C   LIG A   1      -8.689   3.703 132.236  0.00  0.00    -0.031 C 
ATOM     15  C   LIG A   1      -9.279   2.411 131.606  0.00  0.00    +0.011 C 
ATOM     16  C   LIG A   1      -8.595   3.435 133.750  0.00  0.00    +0.011 C 
ATOM     17  C   LIG A   1      -9.710   4.832 131.961  0.00  0.00    +0.007 C 
ATOM     18  C   LIG A   1      -9.181   6.224 132.272  0.00  0.00    +0.001 C 
ATOM     19  C   LIG A   1      -7.909   6.524 131.488  0.00  0.00    +0.007 C 
ENDROOT
BRANCH   8  20
ATOM     20  C   LIG A   1      -2.026   6.482 129.371  0.00  0.00    -0.024 C 
ATOM     21  C   LIG A   1      -2.405   5.919 128.215  0.00  0.00    +0.005 C 
ENDBRANCH   8  20
TORSDOF 1
ENDMDL
MODEL 5
REMARK VINA RESULT:      -7.1     14.231     17.620
REMARK  Name = NuBBE_1926
REMARK  5 active torsions:
REMARK  status: ('A' for Active; 'I' for Inactive)
REMARK    1  A    between atoms: C_1  and  C_2
REMARK    2  A    between atoms: C_8  and  C_9
REMARK    3  A    between atoms: C_8  and  C_10
REMARK    4  A    between atoms: C_17  and  C_18
REMARK    5  A    between atoms: C_17  and  C_19
REMARK                            x       y       z     vdW  Elec       q    Type
REMARK                         _______ _______ _______ _____ _____    ______ ____
ROOT
ATOM      1  C   LIG A   1      -7.415  10.189 140.757  0.00  0.00    +0.012 C 
ATOM      2  C   LIG A   1      -7.697  10.964 139.449  0.00  0.00    -0.021 C 
ATOM      3  C   LIG A   1      -9.171  11.533 139.348  0.00  0.00    +0.009 C 
ATOM      4  C   LIG A   1     -10.217  10.408 139.435  0.00  0.00    +0.084 C 
ATOM      5  C   LIG A   1      -9.972   9.313 138.420  0.00  0.00    +0.160 C 
ATOM      6  C   LIG A   1      -8.554   8.902 138.199  0.00  0.00    -0.004 C 
ATOM      7  C   LIG A   1      -8.310   7.591 138.030  0.00  0.00    -0.009 C 
ATOM      8  C   LIG A   1      -6.926   7.000 137.867  0.00  0.00    +0.004 C 
ATOM      9  C   LIG A   1      -6.850   5.689 138.678  0.00  0.00    +0.020 C 
ATOM     10  C   LIG A   1      -5.888   7.984 138.463  0.00  0.00    +0.015 C 
ATOM     11  C   LIG A   1      -6.081   9.429 137.991  0.00  0.00    +0.010 C 
ATOM     12  C   LIG A   1      -7.509   9.992 138.212  0.00  0.00    +0.028 C 
ATOM     13  O   LIG A   1     -10.902   8.713 137.883  0.00  0.00    -0.292 OA
ATOM     14  C   LIG A   1      -9.517  12.788 140.233  0.00  0.00    -0.031 C 
ATOM     15  C   LIG A   1     -10.820  13.450 139.710  0.00  0.00    +0.011 C 
ATOM     16  C   LIG A   1      -9.765  12.472 141.720  0.00  0.00    +0.011 C 
ATOM     17  C   LIG A   1      -8.399  13.848 140.097  0.00  0.00    +0.007 C 
ATOM     18  C   LIG A   1      -6.999  13.292 140.312  0.00  0.00    +0.001 C 
ATOM     19  C   LIG A   1      -6.699  12.150 139.349  0.00  0.00    +0.007 C 
ENDROOT
BRANCH   8  20
ATOM     20  C   LIG A   1      -6.723   6.635 136.401  0.00  0.00    -0.024 C 
ATOM     21  C   LIG A   1      -7.404   5.752 135.658  0.00  0.00    +0.005 C 
ENDBRANCH   8  20
TORSDOF 1
ENDMDL
MODEL 6
REMARK VINA RESULT:      -7.1      1.883      2.997
REMARK  Name = NuBBE_1926
REMARK  5 active torsions:
REMARK  status: ('A' for Active; 'I' for Inactive)
REMARK    1  A    between atoms: C_1  and  C_2
REMARK    2  A    between atoms: C_8  and  C_9
REMARK    3  A    between atoms: C_8  and  C_10
REMARK    4  A    between atoms: C_17  and  C_18
REMARK    5  A    between atoms: C_17  and  C_19
REMARK                            x       y       z     vdW  Elec       q    Type
REMARK                         _______ _______ _______ _____ _____    ______ ____
ROOT
ATOM      1  C   LIG A   1      -6.100  -2.193 126.928  0.00  0.00    +0.012 C 
ATOM      2  C   LIG A   1      -7.633  -2.133 127.121  0.00  0.00    -0.021 C 
ATOM      3  C   LIG A   1      -8.274  -0.741 126.727  0.00  0.00    +0.009 C 
ATOM      4  C   LIG A   1      -7.674   0.411 127.553  0.00  0.00    +0.084 C 
ATOM      5  C   LIG A   1      -7.764   0.159 129.042  0.00  0.00    +0.160 C 
ATOM      6  C   LIG A   1      -7.478  -1.229 129.510  0.00  0.00    -0.004 C 
ATOM      7  C   LIG A   1      -6.776  -1.365 130.649  0.00  0.00    -0.009 C 
ATOM      8  C   LIG A   1      -6.341  -2.697 131.223  0.00  0.00    +0.004 C 
ATOM      9  C   LIG A   1      -4.899  -2.557 131.757  0.00  0.00    +0.020 C 
ATOM     10  C   LIG A   1      -6.323  -3.750 130.087  0.00  0.00    +0.015 C 
ATOM     11  C   LIG A   1      -7.599  -3.749 129.238  0.00  0.00    +0.010 C 
ATOM     12  C   LIG A   1      -7.978  -2.366 128.650  0.00  0.00    +0.028 C 
ATOM     13  O   LIG A   1      -7.953   1.076 129.840  0.00  0.00    -0.292 OA
ATOM     14  C   LIG A   1      -8.398  -0.419 125.191  0.00  0.00    -0.031 C 
ATOM     15  C   LIG A   1      -9.400   0.750 124.983  0.00  0.00    +0.011 C 
ATOM     16  C   LIG A   1      -7.082   0.023 124.522  0.00  0.00    +0.011 C 
ATOM     17  C   LIG A   1      -8.985  -1.640 124.447  0.00  0.00    +0.007 C 
ATOM     18  C   LIG A   1      -8.274  -2.948 124.760  0.00  0.00    +0.001 C 
ATOM     19  C   LIG A   1      -8.287  -3.244 126.255  0.00  0.00    +0.007 C 
ENDROOT
BRANCH   8  20
ATOM     20  C   LIG A   1      -7.232  -3.027 132.415  0.00  0.00    -0.024 C 
ATOM     21  C   LIG A   1      -7.885  -2.184 133.228  0.00  0.00    +0.005 C 
ENDBRANCH   8  20
TORSDOF 1
ENDMDL
MODEL 7
REMARK VINA RESULT:      -7.0      8.674     10.866
REMARK  Name = NuBBE_1926
REMARK  5 active torsions:
REMARK  status: ('A' for Active; 'I' for Inactive)
REMARK    1  A    between atoms: C_1  and  C_2
REMARK    2  A    between atoms: C_8  and  C_9
REMARK    3  A    between atoms: C_8  and  C_10
REMARK    4  A    between atoms: C_17  and  C_18
REMARK    5  A    between atoms: C_17  and  C_19
REMARK                            x       y       z     vdW  Elec       q    Type
REMARK                         _______ _______ _______ _____ _____    ______ ____
ROOT
ATOM      1  C   LIG A   1      -6.088   5.108 130.317  0.00  0.00    +0.012 C 
ATOM      2  C   LIG A   1      -6.096   6.307 131.292  0.00  0.00    -0.021 C 
ATOM      3  C   LIG A   1      -5.350   6.026 132.660  0.00  0.00    +0.009 C 
ATOM      4  C   LIG A   1      -5.975   4.836 133.409  0.00  0.00    +0.084 C 
ATOM      5  C   LIG A   1      -7.465   5.002 133.613  0.00  0.00    +0.160 C 
ATOM      6  C   LIG A   1      -8.244   5.566 132.471  0.00  0.00    -0.004 C 
ATOM      7  C   LIG A   1      -9.455   5.036 132.227  0.00  0.00    -0.009 C 
ATOM      8  C   LIG A   1     -10.341   5.442 131.068  0.00  0.00    +0.004 C 
ATOM      9  C   LIG A   1     -10.986   4.173 130.472  0.00  0.00    +0.020 C 
ATOM     10  C   LIG A   1      -9.461   6.085 129.967  0.00  0.00    +0.015 C 
ATOM     11  C   LIG A   1      -8.497   7.149 130.505  0.00  0.00    +0.010 C 
ATOM     12  C   LIG A   1      -7.594   6.668 131.668  0.00  0.00    +0.028 C 
ATOM     13  O   LIG A   1      -8.026   4.589 134.626  0.00  0.00    -0.292 OA
ATOM     14  C   LIG A   1      -3.777   5.994 132.623  0.00  0.00    -0.031 C 
ATOM     15  C   LIG A   1      -3.220   6.129 134.067  0.00  0.00    +0.011 C 
ATOM     16  C   LIG A   1      -3.177   4.694 132.054  0.00  0.00    +0.011 C 
ATOM     17  C   LIG A   1      -3.247   7.212 131.831  0.00  0.00    +0.007 C 
ATOM     18  C   LIG A   1      -3.905   7.390 130.471  0.00  0.00    +0.001 C 
ATOM     19  C   LIG A   1      -5.418   7.519 130.597  0.00  0.00    +0.007 C 
ENDROOT
BRANCH   8  20
ATOM     20  C   LIG A   1     -11.471   6.314 131.604  0.00  0.00    -0.024 C 
ATOM     21  C   LIG A   1     -12.404   6.986 130.916  0.00  0.00    +0.005 C 
ENDBRANCH   8  20
TORSDOF 1
ENDMDL
MODEL 8
REMARK VINA RESULT:      -6.8      2.952      4.698
REMARK  Name = NuBBE_1926
REMARK  5 active torsions:
REMARK  status: ('A' for Active; 'I' for Inactive)
REMARK    1  A    between atoms: C_1  and  C_2
REMARK    2  A    between atoms: C_8  and  C_9
REMARK    3  A    between atoms: C_8  and  C_10
REMARK    4  A    between atoms: C_17  and  C_18
REMARK    5  A    between atoms: C_17  and  C_19
REMARK                            x       y       z     vdW  Elec       q    Type
REMARK                         _______ _______ _______ _____ _____    ______ ____
ROOT
ATOM      1  C   LIG A   1      -8.631   0.254 126.007  0.00  0.00    +0.012 C 
ATOM      2  C   LIG A   1      -7.567  -0.388 125.088  0.00  0.00    -0.021 C 
ATOM      3  C   LIG A   1      -7.348  -1.935 125.345  0.00  0.00    +0.009 C 
ATOM      4  C   LIG A   1      -6.912  -2.211 126.794  0.00  0.00    +0.084 C 
ATOM      5  C   LIG A   1      -5.695  -1.403 127.193  0.00  0.00    +0.160 C 
ATOM      6  C   LIG A   1      -5.645   0.015 126.729  0.00  0.00    -0.004 C 
ATOM      7  C   LIG A   1      -5.163   0.929 127.589  0.00  0.00    -0.009 C 
ATOM      8  C   LIG A   1      -5.110   2.416 127.306  0.00  0.00    +0.004 C 
ATOM      9  C   LIG A   1      -5.517   3.178 128.584  0.00  0.00    +0.020 C 
ATOM     10  C   LIG A   1      -6.147   2.752 126.205  0.00  0.00    +0.015 C 
ATOM     11  C   LIG A   1      -6.074   1.815 124.995  0.00  0.00    +0.010 C 
ATOM     12  C   LIG A   1      -6.165   0.308 125.343  0.00  0.00    +0.028 C 
ATOM     13  O   LIG A   1      -4.843  -1.857 127.955  0.00  0.00    -0.292 OA
ATOM     14  C   LIG A   1      -8.467  -2.912 124.825  0.00  0.00    -0.031 C 
ATOM     15  C   LIG A   1      -7.912  -4.362 124.777  0.00  0.00    +0.011 C 
ATOM     16  C   LIG A   1      -9.729  -2.967 125.708  0.00  0.00    +0.011 C 
ATOM     17  C   LIG A   1      -8.853  -2.541 123.374  0.00  0.00    +0.007 C 
ATOM     18  C   LIG A   1      -9.168  -1.065 123.183  0.00  0.00    +0.001 C 
ATOM     19  C   LIG A   1      -7.998  -0.186 123.610  0.00  0.00    +0.007 C 
ENDROOT
BRANCH   8  20
ATOM     20  C   LIG A   1      -3.668   2.798 126.993  0.00  0.00    -0.024 C 
ATOM     21  C   LIG A   1      -3.145   4.022 126.832  0.00  0.00    +0.005 C 
ENDBRANCH   8  20
TORSDOF 1
ENDMDL
MODEL 9
REMARK VINA RESULT:      -6.7      3.472      5.551
REMARK  Name = NuBBE_1926
REMARK  5 active torsions:
REMARK  status: ('A' for Active; 'I' for Inactive)
REMARK    1  A    between atoms: C_1  and  C_2
REMARK    2  A    between atoms: C_8  and  C_9
REMARK    3  A    between atoms: C_8  and  C_10
REMARK    4  A    between atoms: C_17  and  C_18
REMARK    5  A    between atoms: C_17  and  C_19
REMARK                            x       y       z     vdW  Elec       q    Type
REMARK                         _______ _______ _______ _____ _____    ______ ____
ROOT
ATOM      1  C   LIG A   1      -6.009  -0.594 130.114  0.00  0.00    +0.012 C 
ATOM      2  C   LIG A   1      -7.518  -0.911 129.998  0.00  0.00    -0.021 C 
ATOM      3  C   LIG A   1      -8.050  -0.960 128.508  0.00  0.00    +0.009 C 
ATOM      4  C   LIG A   1      -7.817   0.376 127.781  0.00  0.00    +0.084 C 
ATOM      5  C   LIG A   1      -8.394   1.552 128.539  0.00  0.00    +0.160 C 
ATOM      6  C   LIG A   1      -8.221   1.549 130.022  0.00  0.00    -0.004 C 
ATOM      7  C   LIG A   1      -7.941   2.724 130.614  0.00  0.00    -0.009 C 
ATOM      8  C   LIG A   1      -7.666   2.884 132.094  0.00  0.00    +0.004 C 
ATOM      9  C   LIG A   1      -6.498   3.875 132.275  0.00  0.00    +0.020 C 
ATOM     10  C   LIG A   1      -7.218   1.517 132.670  0.00  0.00    +0.015 C 
ATOM     11  C   LIG A   1      -8.131   0.357 132.259  0.00  0.00    +0.010 C 
ATOM     12  C   LIG A   1      -8.350   0.222 130.731  0.00  0.00    +0.028 C 
ATOM     13  O   LIG A   1      -8.881   2.517 127.955  0.00  0.00    -0.292 OA
ATOM     14  C   LIG A   1      -7.661  -2.222 127.651  0.00  0.00    -0.031 C 
ATOM     15  C   LIG A   1      -8.585  -2.309 126.405  0.00  0.00    +0.011 C 
ATOM     16  C   LIG A   1      -6.218  -2.209 127.112  0.00  0.00    +0.011 C 
ATOM     17  C   LIG A   1      -7.908  -3.509 128.473  0.00  0.00    +0.007 C 
ATOM     18  C   LIG A   1      -7.287  -3.476 129.861  0.00  0.00    +0.001 C 
ATOM     19  C   LIG A   1      -7.791  -2.286 130.668  0.00  0.00    +0.007 C 
ENDROOT
BRANCH   8  20
ATOM     20  C   LIG A   1      -8.893   3.507 132.750  0.00  0.00    -0.024 C 
ATOM     21  C   LIG A   1      -9.065   3.862 134.031  0.00  0.00    +0.005 C 
ENDBRANCH   8  20
TORSDOF 1
ENDMDL
