MODEL 1
REMARK VINA RESULT:      -6.7      0.000      0.000
REMARK  Name = NuBBE_2206
REMARK  10 active torsions:
REMARK  status: ('A' for Active; 'I' for Inactive)
REMARK    1  A    between atoms: C_1  and  C_3
REMARK    2  A    between atoms: C_1  and  C_7
REMARK    3  A    between atoms: C_4  and  C_5
REMARK    4  A    between atoms: C_4  and  C_6
REMARK    5  A    between atoms: C_9  and  C_10
REMARK    6  A    between atoms: C_10  and  O_11
REMARK    7  A    between atoms: C_10  and  C_15
REMARK    8  A    between atoms: O_11  and  C_12
REMARK    9  A    between atoms: C_12  and  C_14
REMARK   10  A    between atoms: C_18  and  O_19
REMARK                            x       y       z     vdW  Elec       q    Type
REMARK                         _______ _______ _______ _____ _____    ______ ____
ROOT
ATOM      1  C   LIG A   1      -7.787   1.994 123.810  0.00  0.00    +0.063 A 
ATOM      2  C   LIG A   1      -7.429   0.692 123.418  0.00  0.00    +0.022 A 
ATOM      3  C   LIG A   1      -8.099  -0.437 123.927  0.00  0.00    -0.007 A 
ATOM      4  C   LIG A   1      -9.117  -0.240 124.872  0.00  0.00    +0.011 A 
ATOM      5  C   LIG A   1      -9.493   1.050 125.257  0.00  0.00    +0.046 A 
ATOM      6  C   LIG A   1      -8.839   2.162 124.720  0.00  0.00    +0.128 A 
ENDROOT
BRANCH   1   7
ATOM      7  C   LIG A   1      -7.031   3.130 123.196  0.00  0.00    +0.190 C 
ATOM      8  O   LIG A   1      -6.219   3.756 123.867  0.00  0.00    -0.287 OA
BRANCH   7   9
ATOM      9  C   LIG A   1      -7.390   3.518 121.798  0.00  0.00    +0.050 C 
ATOM     10  C   LIG A   1      -6.557   3.808 120.781  0.00  0.00    -0.072 C 
ATOM     11  C   LIG A   1      -5.055   3.782 120.825  0.00  0.00    +0.039 C 
ATOM     12  C   LIG A   1      -7.132   4.174 119.436  0.00  0.00    +0.039 C 
ENDBRANCH   7   9
ENDBRANCH   1   7
BRANCH   3  13
ATOM     13  C   LIG A   1      -7.770  -1.843 123.447  0.00  0.00    +0.203 C 
ATOM     14  C   LIG A   1      -9.026  -2.671 123.187  0.00  0.00    +0.057 C 
BRANCH  13  15
ATOM     15  O   LIG A   1      -7.001  -2.548 124.441  0.00  0.00    -0.457 OA
BRANCH  15  16
ATOM     16  C   LIG A   1      -5.668  -2.293 124.458  0.00  0.00    +0.304 C 
ATOM     17  O   LIG A   1      -5.104  -1.488 125.193  0.00  0.00    -0.251 OA
ATOM     18  C   LIG A   1      -4.971  -3.117 123.421  0.00  0.00    +0.136 C 
ENDBRANCH  15  16
ENDBRANCH  13  15
ENDBRANCH   3  13
BRANCH   6  19
ATOM     19  O   LIG A   1      -9.265   3.408 125.084  0.00  0.00    -0.506 OA
ATOM     20  H   LIG A   1      -9.867   3.759 124.406  0.00  0.00    +0.292 HD
ENDBRANCH   6  19
TORSDOF 6
ENDMDL
MODEL 2
REMARK VINA RESULT:      -6.6      9.318     10.395
REMARK  Name = NuBBE_2206
REMARK  10 active torsions:
REMARK  status: ('A' for Active; 'I' for Inactive)
REMARK    1  A    between atoms: C_1  and  C_3
REMARK    2  A    between atoms: C_1  and  C_7
REMARK    3  A    between atoms: C_4  and  C_5
REMARK    4  A    between atoms: C_4  and  C_6
REMARK    5  A    between atoms: C_9  and  C_10
REMARK    6  A    between atoms: C_10  and  O_11
REMARK    7  A    between atoms: C_10  and  C_15
REMARK    8  A    between atoms: O_11  and  C_12
REMARK    9  A    between atoms: C_12  and  C_14
REMARK   10  A    between atoms: C_18  and  O_19
REMARK                            x       y       z     vdW  Elec       q    Type
REMARK                         _______ _______ _______ _____ _____    ______ ____
ROOT
ATOM      1  C   LIG A   1     -10.041   6.608 130.582  0.00  0.00    +0.063 A 
ATOM      2  C   LIG A   1      -8.634   6.599 130.573  0.00  0.00    +0.022 A 
ATOM      3  C   LIG A   1      -7.896   6.228 131.713  0.00  0.00    -0.007 A 
ATOM      4  C   LIG A   1      -8.595   5.900 132.884  0.00  0.00    +0.011 A 
ATOM      5  C   LIG A   1      -9.993   5.888 132.901  0.00  0.00    +0.046 A 
ATOM      6  C   LIG A   1     -10.711   6.229 131.753  0.00  0.00    +0.128 A 
ENDROOT
BRANCH   1   7
ATOM      7  C   LIG A   1     -10.735   6.994 129.315  0.00  0.00    +0.190 C 
ATOM      8  O   LIG A   1     -10.579   6.320 128.303  0.00  0.00    -0.287 OA
BRANCH   7   9
ATOM      9  C   LIG A   1     -11.514   8.270 129.320  0.00  0.00    +0.050 C 
ATOM     10  C   LIG A   1     -12.762   8.478 128.859  0.00  0.00    -0.072 C 
ATOM     11  C   LIG A   1     -13.669   7.447 128.248  0.00  0.00    +0.039 C 
ATOM     12  C   LIG A   1     -13.370   9.853 128.967  0.00  0.00    +0.039 C 
ENDBRANCH   7   9
ENDBRANCH   1   7
BRANCH   3  13
ATOM     13  C   LIG A   1      -6.377   6.140 131.685  0.00  0.00    +0.203 C 
ATOM     14  C   LIG A   1      -5.783   5.998 133.084  0.00  0.00    +0.057 C 
BRANCH  13  15
ATOM     15  O   LIG A   1      -5.812   7.333 131.109  0.00  0.00    -0.457 OA
BRANCH  15  16
ATOM     16  C   LIG A   1      -4.860   7.147 130.159  0.00  0.00    +0.304 C 
ATOM     17  O   LIG A   1      -4.825   6.221 129.354  0.00  0.00    -0.251 OA
ATOM     18  C   LIG A   1      -3.824   8.223 130.248  0.00  0.00    +0.136 C 
ENDBRANCH  15  16
ENDBRANCH  13  15
ENDBRANCH   3  13
BRANCH   6  19
ATOM     19  O   LIG A   1     -12.076   6.162 131.793  0.00  0.00    -0.506 OA
ATOM     20  H   LIG A   1     -12.359   5.764 132.633  0.00  0.00    +0.292 HD
ENDBRANCH   6  19
TORSDOF 6
ENDMDL
MODEL 3
REMARK VINA RESULT:      -6.6      1.743      2.691
REMARK  Name = NuBBE_2206
REMARK  10 active torsions:
REMARK  status: ('A' for Active; 'I' for Inactive)
REMARK    1  A    between atoms: C_1  and  C_3
REMARK    2  A    between atoms: C_1  and  C_7
REMARK    3  A    between atoms: C_4  and  C_5
REMARK    4  A    between atoms: C_4  and  C_6
REMARK    5  A    between atoms: C_9  and  C_10
REMARK    6  A    between atoms: C_10  and  O_11
REMARK    7  A    between atoms: C_10  and  C_15
REMARK    8  A    between atoms: O_11  and  C_12
REMARK    9  A    between atoms: C_12  and  C_14
REMARK   10  A    between atoms: C_18  and  O_19
REMARK                            x       y       z     vdW  Elec       q    Type
REMARK                         _______ _______ _______ _____ _____    ______ ____
ROOT
ATOM      1  C   LIG A   1      -6.991   1.743 124.386  0.00  0.00    +0.063 A 
ATOM      2  C   LIG A   1      -7.147   0.440 123.880  0.00  0.00    +0.022 A 
ATOM      3  C   LIG A   1      -6.481  -0.657 124.459  0.00  0.00    -0.007 A 
ATOM      4  C   LIG A   1      -5.619  -0.420 125.540  0.00  0.00    +0.011 A 
ATOM      5  C   LIG A   1      -5.469   0.868 126.064  0.00  0.00    +0.046 A 
ATOM      6  C   LIG A   1      -6.160   1.941 125.497  0.00  0.00    +0.128 A 
ENDROOT
BRANCH   1   7
ATOM      7  C   LIG A   1      -7.758   2.838 123.716  0.00  0.00    +0.190 C 
ATOM      8  O   LIG A   1      -8.635   3.433 124.331  0.00  0.00    -0.287 OA
BRANCH   7   9
ATOM      9  C   LIG A   1      -7.480   3.084 122.268  0.00  0.00    +0.050 C 
ATOM     10  C   LIG A   1      -6.425   3.721 121.725  0.00  0.00    -0.072 C 
ATOM     11  C   LIG A   1      -5.261   4.312 122.471  0.00  0.00    +0.039 C 
ATOM     12  C   LIG A   1      -6.335   3.856 120.227  0.00  0.00    +0.039 C 
ENDBRANCH   7   9
ENDBRANCH   1   7
BRANCH   3  13
ATOM     13  C   LIG A   1      -6.708  -2.079 123.966  0.00  0.00    +0.203 C 
ATOM     14  C   LIG A   1      -5.612  -2.538 123.008  0.00  0.00    +0.057 C 
BRANCH  13  15
ATOM     15  O   LIG A   1      -7.956  -2.173 123.252  0.00  0.00    -0.457 OA
BRANCH  15  16
ATOM     16  C   LIG A   1      -8.868  -3.044 123.753  0.00  0.00    +0.304 C 
ATOM     17  O   LIG A   1      -9.986  -3.253 123.292  0.00  0.00    -0.251 OA
ATOM     18  C   LIG A   1      -8.330  -3.703 124.984  0.00  0.00    +0.136 C 
ENDBRANCH  15  16
ENDBRANCH  13  15
ENDBRANCH   3  13
BRANCH   6  19
ATOM     19  O   LIG A   1      -6.023   3.177 126.064  0.00  0.00    -0.506 OA
ATOM     20  H   LIG A   1      -5.662   3.086 126.962  0.00  0.00    +0.292 HD
ENDBRANCH   6  19
TORSDOF 6
ENDMDL
MODEL 4
REMARK VINA RESULT:      -6.6      1.703      2.701
REMARK  Name = NuBBE_2206
REMARK  10 active torsions:
REMARK  status: ('A' for Active; 'I' for Inactive)
REMARK    1  A    between atoms: C_1  and  C_3
REMARK    2  A    between atoms: C_1  and  C_7
REMARK    3  A    between atoms: C_4  and  C_5
REMARK    4  A    between atoms: C_4  and  C_6
REMARK    5  A    between atoms: C_9  and  C_10
REMARK    6  A    between atoms: C_10  and  O_11
REMARK    7  A    between atoms: C_10  and  C_15
REMARK    8  A    between atoms: O_11  and  C_12
REMARK    9  A    between atoms: C_12  and  C_14
REMARK   10  A    between atoms: C_18  and  O_19
REMARK                            x       y       z     vdW  Elec       q    Type
REMARK                         _______ _______ _______ _____ _____    ______ ____
ROOT
ATOM      1  C   LIG A   1      -8.299   0.582 123.306  0.00  0.00    +0.063 A 
ATOM      2  C   LIG A   1      -7.101   0.021 123.782  0.00  0.00    +0.022 A 
ATOM      3  C   LIG A   1      -6.935  -1.372 123.891  0.00  0.00    -0.007 A 
ATOM      4  C   LIG A   1      -8.013  -2.202 123.547  0.00  0.00    +0.011 A 
ATOM      5  C   LIG A   1      -9.204  -1.658 123.056  0.00  0.00    +0.046 A 
ATOM      6  C   LIG A   1      -9.342  -0.274 122.925  0.00  0.00    +0.128 A 
ENDROOT
BRANCH   1   7
ATOM      7  C   LIG A   1      -8.370   2.072 123.206  0.00  0.00    +0.190 C 
ATOM      8  O   LIG A   1      -9.346   2.668 123.647  0.00  0.00    -0.287 OA
BRANCH   7   9
ATOM      9  C   LIG A   1      -7.274   2.763 122.461  0.00  0.00    +0.050 C 
ATOM     10  C   LIG A   1      -7.374   3.502 121.339  0.00  0.00    -0.072 C 
ATOM     11  C   LIG A   1      -8.638   3.817 120.590  0.00  0.00    +0.039 C 
ATOM     12  C   LIG A   1      -6.132   4.120 120.749  0.00  0.00    +0.039 C 
ENDBRANCH   7   9
ENDBRANCH   1   7
BRANCH   3  13
ATOM     13  C   LIG A   1      -5.614  -1.988 124.329  0.00  0.00    +0.203 C 
ATOM     14  C   LIG A   1      -5.080  -2.991 123.311  0.00  0.00    +0.057 C 
BRANCH  13  15
ATOM     15  O   LIG A   1      -5.776  -2.696 125.573  0.00  0.00    -0.457 OA
BRANCH  15  16
ATOM     16  C   LIG A   1      -5.977  -1.931 126.676  0.00  0.00    +0.304 C 
ATOM     17  O   LIG A   1      -5.254  -1.012 127.050  0.00  0.00    -0.251 OA
ATOM     18  C   LIG A   1      -7.202  -2.388 127.405  0.00  0.00    +0.136 C 
ENDBRANCH  15  16
ENDBRANCH  13  15
ENDBRANCH   3  13
BRANCH   6  19
ATOM     19  O   LIG A   1     -10.503   0.219 122.399  0.00  0.00    -0.506 OA
ATOM     20  H   LIG A   1     -11.192  -0.466 122.431  0.00  0.00    +0.292 HD
ENDBRANCH   6  19
TORSDOF 6
ENDMDL
MODEL 5
REMARK VINA RESULT:      -6.6      4.535      6.910
REMARK  Name = NuBBE_2206
REMARK  10 active torsions:
REMARK  status: ('A' for Active; 'I' for Inactive)
REMARK    1  A    between atoms: C_1  and  C_3
REMARK    2  A    between atoms: C_1  and  C_7
REMARK    3  A    between atoms: C_4  and  C_5
REMARK    4  A    between atoms: C_4  and  C_6
REMARK    5  A    between atoms: C_9  and  C_10
REMARK    6  A    between atoms: C_10  and  O_11
REMARK    7  A    between atoms: C_10  and  C_15
REMARK    8  A    between atoms: O_11  and  C_12
REMARK    9  A    between atoms: C_12  and  C_14
REMARK   10  A    between atoms: C_18  and  O_19
REMARK                            x       y       z     vdW  Elec       q    Type
REMARK                         _______ _______ _______ _____ _____    ______ ____
ROOT
ATOM      1  C   LIG A   1      -7.106  -2.448 128.108  0.00  0.00    +0.063 A 
ATOM      2  C   LIG A   1      -7.120  -2.312 126.708  0.00  0.00    +0.022 A 
ATOM      3  C   LIG A   1      -8.137  -2.889 125.925  0.00  0.00    -0.007 A 
ATOM      4  C   LIG A   1      -9.130  -3.642 126.570  0.00  0.00    +0.011 A 
ATOM      5  C   LIG A   1      -9.137  -3.771 127.962  0.00  0.00    +0.046 A 
ATOM      6  C   LIG A   1      -8.137  -3.167 128.728  0.00  0.00    +0.128 A 
ENDROOT
BRANCH   1   7
ATOM      7  C   LIG A   1      -5.995  -1.780 128.854  0.00  0.00    +0.190 C 
ATOM      8  O   LIG A   1      -6.211  -0.744 129.471  0.00  0.00    -0.287 OA
BRANCH   7   9
ATOM      9  C   LIG A   1      -4.627  -2.366 128.717  0.00  0.00    +0.050 C 
ATOM     10  C   LIG A   1      -4.119  -3.437 129.357  0.00  0.00    -0.072 C 
ATOM     11  C   LIG A   1      -4.839  -4.307 130.348  0.00  0.00    +0.039 C 
ATOM     12  C   LIG A   1      -2.704  -3.868 129.067  0.00  0.00    +0.039 C 
ENDBRANCH   7   9
ENDBRANCH   1   7
BRANCH   3  13
ATOM     13  C   LIG A   1      -8.202  -2.679 124.419  0.00  0.00    +0.203 C 
ATOM     14  C   LIG A   1      -9.464  -3.280 123.808  0.00  0.00    +0.057 C 
BRANCH  13  15
ATOM     15  O   LIG A   1      -7.080  -3.312 123.774  0.00  0.00    -0.457 OA
BRANCH  15  16
ATOM     16  C   LIG A   1      -6.127  -2.481 123.278  0.00  0.00    +0.304 C 
ATOM     17  O   LIG A   1      -6.336  -1.434 122.674  0.00  0.00    -0.251 OA
ATOM     18  C   LIG A   1      -4.765  -3.040 123.546  0.00  0.00    +0.136 C 
ENDBRANCH  15  16
ENDBRANCH  13  15
ENDBRANCH   3  13
BRANCH   6  19
ATOM     19  O   LIG A   1      -8.203  -3.275 130.089  0.00  0.00    -0.506 OA
ATOM     20  H   LIG A   1      -7.327  -3.509 130.440  0.00  0.00    +0.292 HD
ENDBRANCH   6  19
TORSDOF 6
ENDMDL
MODEL 6
REMARK VINA RESULT:      -6.5      1.715      5.755
REMARK  Name = NuBBE_2206
REMARK  10 active torsions:
REMARK  status: ('A' for Active; 'I' for Inactive)
REMARK    1  A    between atoms: C_1  and  C_3
REMARK    2  A    between atoms: C_1  and  C_7
REMARK    3  A    between atoms: C_4  and  C_5
REMARK    4  A    between atoms: C_4  and  C_6
REMARK    5  A    between atoms: C_9  and  C_10
REMARK    6  A    between atoms: C_10  and  O_11
REMARK    7  A    between atoms: C_10  and  C_15
REMARK    8  A    between atoms: O_11  and  C_12
REMARK    9  A    between atoms: C_12  and  C_14
REMARK   10  A    between atoms: C_18  and  O_19
REMARK                            x       y       z     vdW  Elec       q    Type
REMARK                         _______ _______ _______ _____ _____    ______ ____
ROOT
ATOM      1  C   LIG A   1      -8.137  -0.177 123.830  0.00  0.00    +0.063 A 
ATOM      2  C   LIG A   1      -7.294   0.795 123.260  0.00  0.00    +0.022 A 
ATOM      3  C   LIG A   1      -7.257   2.113 123.752  0.00  0.00    -0.007 A 
ATOM      4  C   LIG A   1      -8.113   2.456 124.810  0.00  0.00    +0.011 A 
ATOM      5  C   LIG A   1      -8.943   1.495 125.396  0.00  0.00    +0.046 A 
ATOM      6  C   LIG A   1      -8.946   0.184 124.916  0.00  0.00    +0.128 A 
ENDROOT
BRANCH   1   7
ATOM      7  C   LIG A   1      -8.088  -1.555 123.252  0.00  0.00    +0.190 C 
ATOM      8  O   LIG A   1      -9.126  -2.186 123.089  0.00  0.00    -0.287 OA
BRANCH   7   9
ATOM      9  C   LIG A   1      -6.739  -2.145 122.996  0.00  0.00    +0.050 C 
ATOM     10  C   LIG A   1      -5.841  -2.579 123.902  0.00  0.00    -0.072 C 
ATOM     11  C   LIG A   1      -6.015  -2.586 125.395  0.00  0.00    +0.039 C 
ATOM     12  C   LIG A   1      -4.530  -3.150 123.427  0.00  0.00    +0.039 C 
ENDBRANCH   7   9
ENDBRANCH   1   7
BRANCH   3  13
ATOM     13  C   LIG A   1      -6.290   3.147 123.193  0.00  0.00    +0.203 C 
ATOM     14  C   LIG A   1      -5.971   4.244 124.205  0.00  0.00    +0.057 C 
BRANCH  13  15
ATOM     15  O   LIG A   1      -6.857   3.793 122.036  0.00  0.00    -0.457 OA
BRANCH  15  16
ATOM     16  C   LIG A   1      -6.098   3.781 120.911  0.00  0.00    +0.304 C 
ATOM     17  O   LIG A   1      -4.908   3.487 120.855  0.00  0.00    -0.251 OA
ATOM     18  C   LIG A   1      -6.914   4.213 119.733  0.00  0.00    +0.136 C 
ENDBRANCH  15  16
ENDBRANCH  13  15
ENDBRANCH   3  13
BRANCH   6  19
ATOM     19  O   LIG A   1      -9.736  -0.739 125.544  0.00  0.00    -0.506 OA
ATOM     20  H   LIG A   1      -9.301  -1.040 126.359  0.00  0.00    +0.292 HD
ENDBRANCH   6  19
TORSDOF 6
ENDMDL
MODEL 7
REMARK VINA RESULT:      -6.5      2.015      5.899
REMARK  Name = NuBBE_2206
REMARK  10 active torsions:
REMARK  status: ('A' for Active; 'I' for Inactive)
REMARK    1  A    between atoms: C_1  and  C_3
REMARK    2  A    between atoms: C_1  and  C_7
REMARK    3  A    between atoms: C_4  and  C_5
REMARK    4  A    between atoms: C_4  and  C_6
REMARK    5  A    between atoms: C_9  and  C_10
REMARK    6  A    between atoms: C_10  and  O_11
REMARK    7  A    between atoms: C_10  and  C_15
REMARK    8  A    between atoms: O_11  and  C_12
REMARK    9  A    between atoms: C_12  and  C_14
REMARK   10  A    between atoms: C_18  and  O_19
REMARK                            x       y       z     vdW  Elec       q    Type
REMARK                         _______ _______ _______ _____ _____    ______ ____
ROOT
ATOM      1  C   LIG A   1      -6.382   0.078 125.431  0.00  0.00    +0.063 A 
ATOM      2  C   LIG A   1      -6.913   0.903 124.423  0.00  0.00    +0.022 A 
ATOM      3  C   LIG A   1      -6.561   2.262 124.326  0.00  0.00    -0.007 A 
ATOM      4  C   LIG A   1      -5.689   2.796 125.287  0.00  0.00    +0.011 A 
ATOM      5  C   LIG A   1      -5.141   1.983 126.283  0.00  0.00    +0.046 A 
ATOM      6  C   LIG A   1      -5.476   0.629 126.347  0.00  0.00    +0.128 A 
ENDROOT
BRANCH   1   7
ATOM      7  C   LIG A   1      -6.800  -1.358 125.437  0.00  0.00    +0.190 C 
ATOM      8  O   LIG A   1      -7.894  -1.674 125.889  0.00  0.00    -0.287 OA
BRANCH   7   9
ATOM      9  C   LIG A   1      -5.796  -2.367 124.979  0.00  0.00    +0.050 C 
ATOM     10  C   LIG A   1      -5.486  -2.709 123.714  0.00  0.00    -0.072 C 
ATOM     11  C   LIG A   1      -6.077  -2.123 122.462  0.00  0.00    +0.039 C 
ATOM     12  C   LIG A   1      -4.430  -3.757 123.470  0.00  0.00    +0.039 C 
ENDBRANCH   7   9
ENDBRANCH   1   7
BRANCH   3  13
ATOM     13  C   LIG A   1      -7.070   3.139 123.192  0.00  0.00    +0.203 C 
ATOM     14  C   LIG A   1      -8.490   2.770 122.771  0.00  0.00    +0.057 C 
BRANCH  13  15
ATOM     15  O   LIG A   1      -6.235   2.992 122.027  0.00  0.00    -0.457 OA
BRANCH  15  16
ATOM     16  C   LIG A   1      -5.694   4.134 121.531  0.00  0.00    +0.304 C 
ATOM     17  O   LIG A   1      -4.960   4.903 122.145  0.00  0.00    -0.251 OA
ATOM     18  C   LIG A   1      -6.145   4.349 120.120  0.00  0.00    +0.136 C 
ENDBRANCH  15  16
ENDBRANCH  13  15
ENDBRANCH   3  13
BRANCH   6  19
ATOM     19  O   LIG A   1      -4.885  -0.145 127.307  0.00  0.00    -0.506 OA
ATOM     20  H   LIG A   1      -4.869   0.337 128.151  0.00  0.00    +0.292 HD
ENDBRANCH   6  19
TORSDOF 6
ENDMDL
MODEL 8
REMARK VINA RESULT:      -6.5      1.864      5.622
REMARK  Name = NuBBE_2206
REMARK  10 active torsions:
REMARK  status: ('A' for Active; 'I' for Inactive)
REMARK    1  A    between atoms: C_1  and  C_3
REMARK    2  A    between atoms: C_1  and  C_7
REMARK    3  A    between atoms: C_4  and  C_5
REMARK    4  A    between atoms: C_4  and  C_6
REMARK    5  A    between atoms: C_9  and  C_10
REMARK    6  A    between atoms: C_10  and  O_11
REMARK    7  A    between atoms: C_10  and  C_15
REMARK    8  A    between atoms: O_11  and  C_12
REMARK    9  A    between atoms: C_12  and  C_14
REMARK   10  A    between atoms: C_18  and  O_19
REMARK                            x       y       z     vdW  Elec       q    Type
REMARK                         _______ _______ _______ _____ _____    ______ ____
ROOT
ATOM      1  C   LIG A   1      -7.756   0.213 124.482  0.00  0.00    +0.063 A 
ATOM      2  C   LIG A   1      -7.310   1.308 123.720  0.00  0.00    +0.022 A 
ATOM      3  C   LIG A   1      -8.197   2.057 122.923  0.00  0.00    -0.007 A 
ATOM      4  C   LIG A   1      -9.543   1.663 122.872  0.00  0.00    +0.011 A 
ATOM      5  C   LIG A   1     -10.002   0.587 123.637  0.00  0.00    +0.046 A 
ATOM      6  C   LIG A   1      -9.115  -0.127 124.447  0.00  0.00    +0.128 A 
ENDROOT
BRANCH   1   7
ATOM      7  C   LIG A   1      -6.741  -0.505 125.313  0.00  0.00    +0.190 C 
ATOM      8  O   LIG A   1      -6.713  -0.331 126.526  0.00  0.00    -0.287 OA
BRANCH   7   9
ATOM      9  C   LIG A   1      -5.725  -1.332 124.595  0.00  0.00    +0.050 C 
ATOM     10  C   LIG A   1      -5.843  -2.607 124.176  0.00  0.00    -0.072 C 
ATOM     11  C   LIG A   1      -7.055  -3.484 124.323  0.00  0.00    +0.039 C 
ATOM     12  C   LIG A   1      -4.689  -3.259 123.458  0.00  0.00    +0.039 C 
ENDBRANCH   7   9
ENDBRANCH   1   7
BRANCH   3  13
ATOM     13  C   LIG A   1      -7.737   3.290 122.160  0.00  0.00    +0.203 C 
ATOM     14  C   LIG A   1      -8.636   3.596 120.965  0.00  0.00    +0.057 C 
BRANCH  13  15
ATOM     15  O   LIG A   1      -6.405   3.098 121.645  0.00  0.00    -0.457 OA
BRANCH  15  16
ATOM     16  C   LIG A   1      -5.584   4.178 121.690  0.00  0.00    +0.304 C 
ATOM     17  O   LIG A   1      -5.193   4.736 122.711  0.00  0.00    -0.251 OA
ATOM     18  C   LIG A   1      -5.240   4.622 120.303  0.00  0.00    +0.136 C 
ENDBRANCH  15  16
ENDBRANCH  13  15
ENDBRANCH   3  13
BRANCH   6  19
ATOM     19  O   LIG A   1      -9.608  -1.144 125.216  0.00  0.00    -0.506 OA
ATOM     20  H   LIG A   1      -9.049  -1.932 125.111  0.00  0.00    +0.292 HD
ENDBRANCH   6  19
TORSDOF 6
ENDMDL
MODEL 9
REMARK VINA RESULT:      -6.5      3.041      4.466
REMARK  Name = NuBBE_2206
REMARK  10 active torsions:
REMARK  status: ('A' for Active; 'I' for Inactive)
REMARK    1  A    between atoms: C_1  and  C_3
REMARK    2  A    between atoms: C_1  and  C_7
REMARK    3  A    between atoms: C_4  and  C_5
REMARK    4  A    between atoms: C_4  and  C_6
REMARK    5  A    between atoms: C_9  and  C_10
REMARK    6  A    between atoms: C_10  and  O_11
REMARK    7  A    between atoms: C_10  and  C_15
REMARK    8  A    between atoms: O_11  and  C_12
REMARK    9  A    between atoms: C_12  and  C_14
REMARK   10  A    between atoms: C_18  and  O_19
REMARK                            x       y       z     vdW  Elec       q    Type
REMARK                         _______ _______ _______ _____ _____    ______ ____
ROOT
ATOM      1  C   LIG A   1      -5.923   3.085 124.844  0.00  0.00    +0.063 A 
ATOM      2  C   LIG A   1      -6.186   1.794 125.338  0.00  0.00    +0.022 A 
ATOM      3  C   LIG A   1      -6.863   0.835 124.561  0.00  0.00    -0.007 A 
ATOM      4  C   LIG A   1      -7.310   1.205 123.284  0.00  0.00    +0.011 A 
ATOM      5  C   LIG A   1      -7.040   2.479 122.775  0.00  0.00    +0.046 A 
ATOM      6  C   LIG A   1      -6.341   3.409 123.546  0.00  0.00    +0.128 A 
ENDROOT
BRANCH   1   7
ATOM      7  C   LIG A   1      -5.178   4.025 125.736  0.00  0.00    +0.190 C 
ATOM      8  O   LIG A   1      -5.755   4.991 126.223  0.00  0.00    -0.287 OA
BRANCH   7   9
ATOM      9  C   LIG A   1      -3.712   3.793 125.907  0.00  0.00    +0.050 C 
ATOM     10  C   LIG A   1      -3.086   3.173 126.927  0.00  0.00    -0.072 C 
ATOM     11  C   LIG A   1      -3.742   2.546 128.125  0.00  0.00    +0.039 C 
ATOM     12  C   LIG A   1      -1.585   3.039 126.900  0.00  0.00    +0.039 C 
ENDBRANCH   7   9
ENDBRANCH   1   7
BRANCH   3  13
ATOM     13  C   LIG A   1      -7.079  -0.587 125.059  0.00  0.00    +0.203 C 
ATOM     14  C   LIG A   1      -5.763  -1.304 125.343  0.00  0.00    +0.057 C 
BRANCH  13  15
ATOM     15  O   LIG A   1      -7.778  -1.366 124.070  0.00  0.00    -0.457 OA
BRANCH  15  16
ATOM     16  C   LIG A   1      -8.907  -1.992 124.489  0.00  0.00    +0.304 C 
ATOM     17  O   LIG A   1      -9.544  -1.717 125.502  0.00  0.00    -0.251 OA
ATOM     18  C   LIG A   1      -9.261  -3.103 123.551  0.00  0.00    +0.136 C 
ENDBRANCH  15  16
ENDBRANCH  13  15
ENDBRANCH   3  13
BRANCH   6  19
ATOM     19  O   LIG A   1      -6.056   4.629 122.998  0.00  0.00    -0.506 OA
ATOM     20  H   LIG A   1      -6.881   5.070 122.736  0.00  0.00    +0.292 HD
ENDBRANCH   6  19
TORSDOF 6
ENDMDL
