MODEL 1
REMARK VINA RESULT:      -7.5      0.000      0.000
REMARK  Name = NuBBE_310
REMARK  18 active torsions:
REMARK  status: ('A' for Active; 'I' for Inactive)
REMARK    1  A    between atoms: C_3  and  C_4
REMARK    2  A    between atoms: C_5  and  O_6
REMARK    3  A    between atoms: O_6  and  C_7
REMARK    4  A    between atoms: C_7  and  C_8
REMARK    5  A    between atoms: C_9  and  C_10
REMARK    6  A    between atoms: C_13  and  O_14
REMARK    7  A    between atoms: C_20  and  C_21
REMARK    8  A    between atoms: C_21  and  C_22
REMARK    9  A    between atoms: C_22  and  C_23
REMARK   10  A    between atoms: C_23  and  C_24
REMARK   11  A    between atoms: C_24  and  C_25
REMARK   12  A    between atoms: C_25  and  C_26
REMARK   13  A    between atoms: C_26  and  C_27
REMARK   14  A    between atoms: C_27  and  C_28
REMARK   15  A    between atoms: C_28  and  C_29
REMARK   16  A    between atoms: C_29  and  C_30
REMARK   17  A    between atoms: C_30  and  C_31
REMARK   18  A    between atoms: C_31  and  C_32
REMARK                            x       y       z     vdW  Elec       q    Type
REMARK                         _______ _______ _______ _____ _____    ______ ____
ROOT
ATOM      1  H   LIG A   1      -6.803   0.824 130.061  0.00  0.00    +0.123 HD
ATOM      2  N   LIG A   1      -7.328   0.377 129.310  0.00  0.00    -0.307 NA
ATOM      3  C   LIG A   1      -7.735   1.395 128.333  0.00  0.00    +0.092 C 
ATOM      4  C   LIG A   1      -8.771   2.351 128.942  0.00  0.00    +0.028 C 
ATOM      5  C   LIG A   1      -6.549   2.101 127.659  0.00  0.00    +0.193 C 
ATOM      6  C   LIG A   1      -5.434   1.142 127.204  0.00  0.00    +0.048 C 
ATOM      7  C   LIG A   1      -5.196  -0.025 128.144  0.00  0.00    +0.022 C 
ATOM      8  C   LIG A   1      -6.493  -0.669 128.685  0.00  0.00    +0.054 C 
ENDROOT
BRANCH   8   9
ATOM      9  C   LIG A   1      -7.226  -1.569 127.633  0.00  0.00    +0.019 C 
BRANCH   9  10
ATOM     10  C   LIG A   1      -8.192  -2.610 128.238  0.00  0.00    +0.002 C 
BRANCH  10  11
ATOM     11  C   LIG A   1      -8.785  -3.637 127.253  0.00  0.00    +0.000 C 
BRANCH  11  12
ATOM     12  C   LIG A   1      -9.584  -3.137 126.036  0.00  0.00    -0.000 C 
BRANCH  12  13
ATOM     13  C   LIG A   1      -8.962  -3.264 124.623  0.00  0.00    -0.000 C 
BRANCH  13  14
ATOM     14  C   LIG A   1      -7.473  -3.603 124.550  0.00  0.00    -0.000 C 
BRANCH  14  15
ATOM     15  C   LIG A   1      -6.583  -2.811 123.596  0.00  0.00    +0.000 C 
BRANCH  15  16
ATOM     16  C   LIG A   1      -6.148  -1.465 124.138  0.00  0.00    +0.000 C 
BRANCH  16  17
ATOM     17  C   LIG A   1      -6.893  -0.246 123.577  0.00  0.00    +0.007 C 
BRANCH  17  18
ATOM     18  C   LIG A   1      -8.025   0.286 124.452  0.00  0.00    +0.074 C 
BRANCH  18  19
ATOM     19  C   LIG A   1      -9.367   0.386 123.752  0.00  0.00    +0.130 C 
ATOM     20  C   LIG A   1     -10.247   1.571 124.098  0.00  0.00    +0.086 C 
ATOM     21  O   LIG A   1      -9.707  -0.437 122.900  0.00  0.00    -0.298 OA
ENDBRANCH  18  19
ENDBRANCH  17  18
ENDBRANCH  16  17
ENDBRANCH  15  16
ENDBRANCH  14  15
ENDBRANCH  13  14
ENDBRANCH  12  13
ENDBRANCH  11  12
ENDBRANCH  10  11
ENDBRANCH   9  10
ENDBRANCH   8   9
BRANCH   5  22
ATOM     22  O   LIG A   1      -6.967   2.901 126.538  0.00  0.00    -0.457 OA
BRANCH  22  23
ATOM     23  C   LIG A   1      -6.247   4.043 126.274  0.00  0.00    +0.332 C 
ATOM     24  O   LIG A   1      -5.748   4.816 127.034  0.00  0.00    -0.246 OA
BRANCH  23  25
ATOM     25  C   LIG A   1      -6.405   4.357 124.849  0.00  0.00    +0.092 C 
ATOM     26  C   LIG A   1      -6.226   3.426 123.922  0.00  0.00    +0.015 C 
BRANCH  26  27
ATOM     27  C   LIG A   1      -6.474   3.682 122.509  0.00  0.00    -0.025 A 
ATOM     28  C   LIG A   1      -5.466   4.173 121.668  0.00  0.00    +0.011 A 
ATOM     29  C   LIG A   1      -5.734   4.404 120.323  0.00  0.00    +0.046 A 
ATOM     30  C   LIG A   1      -7.013   4.159 119.837  0.00  0.00    +0.117 A 
ATOM     31  C   LIG A   1      -8.029   3.707 120.671  0.00  0.00    +0.046 A 
ATOM     32  C   LIG A   1      -7.761   3.471 122.015  0.00  0.00    +0.011 A 
BRANCH  30  33
ATOM     33  O   LIG A   1      -7.312   4.352 118.523  0.00  0.00    -0.507 OA
ATOM     34  H   LIG A   1      -6.715   5.035 118.175  0.00  0.00    +0.292 HD
ENDBRANCH  30  33
ENDBRANCH  26  27
ENDBRANCH  23  25
ENDBRANCH  22  23
ENDBRANCH   5  22
TORSDOF 16
ENDMDL
MODEL 2
REMARK VINA RESULT:      -7.5      2.692      5.263
REMARK  Name = NuBBE_310
REMARK  18 active torsions:
REMARK  status: ('A' for Active; 'I' for Inactive)
REMARK    1  A    between atoms: C_3  and  C_4
REMARK    2  A    between atoms: C_5  and  O_6
REMARK    3  A    between atoms: O_6  and  C_7
REMARK    4  A    between atoms: C_7  and  C_8
REMARK    5  A    between atoms: C_9  and  C_10
REMARK    6  A    between atoms: C_13  and  O_14
REMARK    7  A    between atoms: C_20  and  C_21
REMARK    8  A    between atoms: C_21  and  C_22
REMARK    9  A    between atoms: C_22  and  C_23
REMARK   10  A    between atoms: C_23  and  C_24
REMARK   11  A    between atoms: C_24  and  C_25
REMARK   12  A    between atoms: C_25  and  C_26
REMARK   13  A    between atoms: C_26  and  C_27
REMARK   14  A    between atoms: C_27  and  C_28
REMARK   15  A    between atoms: C_28  and  C_29
REMARK   16  A    between atoms: C_29  and  C_30
REMARK   17  A    between atoms: C_30  and  C_31
REMARK   18  A    between atoms: C_31  and  C_32
REMARK                            x       y       z     vdW  Elec       q    Type
REMARK                         _______ _______ _______ _____ _____    ______ ____
ROOT
ATOM      1  H   LIG A   1     -10.504  -1.362 123.404  0.00  0.00    +0.123 HD
ATOM      2  N   LIG A   1      -9.538  -1.110 123.194  0.00  0.00    -0.307 NA
ATOM      3  C   LIG A   1      -9.365   0.336 123.382  0.00  0.00    +0.092 C 
ATOM      4  C   LIG A   1     -10.151   1.122 122.323  0.00  0.00    +0.028 C 
ATOM      5  C   LIG A   1      -9.620   0.798 124.825  0.00  0.00    +0.193 C 
ATOM      6  C   LIG A   1      -8.964  -0.100 125.889  0.00  0.00    +0.048 C 
ATOM      7  C   LIG A   1      -8.972  -1.578 125.545  0.00  0.00    +0.022 C 
ATOM      8  C   LIG A   1      -8.631  -1.881 124.068  0.00  0.00    +0.054 C 
ENDROOT
BRANCH   8   9
ATOM      9  C   LIG A   1      -7.105  -1.738 123.741  0.00  0.00    +0.019 C 
BRANCH   9  10
ATOM     10  C   LIG A   1      -6.168  -2.502 124.700  0.00  0.00    +0.002 C 
BRANCH  10  11
ATOM     11  C   LIG A   1      -5.536  -1.672 125.835  0.00  0.00    +0.000 C 
BRANCH  11  12
ATOM     12  C   LIG A   1      -5.652  -2.173 127.285  0.00  0.00    -0.000 C 
BRANCH  12  13
ATOM     13  C   LIG A   1      -6.189  -1.212 128.374  0.00  0.00    -0.000 C 
BRANCH  13  14
ATOM     14  C   LIG A   1      -7.514  -1.588 129.038  0.00  0.00    -0.000 C 
BRANCH  14  15
ATOM     15  C   LIG A   1      -7.757  -3.044 129.423  0.00  0.00    +0.000 C 
BRANCH  15  16
ATOM     16  C   LIG A   1      -6.961  -3.503 130.627  0.00  0.00    +0.000 C 
BRANCH  16  17
ATOM     17  C   LIG A   1      -5.674  -4.279 130.322  0.00  0.00    +0.007 C 
BRANCH  17  18
ATOM     18  C   LIG A   1      -4.433  -3.807 131.076  0.00  0.00    +0.074 C 
BRANCH  18  19
ATOM     19  C   LIG A   1      -3.363  -3.183 130.199  0.00  0.00    +0.130 C 
ATOM     20  C   LIG A   1      -2.975  -3.927 128.938  0.00  0.00    +0.086 C 
ATOM     21  O   LIG A   1      -2.865  -2.090 130.478  0.00  0.00    -0.298 OA
ENDBRANCH  18  19
ENDBRANCH  17  18
ENDBRANCH  16  17
ENDBRANCH  15  16
ENDBRANCH  14  15
ENDBRANCH  13  14
ENDBRANCH  12  13
ENDBRANCH  11  12
ENDBRANCH  10  11
ENDBRANCH   9  10
ENDBRANCH   8   9
BRANCH   5  22
ATOM     22  O   LIG A   1      -9.200   2.159 125.034  0.00  0.00    -0.457 OA
BRANCH  22  23
ATOM     23  C   LIG A   1      -7.849   2.392 125.150  0.00  0.00    +0.332 C 
ATOM     24  O   LIG A   1      -7.119   2.176 126.067  0.00  0.00    -0.246 OA
BRANCH  23  25
ATOM     25  C   LIG A   1      -7.441   3.242 124.024  0.00  0.00    +0.092 C 
ATOM     26  C   LIG A   1      -6.755   2.740 123.005  0.00  0.00    +0.015 C 
BRANCH  26  27
ATOM     27  C   LIG A   1      -6.424   3.534 121.829  0.00  0.00    -0.025 A 
ATOM     28  C   LIG A   1      -5.230   4.263 121.752  0.00  0.00    +0.011 A 
ATOM     29  C   LIG A   1      -4.942   5.009 120.614  0.00  0.00    +0.046 A 
ATOM     30  C   LIG A   1      -5.860   5.033 119.572  0.00  0.00    +0.117 A 
ATOM     31  C   LIG A   1      -7.065   4.343 119.654  0.00  0.00    +0.046 A 
ATOM     32  C   LIG A   1      -7.351   3.594 120.789  0.00  0.00    +0.011 A 
BRANCH  30  33
ATOM     33  O   LIG A   1      -5.609   5.733 118.431  0.00  0.00    -0.507 OA
ATOM     34  H   LIG A   1      -5.315   5.105 117.751  0.00  0.00    +0.292 HD
ENDBRANCH  30  33
ENDBRANCH  26  27
ENDBRANCH  23  25
ENDBRANCH  22  23
ENDBRANCH   5  22
TORSDOF 16
ENDMDL
MODEL 3
REMARK VINA RESULT:      -7.2      1.987      4.951
REMARK  Name = NuBBE_310
REMARK  18 active torsions:
REMARK  status: ('A' for Active; 'I' for Inactive)
REMARK    1  A    between atoms: C_3  and  C_4
REMARK    2  A    between atoms: C_5  and  O_6
REMARK    3  A    between atoms: O_6  and  C_7
REMARK    4  A    between atoms: C_7  and  C_8
REMARK    5  A    between atoms: C_9  and  C_10
REMARK    6  A    between atoms: C_13  and  O_14
REMARK    7  A    between atoms: C_20  and  C_21
REMARK    8  A    between atoms: C_21  and  C_22
REMARK    9  A    between atoms: C_22  and  C_23
REMARK   10  A    between atoms: C_23  and  C_24
REMARK   11  A    between atoms: C_24  and  C_25
REMARK   12  A    between atoms: C_25  and  C_26
REMARK   13  A    between atoms: C_26  and  C_27
REMARK   14  A    between atoms: C_27  and  C_28
REMARK   15  A    between atoms: C_28  and  C_29
REMARK   16  A    between atoms: C_29  and  C_30
REMARK   17  A    between atoms: C_30  and  C_31
REMARK   18  A    between atoms: C_31  and  C_32
REMARK                            x       y       z     vdW  Elec       q    Type
REMARK                         _______ _______ _______ _____ _____    ______ ____
ROOT
ATOM      1  H   LIG A   1      -7.219  -4.147 123.528  0.00  0.00    +0.123 HD
ATOM      2  N   LIG A   1      -7.429  -3.634 124.384  0.00  0.00    -0.307 NA
ATOM      3  C   LIG A   1      -6.739  -2.338 124.352  0.00  0.00    +0.092 C 
ATOM      4  C   LIG A   1      -5.218  -2.527 124.442  0.00  0.00    +0.028 C 
ATOM      5  C   LIG A   1      -7.192  -1.435 123.194  0.00  0.00    +0.193 C 
ATOM      6  C   LIG A   1      -8.719  -1.387 123.005  0.00  0.00    +0.048 C 
ATOM      7  C   LIG A   1      -9.419  -2.708 123.265  0.00  0.00    +0.022 C 
ATOM      8  C   LIG A   1      -8.891  -3.465 124.506  0.00  0.00    +0.054 C 
ENDROOT
BRANCH   8   9
ATOM      9  C   LIG A   1      -9.383  -2.853 125.862  0.00  0.00    +0.019 C 
BRANCH   9  10
ATOM     10  C   LIG A   1      -8.924  -3.621 127.119  0.00  0.00    +0.002 C 
BRANCH  10  11
ATOM     11  C   LIG A   1      -8.143  -2.804 128.167  0.00  0.00    +0.000 C 
BRANCH  11  12
ATOM     12  C   LIG A   1      -6.623  -2.627 128.002  0.00  0.00    -0.000 C 
BRANCH  12  13
ATOM     13  C   LIG A   1      -5.998  -1.228 128.228  0.00  0.00    -0.000 C 
BRANCH  13  14
ATOM     14  C   LIG A   1      -6.418  -0.119 127.264  0.00  0.00    -0.000 C 
BRANCH  14  15
ATOM     15  C   LIG A   1      -5.346   0.801 126.687  0.00  0.00    +0.000 C 
BRANCH  15  16
ATOM     16  C   LIG A   1      -5.706   2.271 126.738  0.00  0.00    +0.000 C 
BRANCH  16  17
ATOM     17  C   LIG A   1      -5.229   3.118 125.551  0.00  0.00    +0.007 C 
BRANCH  17  18
ATOM     18  C   LIG A   1      -4.013   4.000 125.825  0.00  0.00    +0.074 C 
BRANCH  18  19
ATOM     19  C   LIG A   1      -3.952   4.568 127.231  0.00  0.00    +0.130 C 
ATOM     20  C   LIG A   1      -2.893   4.012 128.161  0.00  0.00    +0.086 C 
ATOM     21  O   LIG A   1      -4.702   5.480 127.585  0.00  0.00    -0.298 OA
ENDBRANCH  18  19
ENDBRANCH  17  18
ENDBRANCH  16  17
ENDBRANCH  15  16
ENDBRANCH  14  15
ENDBRANCH  13  14
ENDBRANCH  12  13
ENDBRANCH  11  12
ENDBRANCH  10  11
ENDBRANCH   9  10
ENDBRANCH   8   9
BRANCH   5  22
ATOM     22  O   LIG A   1      -6.693  -0.092 123.334  0.00  0.00    -0.457 OA
BRANCH  22  23
ATOM     23  C   LIG A   1      -7.600   0.887 123.667  0.00  0.00    +0.332 C 
ATOM     24  O   LIG A   1      -8.495   0.853 124.455  0.00  0.00    -0.246 OA
BRANCH  23  25
ATOM     25  C   LIG A   1      -7.488   1.963 122.674  0.00  0.00    +0.092 C 
ATOM     26  C   LIG A   1      -6.313   2.508 122.389  0.00  0.00    +0.015 C 
BRANCH  26  27
ATOM     27  C   LIG A   1      -6.156   3.504 121.338  0.00  0.00    -0.025 A 
ATOM     28  C   LIG A   1      -7.094   3.629 120.305  0.00  0.00    +0.011 A 
ATOM     29  C   LIG A   1      -6.918   4.593 119.318  0.00  0.00    +0.046 A 
ATOM     30  C   LIG A   1      -5.794   5.410 119.364  0.00  0.00    +0.117 A 
ATOM     31  C   LIG A   1      -4.839   5.268 120.364  0.00  0.00    +0.046 A 
ATOM     32  C   LIG A   1      -5.017   4.309 121.354  0.00  0.00    +0.011 A 
BRANCH  30  33
ATOM     33  O   LIG A   1      -5.594   6.380 118.430  0.00  0.00    -0.507 OA
ATOM     34  H   LIG A   1      -6.382   6.947 118.411  0.00  0.00    +0.292 HD
ENDBRANCH  30  33
ENDBRANCH  26  27
ENDBRANCH  23  25
ENDBRANCH  22  23
ENDBRANCH   5  22
TORSDOF 16
ENDMDL
MODEL 4
REMARK VINA RESULT:      -7.1      1.908      4.730
REMARK  Name = NuBBE_310
REMARK  18 active torsions:
REMARK  status: ('A' for Active; 'I' for Inactive)
REMARK    1  A    between atoms: C_3  and  C_4
REMARK    2  A    between atoms: C_5  and  O_6
REMARK    3  A    between atoms: O_6  and  C_7
REMARK    4  A    between atoms: C_7  and  C_8
REMARK    5  A    between atoms: C_9  and  C_10
REMARK    6  A    between atoms: C_13  and  O_14
REMARK    7  A    between atoms: C_20  and  C_21
REMARK    8  A    between atoms: C_21  and  C_22
REMARK    9  A    between atoms: C_22  and  C_23
REMARK   10  A    between atoms: C_23  and  C_24
REMARK   11  A    between atoms: C_24  and  C_25
REMARK   12  A    between atoms: C_25  and  C_26
REMARK   13  A    between atoms: C_26  and  C_27
REMARK   14  A    between atoms: C_27  and  C_28
REMARK   15  A    between atoms: C_28  and  C_29
REMARK   16  A    between atoms: C_29  and  C_30
REMARK   17  A    between atoms: C_30  and  C_31
REMARK   18  A    between atoms: C_31  and  C_32
REMARK                            x       y       z     vdW  Elec       q    Type
REMARK                         _______ _______ _______ _____ _____    ______ ____
ROOT
ATOM      1  H   LIG A   1      -7.657  -3.074 124.309  0.00  0.00    +0.123 HD
ATOM      2  N   LIG A   1      -6.955  -2.448 124.705  0.00  0.00    -0.307 NA
ATOM      3  C   LIG A   1      -7.138  -1.102 124.146  0.00  0.00    +0.092 C 
ATOM      4  C   LIG A   1      -6.794  -1.083 122.649  0.00  0.00    +0.028 C 
ATOM      5  C   LIG A   1      -8.501  -0.481 124.486  0.00  0.00    +0.193 C 
ATOM      6  C   LIG A   1      -8.914  -0.657 125.958  0.00  0.00    +0.048 C 
ATOM      7  C   LIG A   1      -8.507  -1.989 126.563  0.00  0.00    +0.022 C 
ATOM      8  C   LIG A   1      -7.080  -2.443 126.177  0.00  0.00    +0.054 C 
ENDROOT
BRANCH   8   9
ATOM      9  C   LIG A   1      -5.953  -1.668 126.941  0.00  0.00    +0.019 C 
BRANCH   9  10
ATOM     10  C   LIG A   1      -6.276  -1.355 128.418  0.00  0.00    +0.002 C 
BRANCH  10  11
ATOM     11  C   LIG A   1      -5.077  -1.348 129.387  0.00  0.00    +0.000 C 
BRANCH  11  12
ATOM     12  C   LIG A   1      -4.402  -0.009 129.736  0.00  0.00    -0.000 C 
BRANCH  12  13
ATOM     13  C   LIG A   1      -5.181   1.310 129.505  0.00  0.00    -0.000 C 
BRANCH  13  14
ATOM     14  C   LIG A   1      -4.358   2.544 129.135  0.00  0.00    -0.000 C 
BRANCH  14  15
ATOM     15  C   LIG A   1      -4.456   3.097 127.717  0.00  0.00    +0.000 C 
BRANCH  15  16
ATOM     16  C   LIG A   1      -4.620   2.031 126.653  0.00  0.00    +0.000 C 
BRANCH  16  17
ATOM     17  C   LIG A   1      -5.916   2.097 125.835  0.00  0.00    +0.007 C 
BRANCH  17  18
ATOM     18  C   LIG A   1      -7.033   2.940 126.448  0.00  0.00    +0.074 C 
BRANCH  18  19
ATOM     19  C   LIG A   1      -7.394   4.181 125.654  0.00  0.00    +0.130 C 
ATOM     20  C   LIG A   1      -6.264   4.918 124.963  0.00  0.00    +0.086 C 
ATOM     21  O   LIG A   1      -8.565   4.546 125.535  0.00  0.00    -0.298 OA
ENDBRANCH  18  19
ENDBRANCH  17  18
ENDBRANCH  16  17
ENDBRANCH  15  16
ENDBRANCH  14  15
ENDBRANCH  13  14
ENDBRANCH  12  13
ENDBRANCH  11  12
ENDBRANCH  10  11
ENDBRANCH   9  10
ENDBRANCH   8   9
BRANCH   5  22
ATOM     22  O   LIG A   1      -8.553   0.917 124.146  0.00  0.00    -0.457 OA
BRANCH  22  23
ATOM     23  C   LIG A   1      -9.627   1.345 123.401  0.00  0.00    +0.332 C 
ATOM     24  O   LIG A   1     -10.756   0.961 123.409  0.00  0.00    -0.246 OA
BRANCH  23  25
ATOM     25  C   LIG A   1      -9.117   2.214 122.333  0.00  0.00    +0.092 C 
ATOM     26  C   LIG A   1      -7.902   2.742 122.405  0.00  0.00    +0.015 C 
BRANCH  26  27
ATOM     27  C   LIG A   1      -7.331   3.523 121.316  0.00  0.00    -0.025 A 
ATOM     28  C   LIG A   1      -8.099   3.894 120.203  0.00  0.00    +0.011 A 
ATOM     29  C   LIG A   1      -7.526   4.643 119.181  0.00  0.00    +0.046 A 
ATOM     30  C   LIG A   1      -6.185   4.997 119.273  0.00  0.00    +0.117 A 
ATOM     31  C   LIG A   1      -5.406   4.602 120.355  0.00  0.00    +0.046 A 
ATOM     32  C   LIG A   1      -5.979   3.857 121.379  0.00  0.00    +0.011 A 
BRANCH  30  33
ATOM     33  O   LIG A   1      -5.590   5.747 118.305  0.00  0.00    -0.507 OA
ATOM     34  H   LIG A   1      -5.830   5.371 117.442  0.00  0.00    +0.292 HD
ENDBRANCH  30  33
ENDBRANCH  26  27
ENDBRANCH  23  25
ENDBRANCH  22  23
ENDBRANCH   5  22
TORSDOF 16
ENDMDL
MODEL 5
REMARK VINA RESULT:      -7.1      2.371      4.524
REMARK  Name = NuBBE_310
REMARK  18 active torsions:
REMARK  status: ('A' for Active; 'I' for Inactive)
REMARK    1  A    between atoms: C_3  and  C_4
REMARK    2  A    between atoms: C_5  and  O_6
REMARK    3  A    between atoms: O_6  and  C_7
REMARK    4  A    between atoms: C_7  and  C_8
REMARK    5  A    between atoms: C_9  and  C_10
REMARK    6  A    between atoms: C_13  and  O_14
REMARK    7  A    between atoms: C_20  and  C_21
REMARK    8  A    between atoms: C_21  and  C_22
REMARK    9  A    between atoms: C_22  and  C_23
REMARK   10  A    between atoms: C_23  and  C_24
REMARK   11  A    between atoms: C_24  and  C_25
REMARK   12  A    between atoms: C_25  and  C_26
REMARK   13  A    between atoms: C_26  and  C_27
REMARK   14  A    between atoms: C_27  and  C_28
REMARK   15  A    between atoms: C_28  and  C_29
REMARK   16  A    between atoms: C_29  and  C_30
REMARK   17  A    between atoms: C_30  and  C_31
REMARK   18  A    between atoms: C_31  and  C_32
REMARK                            x       y       z     vdW  Elec       q    Type
REMARK                         _______ _______ _______ _____ _____    ______ ____
ROOT
ATOM      1  H   LIG A   1      -6.360   0.720 128.151  0.00  0.00    +0.123 HD
ATOM      2  N   LIG A   1      -6.606   0.225 127.294  0.00  0.00    -0.307 NA
ATOM      3  C   LIG A   1      -7.607   1.007 126.556  0.00  0.00    +0.092 C 
ATOM      4  C   LIG A   1      -8.941   1.042 127.317  0.00  0.00    +0.028 C 
ATOM      5  C   LIG A   1      -7.098   2.389 126.118  0.00  0.00    +0.193 C 
ATOM      6  C   LIG A   1      -5.684   2.365 125.510  0.00  0.00    +0.048 C 
ATOM      7  C   LIG A   1      -4.741   1.375 126.169  0.00  0.00    +0.022 C 
ATOM      8  C   LIG A   1      -5.389   0.008 126.487  0.00  0.00    +0.054 C 
ENDROOT
BRANCH   8   9
ATOM      9  C   LIG A   1      -5.576  -0.899 125.224  0.00  0.00    +0.019 C 
BRANCH   9  10
ATOM     10  C   LIG A   1      -5.670  -2.410 125.525  0.00  0.00    +0.002 C 
BRANCH  10  11
ATOM     11  C   LIG A   1      -6.970  -3.110 125.083  0.00  0.00    +0.000 C 
BRANCH  11  12
ATOM     12  C   LIG A   1      -8.323  -2.436 125.374  0.00  0.00    -0.000 C 
BRANCH  12  13
ATOM     13  C   LIG A   1      -9.401  -3.220 126.163  0.00  0.00    -0.000 C 
BRANCH  13  14
ATOM     14  C   LIG A   1      -8.997  -3.767 127.531  0.00  0.00    -0.000 C 
BRANCH  14  15
ATOM     15  C   LIG A   1      -8.313  -2.834 128.525  0.00  0.00    +0.000 C 
BRANCH  15  16
ATOM     16  C   LIG A   1      -7.269  -3.513 129.387  0.00  0.00    +0.000 C 
BRANCH  16  17
ATOM     17  C   LIG A   1      -5.845  -2.953 129.279  0.00  0.00    +0.007 C 
BRANCH  17  18
ATOM     18  C   LIG A   1      -5.000  -3.071 130.546  0.00  0.00    +0.074 C 
BRANCH  18  19
ATOM     19  C   LIG A   1      -3.503  -2.975 130.314  0.00  0.00    +0.130 C 
ATOM     20  C   LIG A   1      -2.938  -3.695 129.106  0.00  0.00    +0.086 C 
ATOM     21  O   LIG A   1      -2.784  -2.298 131.052  0.00  0.00    -0.298 OA
ENDBRANCH  18  19
ENDBRANCH  17  18
ENDBRANCH  16  17
ENDBRANCH  15  16
ENDBRANCH  14  15
ENDBRANCH  13  14
ENDBRANCH  12  13
ENDBRANCH  11  12
ENDBRANCH  10  11
ENDBRANCH   9  10
ENDBRANCH   8   9
BRANCH   5  22
ATOM     22  O   LIG A   1      -7.998   3.022 125.190  0.00  0.00    -0.457 OA
BRANCH  22  23
ATOM     23  C   LIG A   1      -8.214   2.389 123.988  0.00  0.00    +0.332 C 
ATOM     24  O   LIG A   1      -8.436   1.238 123.768  0.00  0.00    -0.246 OA
BRANCH  23  25
ATOM     25  C   LIG A   1      -7.852   3.324 122.915  0.00  0.00    +0.092 C 
ATOM     26  C   LIG A   1      -6.981   2.979 121.976  0.00  0.00    +0.015 C 
BRANCH  26  27
ATOM     27  C   LIG A   1      -6.679   3.845 120.844  0.00  0.00    -0.025 A 
ATOM     28  C   LIG A   1      -7.571   3.982 119.772  0.00  0.00    +0.011 A 
ATOM     29  C   LIG A   1      -7.255   4.820 118.707  0.00  0.00    +0.046 A 
ATOM     30  C   LIG A   1      -6.041   5.497 118.718  0.00  0.00    +0.117 A 
ATOM     31  C   LIG A   1      -5.134   5.338 119.759  0.00  0.00    +0.046 A 
ATOM     32  C   LIG A   1      -5.451   4.505 120.825  0.00  0.00    +0.011 A 
BRANCH  30  33
ATOM     33  O   LIG A   1      -5.701   6.343 117.706  0.00  0.00    -0.507 OA
ATOM     34  H   LIG A   1      -5.088   7.008 118.062  0.00  0.00    +0.292 HD
ENDBRANCH  30  33
ENDBRANCH  26  27
ENDBRANCH  23  25
ENDBRANCH  22  23
ENDBRANCH   5  22
TORSDOF 16
ENDMDL
MODEL 6
REMARK VINA RESULT:      -7.1      3.868      6.662
REMARK  Name = NuBBE_310
REMARK  18 active torsions:
REMARK  status: ('A' for Active; 'I' for Inactive)
REMARK    1  A    between atoms: C_3  and  C_4
REMARK    2  A    between atoms: C_5  and  O_6
REMARK    3  A    between atoms: O_6  and  C_7
REMARK    4  A    between atoms: C_7  and  C_8
REMARK    5  A    between atoms: C_9  and  C_10
REMARK    6  A    between atoms: C_13  and  O_14
REMARK    7  A    between atoms: C_20  and  C_21
REMARK    8  A    between atoms: C_21  and  C_22
REMARK    9  A    between atoms: C_22  and  C_23
REMARK   10  A    between atoms: C_23  and  C_24
REMARK   11  A    between atoms: C_24  and  C_25
REMARK   12  A    between atoms: C_25  and  C_26
REMARK   13  A    between atoms: C_26  and  C_27
REMARK   14  A    between atoms: C_27  and  C_28
REMARK   15  A    between atoms: C_28  and  C_29
REMARK   16  A    between atoms: C_29  and  C_30
REMARK   17  A    between atoms: C_30  and  C_31
REMARK   18  A    between atoms: C_31  and  C_32
REMARK                            x       y       z     vdW  Elec       q    Type
REMARK                         _______ _______ _______ _____ _____    ______ ____
ROOT
ATOM      1  H   LIG A   1      -9.258   2.310 125.102  0.00  0.00    +0.123 HD
ATOM      2  N   LIG A   1      -8.240   2.248 125.071  0.00  0.00    -0.307 NA
ATOM      3  C   LIG A   1      -7.671   3.145 126.085  0.00  0.00    +0.092 C 
ATOM      4  C   LIG A   1      -7.926   4.614 125.718  0.00  0.00    +0.028 C 
ATOM      5  C   LIG A   1      -8.074   2.776 127.520  0.00  0.00    +0.193 C 
ATOM      6  C   LIG A   1      -7.976   1.271 127.825  0.00  0.00    +0.048 C 
ATOM      7  C   LIG A   1      -8.370   0.374 126.665  0.00  0.00    +0.022 C 
ATOM      8  C   LIG A   1      -7.830   0.847 125.296  0.00  0.00    +0.054 C 
ENDROOT
BRANCH   8   9
ATOM      9  C   LIG A   1      -6.302   0.558 125.097  0.00  0.00    +0.019 C 
BRANCH   9  10
ATOM     10  C   LIG A   1      -5.853  -0.853 125.530  0.00  0.00    +0.002 C 
BRANCH  10  11
ATOM     11  C   LIG A   1      -5.691  -1.889 124.399  0.00  0.00    +0.000 C 
BRANCH  11  12
ATOM     12  C   LIG A   1      -6.826  -2.066 123.375  0.00  0.00    -0.000 C 
BRANCH  12  13
ATOM     13  C   LIG A   1      -8.126  -2.788 123.807  0.00  0.00    -0.000 C 
BRANCH  13  14
ATOM     14  C   LIG A   1      -8.091  -3.539 125.139  0.00  0.00    -0.000 C 
BRANCH  14  15
ATOM     15  C   LIG A   1      -9.177  -3.256 126.172  0.00  0.00    +0.000 C 
BRANCH  15  16
ATOM     16  C   LIG A   1      -8.765  -3.570 127.596  0.00  0.00    +0.000 C 
BRANCH  16  17
ATOM     17  C   LIG A   1      -7.516  -2.840 128.107  0.00  0.00    +0.007 C 
BRANCH  17  18
ATOM     18  C   LIG A   1      -7.634  -2.246 129.509  0.00  0.00    +0.074 C 
BRANCH  18  19
ATOM     19  C   LIG A   1      -7.182  -3.170 130.624  0.00  0.00    +0.130 C 
ATOM     20  C   LIG A   1      -6.148  -4.223 130.280  0.00  0.00    +0.086 C 
ATOM     21  O   LIG A   1      -7.604  -3.037 131.775  0.00  0.00    -0.298 OA
ENDBRANCH  18  19
ENDBRANCH  17  18
ENDBRANCH  16  17
ENDBRANCH  15  16
ENDBRANCH  14  15
ENDBRANCH  13  14
ENDBRANCH  12  13
ENDBRANCH  11  12
ENDBRANCH  10  11
ENDBRANCH   9  10
ENDBRANCH   8   9
BRANCH   5  22
ATOM     22  O   LIG A   1      -7.308   3.505 128.497  0.00  0.00    -0.457 OA
BRANCH  22  23
ATOM     23  C   LIG A   1      -7.962   3.910 129.637  0.00  0.00    +0.332 C 
ATOM     24  O   LIG A   1      -8.088   3.344 130.680  0.00  0.00    -0.246 OA
BRANCH  23  25
ATOM     25  C   LIG A   1      -8.766   5.092 129.300  0.00  0.00    +0.092 C 
ATOM     26  C   LIG A   1      -9.963   5.280 129.840  0.00  0.00    +0.015 C 
BRANCH  26  27
ATOM     27  C   LIG A   1     -10.738   6.490 129.603  0.00  0.00    -0.025 A 
ATOM     28  C   LIG A   1     -11.791   6.860 130.451  0.00  0.00    +0.011 A 
ATOM     29  C   LIG A   1     -12.510   8.024 130.200  0.00  0.00    +0.046 A 
ATOM     30  C   LIG A   1     -12.181   8.796 129.092  0.00  0.00    +0.117 A 
ATOM     31  C   LIG A   1     -11.162   8.417 128.225  0.00  0.00    +0.046 A 
ATOM     32  C   LIG A   1     -10.440   7.257 128.478  0.00  0.00    +0.011 A 
BRANCH  30  33
ATOM     33  O   LIG A   1     -12.845   9.953 128.821  0.00  0.00    -0.507 OA
ATOM     34  H   LIG A   1     -12.186  10.638 128.618  0.00  0.00    +0.292 HD
ENDBRANCH  30  33
ENDBRANCH  26  27
ENDBRANCH  23  25
ENDBRANCH  22  23
ENDBRANCH   5  22
TORSDOF 16
ENDMDL
MODEL 7
REMARK VINA RESULT:      -6.9      4.071      6.189
REMARK  Name = NuBBE_310
REMARK  18 active torsions:
REMARK  status: ('A' for Active; 'I' for Inactive)
REMARK    1  A    between atoms: C_3  and  C_4
REMARK    2  A    between atoms: C_5  and  O_6
REMARK    3  A    between atoms: O_6  and  C_7
REMARK    4  A    between atoms: C_7  and  C_8
REMARK    5  A    between atoms: C_9  and  C_10
REMARK    6  A    between atoms: C_13  and  O_14
REMARK    7  A    between atoms: C_20  and  C_21
REMARK    8  A    between atoms: C_21  and  C_22
REMARK    9  A    between atoms: C_22  and  C_23
REMARK   10  A    between atoms: C_23  and  C_24
REMARK   11  A    between atoms: C_24  and  C_25
REMARK   12  A    between atoms: C_25  and  C_26
REMARK   13  A    between atoms: C_26  and  C_27
REMARK   14  A    between atoms: C_27  and  C_28
REMARK   15  A    between atoms: C_28  and  C_29
REMARK   16  A    between atoms: C_29  and  C_30
REMARK   17  A    between atoms: C_30  and  C_31
REMARK   18  A    between atoms: C_31  and  C_32
REMARK                            x       y       z     vdW  Elec       q    Type
REMARK                         _______ _______ _______ _____ _____    ______ ____
ROOT
ATOM      1  H   LIG A   1      -8.300  -0.024 133.151  0.00  0.00    +0.123 HD
ATOM      2  N   LIG A   1      -8.405  -0.193 132.150  0.00  0.00    -0.307 NA
ATOM      3  C   LIG A   1      -8.700   1.076 131.474  0.00  0.00    +0.092 C 
ATOM      4  C   LIG A   1     -10.089   1.596 131.871  0.00  0.00    +0.028 C 
ATOM      5  C   LIG A   1      -7.577   2.116 131.613  0.00  0.00    +0.193 C 
ATOM      6  C   LIG A   1      -6.168   1.543 131.379  0.00  0.00    +0.048 C 
ATOM      7  C   LIG A   1      -5.975   0.133 131.906  0.00  0.00    +0.022 C 
ATOM      8  C   LIG A   1      -7.169  -0.810 131.627  0.00  0.00    +0.054 C 
ENDROOT
BRANCH   8   9
ATOM      9  C   LIG A   1      -7.241  -1.297 130.140  0.00  0.00    +0.019 C 
BRANCH   9  10
ATOM     10  C   LIG A   1      -8.063  -2.585 129.924  0.00  0.00    +0.002 C 
BRANCH  10  11
ATOM     11  C   LIG A   1      -8.074  -3.150 128.490  0.00  0.00    +0.000 C 
BRANCH  11  12
ATOM     12  C   LIG A   1      -7.987  -2.179 127.299  0.00  0.00    -0.000 C 
BRANCH  12  13
ATOM     13  C   LIG A   1      -9.024  -2.297 126.154  0.00  0.00    -0.000 C 
BRANCH  13  14
ATOM     14  C   LIG A   1      -8.877  -3.488 125.207  0.00  0.00    -0.000 C 
BRANCH  14  15
ATOM     15  C   LIG A   1      -9.382  -3.357 123.774  0.00  0.00    +0.000 C 
BRANCH  15  16
ATOM     16  C   LIG A   1      -9.014  -2.045 123.112  0.00  0.00    +0.000 C 
BRANCH  16  17
ATOM     17  C   LIG A   1      -7.652  -2.011 122.406  0.00  0.00    +0.007 C 
BRANCH  17  18
ATOM     18  C   LIG A   1      -6.585  -1.157 123.089  0.00  0.00    +0.074 C 
BRANCH  18  19
ATOM     19  C   LIG A   1      -5.668  -1.925 124.022  0.00  0.00    +0.130 C 
ATOM     20  C   LIG A   1      -5.087  -3.228 123.512  0.00  0.00    +0.086 C 
ATOM     21  O   LIG A   1      -5.369  -1.481 125.133  0.00  0.00    -0.298 OA
ENDBRANCH  18  19
ENDBRANCH  17  18
ENDBRANCH  16  17
ENDBRANCH  15  16
ENDBRANCH  14  15
ENDBRANCH  13  14
ENDBRANCH  12  13
ENDBRANCH  11  12
ENDBRANCH  10  11
ENDBRANCH   9  10
ENDBRANCH   8   9
BRANCH   5  22
ATOM     22  O   LIG A   1      -7.778   3.242 130.739  0.00  0.00    -0.457 OA
BRANCH  22  23
ATOM     23  C   LIG A   1      -7.876   4.484 131.324  0.00  0.00    +0.332 C 
ATOM     24  O   LIG A   1      -7.290   4.927 132.264  0.00  0.00    -0.246 OA
BRANCH  23  25
ATOM     25  C   LIG A   1      -9.063   5.150 130.773  0.00  0.00    +0.092 C 
ATOM     26  C   LIG A   1      -9.158   6.473 130.758  0.00  0.00    +0.015 C 
BRANCH  26  27
ATOM     27  C   LIG A   1     -10.276   7.162 130.127  0.00  0.00    -0.025 A 
ATOM     28  C   LIG A   1     -10.104   7.907 128.952  0.00  0.00    +0.011 A 
ATOM     29  C   LIG A   1     -11.192   8.551 128.372  0.00  0.00    +0.046 A 
ATOM     30  C   LIG A   1     -12.437   8.458 128.984  0.00  0.00    +0.117 A 
ATOM     31  C   LIG A   1     -12.609   7.752 130.169  0.00  0.00    +0.046 A 
ATOM     32  C   LIG A   1     -11.523   7.104 130.746  0.00  0.00    +0.011 A 
BRANCH  30  33
ATOM     33  O   LIG A   1     -13.532   9.055 128.438  0.00  0.00    -0.507 OA
ATOM     34  H   LIG A   1     -13.690   8.656 127.566  0.00  0.00    +0.292 HD
ENDBRANCH  30  33
ENDBRANCH  26  27
ENDBRANCH  23  25
ENDBRANCH  22  23
ENDBRANCH   5  22
TORSDOF 16
ENDMDL
MODEL 8
REMARK VINA RESULT:      -6.9      1.785      4.593
REMARK  Name = NuBBE_310
REMARK  18 active torsions:
REMARK  status: ('A' for Active; 'I' for Inactive)
REMARK    1  A    between atoms: C_3  and  C_4
REMARK    2  A    between atoms: C_5  and  O_6
REMARK    3  A    between atoms: O_6  and  C_7
REMARK    4  A    between atoms: C_7  and  C_8
REMARK    5  A    between atoms: C_9  and  C_10
REMARK    6  A    between atoms: C_13  and  O_14
REMARK    7  A    between atoms: C_20  and  C_21
REMARK    8  A    between atoms: C_21  and  C_22
REMARK    9  A    between atoms: C_22  and  C_23
REMARK   10  A    between atoms: C_23  and  C_24
REMARK   11  A    between atoms: C_24  and  C_25
REMARK   12  A    between atoms: C_25  and  C_26
REMARK   13  A    between atoms: C_26  and  C_27
REMARK   14  A    between atoms: C_27  and  C_28
REMARK   15  A    between atoms: C_28  and  C_29
REMARK   16  A    between atoms: C_29  and  C_30
REMARK   17  A    between atoms: C_30  and  C_31
REMARK   18  A    between atoms: C_31  and  C_32
REMARK                            x       y       z     vdW  Elec       q    Type
REMARK                         _______ _______ _______ _____ _____    ______ ____
ROOT
ATOM      1  H   LIG A   1      -7.380  -2.947 124.296  0.00  0.00    +0.123 HD
ATOM      2  N   LIG A   1      -6.849  -2.282 124.859  0.00  0.00    -0.307 NA
ATOM      3  C   LIG A   1      -7.143  -0.918 124.400  0.00  0.00    +0.092 C 
ATOM      4  C   LIG A   1      -6.580  -0.685 122.990  0.00  0.00    +0.028 C 
ATOM      5  C   LIG A   1      -8.620  -0.526 124.559  0.00  0.00    +0.193 C 
ATOM      6  C   LIG A   1      -9.223  -0.920 125.919  0.00  0.00    +0.048 C 
ATOM      7  C   LIG A   1      -8.720  -2.245 126.462  0.00  0.00    +0.022 C 
ATOM      8  C   LIG A   1      -7.199  -2.459 126.283  0.00  0.00    +0.054 C 
ENDROOT
BRANCH   8   9
ATOM      9  C   LIG A   1      -6.332  -1.632 127.293  0.00  0.00    +0.019 C 
BRANCH   9  10
ATOM     10  C   LIG A   1      -5.779  -2.446 128.481  0.00  0.00    +0.002 C 
BRANCH  10  11
ATOM     11  C   LIG A   1      -6.780  -3.379 129.190  0.00  0.00    +0.000 C 
BRANCH  11  12
ATOM     12  C   LIG A   1      -7.879  -2.767 130.077  0.00  0.00    -0.000 C 
BRANCH  12  13
ATOM     13  C   LIG A   1      -7.474  -1.803 131.220  0.00  0.00    -0.000 C 
BRANCH  13  14
ATOM     14  C   LIG A   1      -8.009  -0.373 131.142  0.00  0.00    -0.000 C 
BRANCH  14  15
ATOM     15  C   LIG A   1      -8.102   0.305 129.778  0.00  0.00    +0.000 C 
BRANCH  15  16
ATOM     16  C   LIG A   1      -7.562   1.720 129.758  0.00  0.00    +0.000 C 
BRANCH  16  17
ATOM     17  C   LIG A   1      -8.066   2.612 128.616  0.00  0.00    +0.007 C 
BRANCH  17  18
ATOM     18  C   LIG A   1      -7.542   2.252 127.227  0.00  0.00    +0.074 C 
BRANCH  18  19
ATOM     19  C   LIG A   1      -6.813   3.378 126.519  0.00  0.00    +0.130 C 
ATOM     20  C   LIG A   1      -5.700   2.996 125.564  0.00  0.00    +0.086 C 
ATOM     21  O   LIG A   1      -7.145   4.555 126.678  0.00  0.00    -0.298 OA
ENDBRANCH  18  19
ENDBRANCH  17  18
ENDBRANCH  16  17
ENDBRANCH  15  16
ENDBRANCH  14  15
ENDBRANCH  13  14
ENDBRANCH  12  13
ENDBRANCH  11  12
ENDBRANCH  10  11
ENDBRANCH   9  10
ENDBRANCH   8   9
BRANCH   5  22
ATOM     22  O   LIG A   1      -8.827   0.882 124.342  0.00  0.00    -0.457 OA
BRANCH  22  23
ATOM     23  C   LIG A   1      -9.756   1.244 123.394  0.00  0.00    +0.332 C 
ATOM     24  O   LIG A   1     -10.861   0.831 123.220  0.00  0.00    -0.246 OA
BRANCH  23  25
ATOM     25  C   LIG A   1      -9.075   2.070 122.388  0.00  0.00    +0.092 C 
ATOM     26  C   LIG A   1      -7.964   2.731 122.688  0.00  0.00    +0.015 C 
BRANCH  26  27
ATOM     27  C   LIG A   1      -7.213   3.475 121.686  0.00  0.00    -0.025 A 
ATOM     28  C   LIG A   1      -5.895   3.891 121.922  0.00  0.00    +0.011 A 
ATOM     29  C   LIG A   1      -5.203   4.597 120.944  0.00  0.00    +0.046 A 
ATOM     30  C   LIG A   1      -5.842   4.896 119.747  0.00  0.00    +0.117 A 
ATOM     31  C   LIG A   1      -7.161   4.520 119.518  0.00  0.00    +0.046 A 
ATOM     32  C   LIG A   1      -7.852   3.810 120.493  0.00  0.00    +0.011 A 
BRANCH  30  33
ATOM     33  O   LIG A   1      -5.195   5.567 118.754  0.00  0.00    -0.507 OA
ATOM     34  H   LIG A   1      -5.798   6.245 118.406  0.00  0.00    +0.292 HD
ENDBRANCH  30  33
ENDBRANCH  26  27
ENDBRANCH  23  25
ENDBRANCH  22  23
ENDBRANCH   5  22
TORSDOF 16
ENDMDL
MODEL 9
REMARK VINA RESULT:      -6.9      3.577      5.554
REMARK  Name = NuBBE_310
REMARK  18 active torsions:
REMARK  status: ('A' for Active; 'I' for Inactive)
REMARK    1  A    between atoms: C_3  and  C_4
REMARK    2  A    between atoms: C_5  and  O_6
REMARK    3  A    between atoms: O_6  and  C_7
REMARK    4  A    between atoms: C_7  and  C_8
REMARK    5  A    between atoms: C_9  and  C_10
REMARK    6  A    between atoms: C_13  and  O_14
REMARK    7  A    between atoms: C_20  and  C_21
REMARK    8  A    between atoms: C_21  and  C_22
REMARK    9  A    between atoms: C_22  and  C_23
REMARK   10  A    between atoms: C_23  and  C_24
REMARK   11  A    between atoms: C_24  and  C_25
REMARK   12  A    between atoms: C_25  and  C_26
REMARK   13  A    between atoms: C_26  and  C_27
REMARK   14  A    between atoms: C_27  and  C_28
REMARK   15  A    between atoms: C_28  and  C_29
REMARK   16  A    between atoms: C_29  and  C_30
REMARK   17  A    between atoms: C_30  and  C_31
REMARK   18  A    between atoms: C_31  and  C_32
REMARK                            x       y       z     vdW  Elec       q    Type
REMARK                         _______ _______ _______ _____ _____    ______ ____
ROOT
ATOM      1  H   LIG A   1      -6.536  -0.667 131.196  0.00  0.00    +0.123 HD
ATOM      2  N   LIG A   1      -7.290  -0.896 130.548  0.00  0.00    -0.307 NA
ATOM      3  C   LIG A   1      -8.258   0.208 130.523  0.00  0.00    +0.092 C 
ATOM      4  C   LIG A   1      -8.994   0.318 131.866  0.00  0.00    +0.028 C 
ATOM      5  C   LIG A   1      -7.659   1.532 130.025  0.00  0.00    +0.193 C 
ATOM      6  C   LIG A   1      -6.779   1.383 128.771  0.00  0.00    +0.048 C 
ATOM      7  C   LIG A   1      -5.955   0.109 128.738  0.00  0.00    +0.022 C 
ATOM      8  C   LIG A   1      -6.723  -1.148 129.208  0.00  0.00    +0.054 C 
ENDROOT
BRANCH   8   9
ATOM      9  C   LIG A   1      -7.737  -1.689 128.143  0.00  0.00    +0.019 C 
BRANCH   9  10
ATOM     10  C   LIG A   1      -8.197  -3.144 128.375  0.00  0.00    +0.002 C 
BRANCH  10  11
ATOM     11  C   LIG A   1      -8.874  -3.840 127.178  0.00  0.00    +0.000 C 
BRANCH  11  12
ATOM     12  C   LIG A   1      -9.576  -2.983 126.109  0.00  0.00    -0.000 C 
BRANCH  12  13
ATOM     13  C   LIG A   1      -9.158  -3.138 124.626  0.00  0.00    -0.000 C 
BRANCH  13  14
ATOM     14  C   LIG A   1      -7.724  -3.592 124.354  0.00  0.00    -0.000 C 
BRANCH  14  15
ATOM     15  C   LIG A   1      -6.703  -2.562 123.881  0.00  0.00    +0.000 C 
BRANCH  15  16
ATOM     16  C   LIG A   1      -6.490  -1.419 124.852  0.00  0.00    +0.000 C 
BRANCH  16  17
ATOM     17  C   LIG A   1      -6.826  -0.019 124.320  0.00  0.00    +0.007 C 
BRANCH  17  18
ATOM     18  C   LIG A   1      -8.124   0.081 123.522  0.00  0.00    +0.074 C 
BRANCH  18  19
ATOM     19  C   LIG A   1      -9.321   0.555 124.324  0.00  0.00    +0.130 C 
ATOM     20  C   LIG A   1      -9.105   0.832 125.799  0.00  0.00    +0.086 C 
ATOM     21  O   LIG A   1     -10.413   0.752 123.788  0.00  0.00    -0.298 OA
ENDBRANCH  18  19
ENDBRANCH  17  18
ENDBRANCH  16  17
ENDBRANCH  15  16
ENDBRANCH  14  15
ENDBRANCH  13  14
ENDBRANCH  12  13
ENDBRANCH  11  12
ENDBRANCH  10  11
ENDBRANCH   9  10
ENDBRANCH   8   9
BRANCH   5  22
ATOM     22  O   LIG A   1      -8.675   2.520 129.772  0.00  0.00    -0.457 OA
BRANCH  22  23
ATOM     23  C   LIG A   1      -8.542   3.737 130.400  0.00  0.00    +0.332 C 
ATOM     24  O   LIG A   1      -7.787   4.065 131.263  0.00  0.00    -0.246 OA
BRANCH  23  25
ATOM     25  C   LIG A   1      -9.702   4.561 130.035  0.00  0.00    +0.092 C 
ATOM     26  C   LIG A   1      -9.614   5.884 130.002  0.00  0.00    +0.015 C 
BRANCH  26  27
ATOM     27  C   LIG A   1     -10.716   6.721 129.547  0.00  0.00    -0.025 A 
ATOM     28  C   LIG A   1     -12.051   6.333 129.727  0.00  0.00    +0.011 A 
ATOM     29  C   LIG A   1     -13.081   7.156 129.284  0.00  0.00    +0.046 A 
ATOM     30  C   LIG A   1     -12.765   8.351 128.648  0.00  0.00    +0.117 A 
ATOM     31  C   LIG A   1     -11.444   8.727 128.432  0.00  0.00    +0.046 A 
ATOM     32  C   LIG A   1     -10.414   7.907 128.879  0.00  0.00    +0.011 A 
BRANCH  30  33
ATOM     33  O   LIG A   1     -13.742   9.196 128.218  0.00  0.00    -0.507 OA
ATOM     34  H   LIG A   1     -13.321  10.029 127.948  0.00  0.00    +0.292 HD
ENDBRANCH  30  33
ENDBRANCH  26  27
ENDBRANCH  23  25
ENDBRANCH  22  23
ENDBRANCH   5  22
TORSDOF 16
ENDMDL
