MODEL 1
REMARK VINA RESULT:      -7.1      0.000      0.000
REMARK  Name = NuBBE_1396
REMARK  4 active torsions:
REMARK  status: ('A' for Active; 'I' for Inactive)
REMARK    1  A    between atoms: C_1  and  C_2
REMARK    2  A    between atoms: C_2  and  C_3
REMARK    3  A    between atoms: C_16  and  C_17
REMARK    4  A    between atoms: C_16  and  O_18
REMARK                            x       y       z     vdW  Elec       q    Type
REMARK                         _______ _______ _______ _____ _____    ______ ____
ROOT
ATOM      1  C   LIG A   1      -7.310  -3.673 124.529  0.00  0.00    +0.011 C 
ATOM      2  C   LIG A   1      -8.686  -3.073 124.758  0.00  0.00    -0.028 C 
ATOM      3  C   LIG A   1      -9.552  -3.296 123.538  0.00  0.00    +0.011 C 
ATOM      4  C   LIG A   1      -8.811  -1.783 125.593  0.00  0.00    +0.005 C 
ATOM      5  C   LIG A   1      -9.474  -3.036 126.093  0.00  0.00    -0.001 C 
ATOM      6  C   LIG A   1      -9.126  -3.939 127.232  0.00  0.00    +0.009 C 
ATOM      7  C   LIG A   1      -8.480  -3.403 128.513  0.00  0.00    +0.031 C 
ATOM      8  C   LIG A   1      -7.274  -2.475 128.512  0.00  0.00    -0.073 C 
ATOM      9  C   LIG A   1      -6.667  -2.238 129.668  0.00  0.00    +0.008 C 
ATOM     10  C   LIG A   1      -6.768  -1.992 127.164  0.00  0.00    +0.021 C 
ATOM     11  C   LIG A   1      -7.729  -1.076 126.372  0.00  0.00    +0.031 C 
ATOM     12  C   LIG A   1      -6.837  -0.146 125.479  0.00  0.00    +0.067 C 
ATOM     13  C   LIG A   1      -7.107  -0.133 123.965  0.00  0.00    +0.041 C 
ATOM     14  C   LIG A   1      -5.386  -0.537 125.785  0.00  0.00    +0.035 C 
ATOM     15  C   LIG A   1      -5.414  -1.278 127.115  0.00  0.00    +0.011 C 
ENDROOT
BRANCH  12  16
ATOM     16  O   LIG A   1      -7.024   1.209 125.927  0.00  0.00    -0.389 OA
ATOM     17  H   LIG A   1      -7.910   1.269 126.328  0.00  0.00    +0.210 HD
ENDBRANCH  12  16
TORSDOF 1
ENDMDL
MODEL 2
REMARK VINA RESULT:      -6.6      2.087      3.343
REMARK  Name = NuBBE_1396
REMARK  4 active torsions:
REMARK  status: ('A' for Active; 'I' for Inactive)
REMARK    1  A    between atoms: C_1  and  C_2
REMARK    2  A    between atoms: C_2  and  C_3
REMARK    3  A    between atoms: C_16  and  C_17
REMARK    4  A    between atoms: C_16  and  O_18
REMARK                            x       y       z     vdW  Elec       q    Type
REMARK                         _______ _______ _______ _____ _____    ______ ____
ROOT
ATOM      1  C   LIG A   1      -7.582  -1.801 122.637  0.00  0.00    +0.011 C 
ATOM      2  C   LIG A   1      -8.448  -2.149 123.836  0.00  0.00    -0.028 C 
ATOM      3  C   LIG A   1      -9.435  -3.231 123.459  0.00  0.00    +0.011 C 
ATOM      4  C   LIG A   1      -8.835  -1.034 124.828  0.00  0.00    +0.005 C 
ATOM      5  C   LIG A   1      -8.006  -2.186 125.322  0.00  0.00    -0.001 C 
ATOM      6  C   LIG A   1      -6.564  -2.259 125.707  0.00  0.00    +0.009 C 
ATOM      7  C   LIG A   1      -5.842  -1.068 126.345  0.00  0.00    +0.031 C 
ATOM      8  C   LIG A   1      -5.911   0.344 125.784  0.00  0.00    -0.073 C 
ATOM      9  C   LIG A   1      -5.088   1.257 126.285  0.00  0.00    +0.008 C 
ATOM     10  C   LIG A   1      -6.826   0.577 124.594  0.00  0.00    +0.021 C 
ATOM     11  C   LIG A   1      -8.337   0.391 124.859  0.00  0.00    +0.031 C 
ATOM     12  C   LIG A   1      -9.093   1.329 123.856  0.00  0.00    +0.067 C 
ATOM     13  C   LIG A   1     -10.149   0.691 122.936  0.00  0.00    +0.041 C 
ATOM     14  C   LIG A   1      -8.004   2.041 123.045  0.00  0.00    +0.035 C 
ATOM     15  C   LIG A   1      -6.718   1.913 123.852  0.00  0.00    +0.011 C 
ENDROOT
BRANCH  12  16
ATOM     16  O   LIG A   1      -9.788   2.329 124.622  0.00  0.00    -0.389 OA
ATOM     17  H   LIG A   1     -10.642   1.951 124.898  0.00  0.00    +0.210 HD
ENDBRANCH  12  16
TORSDOF 1
ENDMDL
MODEL 3
REMARK VINA RESULT:      -6.4      2.241      4.462
REMARK  Name = NuBBE_1396
REMARK  4 active torsions:
REMARK  status: ('A' for Active; 'I' for Inactive)
REMARK    1  A    between atoms: C_1  and  C_2
REMARK    2  A    between atoms: C_2  and  C_3
REMARK    3  A    between atoms: C_16  and  C_17
REMARK    4  A    between atoms: C_16  and  O_18
REMARK                            x       y       z     vdW  Elec       q    Type
REMARK                         _______ _______ _______ _____ _____    ______ ____
ROOT
ATOM      1  C   LIG A   1      -5.796  -1.302 125.766  0.00  0.00    +0.011 C 
ATOM      2  C   LIG A   1      -6.716  -1.731 126.896  0.00  0.00    -0.028 C 
ATOM      3  C   LIG A   1      -5.952  -2.589 127.880  0.00  0.00    +0.011 C 
ATOM      4  C   LIG A   1      -8.201  -2.009 126.588  0.00  0.00    +0.005 C 
ATOM      5  C   LIG A   1      -7.854  -0.896 127.537  0.00  0.00    -0.001 C 
ATOM      6  C   LIG A   1      -7.924   0.588 127.371  0.00  0.00    +0.009 C 
ATOM      7  C   LIG A   1      -8.999   1.250 126.504  0.00  0.00    +0.031 C 
ATOM      8  C   LIG A   1      -9.325   0.794 125.090  0.00  0.00    -0.073 C 
ATOM      9  C   LIG A   1     -10.121   1.561 124.355  0.00  0.00    +0.008 C 
ATOM     10  C   LIG A   1      -8.607  -0.439 124.573  0.00  0.00    +0.021 C 
ATOM     11  C   LIG A   1      -8.939  -1.766 125.295  0.00  0.00    +0.031 C 
ATOM     12  C   LIG A   1      -8.739  -2.915 124.247  0.00  0.00    +0.067 C 
ATOM     13  C   LIG A   1      -7.783  -4.063 124.618  0.00  0.00    +0.041 C 
ATOM     14  C   LIG A   1      -8.307  -2.227 122.946  0.00  0.00    +0.035 C 
ATOM     15  C   LIG A   1      -8.715  -0.765 123.080  0.00  0.00    +0.011 C 
ENDROOT
BRANCH  12  16
ATOM     16  O   LIG A   1     -10.020  -3.526 124.010  0.00  0.00    -0.389 OA
ATOM     17  H   LIG A   1     -10.480  -2.997 123.334  0.00  0.00    +0.210 HD
ENDBRANCH  12  16
TORSDOF 1
ENDMDL
MODEL 4
REMARK VINA RESULT:      -6.4      1.856      3.793
REMARK  Name = NuBBE_1396
REMARK  4 active torsions:
REMARK  status: ('A' for Active; 'I' for Inactive)
REMARK    1  A    between atoms: C_1  and  C_2
REMARK    2  A    between atoms: C_2  and  C_3
REMARK    3  A    between atoms: C_16  and  C_17
REMARK    4  A    between atoms: C_16  and  O_18
REMARK                            x       y       z     vdW  Elec       q    Type
REMARK                         _______ _______ _______ _____ _____    ______ ____
ROOT
ATOM      1  C   LIG A   1      -7.664   0.426 125.639  0.00  0.00    +0.011 C 
ATOM      2  C   LIG A   1      -6.314   0.070 126.238  0.00  0.00    -0.028 C 
ATOM      3  C   LIG A   1      -5.328   1.188 125.979  0.00  0.00    +0.011 C 
ATOM      4  C   LIG A   1      -5.859  -1.403 126.237  0.00  0.00    +0.005 C 
ATOM      5  C   LIG A   1      -6.056  -0.707 127.555  0.00  0.00    -0.001 C 
ATOM      6  C   LIG A   1      -7.120  -0.861 128.593  0.00  0.00    +0.009 C 
ATOM      7  C   LIG A   1      -7.795  -2.210 128.857  0.00  0.00    +0.031 C 
ATOM      8  C   LIG A   1      -8.354  -3.091 127.750  0.00  0.00    -0.073 C 
ATOM      9  C   LIG A   1      -9.100  -4.133 128.098  0.00  0.00    +0.008 C 
ATOM     10  C   LIG A   1      -8.130  -2.638 126.319  0.00  0.00    +0.021 C 
ATOM     11  C   LIG A   1      -6.660  -2.619 125.839  0.00  0.00    +0.031 C 
ATOM     12  C   LIG A   1      -6.685  -2.859 124.290  0.00  0.00    +0.067 C 
ATOM     13  C   LIG A   1      -5.990  -1.820 123.394  0.00  0.00    +0.041 C 
ATOM     14  C   LIG A   1      -8.162  -3.022 123.914  0.00  0.00    +0.035 C 
ATOM     15  C   LIG A   1      -8.898  -3.357 125.205  0.00  0.00    +0.011 C 
ENDROOT
BRANCH  12  16
ATOM     16  O   LIG A   1      -6.029  -4.113 124.026  0.00  0.00    -0.389 OA
ATOM     17  H   LIG A   1      -6.694  -4.722 123.657  0.00  0.00    +0.210 HD
ENDBRANCH  12  16
TORSDOF 1
ENDMDL
MODEL 5
REMARK VINA RESULT:      -6.1      1.205      2.301
REMARK  Name = NuBBE_1396
REMARK  4 active torsions:
REMARK  status: ('A' for Active; 'I' for Inactive)
REMARK    1  A    between atoms: C_1  and  C_2
REMARK    2  A    between atoms: C_2  and  C_3
REMARK    3  A    between atoms: C_16  and  C_17
REMARK    4  A    between atoms: C_16  and  O_18
REMARK                            x       y       z     vdW  Elec       q    Type
REMARK                         _______ _______ _______ _____ _____    ______ ____
ROOT
ATOM      1  C   LIG A   1      -5.813  -2.437 124.370  0.00  0.00    +0.011 C 
ATOM      2  C   LIG A   1      -6.963  -1.479 124.110  0.00  0.00    -0.028 C 
ATOM      3  C   LIG A   1      -6.761  -0.782 122.784  0.00  0.00    +0.011 C 
ATOM      4  C   LIG A   1      -7.607  -0.742 125.302  0.00  0.00    +0.005 C 
ATOM      5  C   LIG A   1      -8.452  -1.687 124.494  0.00  0.00    -0.001 C 
ATOM      6  C   LIG A   1      -8.992  -3.041 124.823  0.00  0.00    +0.009 C 
ATOM      7  C   LIG A   1      -9.392  -3.420 126.252  0.00  0.00    +0.031 C 
ATOM      8  C   LIG A   1      -8.500  -3.174 127.459  0.00  0.00    -0.073 C 
ATOM      9  C   LIG A   1      -8.847  -3.725 128.615  0.00  0.00    +0.008 C 
ATOM     10  C   LIG A   1      -7.200  -2.425 127.223  0.00  0.00    +0.021 C 
ATOM     11  C   LIG A   1      -7.342  -0.953 126.773  0.00  0.00    +0.031 C 
ATOM     12  C   LIG A   1      -6.067  -0.197 127.283  0.00  0.00    +0.067 C 
ATOM     13  C   LIG A   1      -5.225   0.567 126.246  0.00  0.00    +0.041 C 
ATOM     14  C   LIG A   1      -5.226  -1.244 128.023  0.00  0.00    +0.035 C 
ATOM     15  C   LIG A   1      -6.170  -2.393 128.356  0.00  0.00    +0.011 C 
ENDROOT
BRANCH  12  16
ATOM     16  O   LIG A   1      -6.489   0.782 128.250  0.00  0.00    -0.389 OA
ATOM     17  H   LIG A   1      -7.336   0.480 128.625  0.00  0.00    +0.210 HD
ENDBRANCH  12  16
TORSDOF 1
ENDMDL
MODEL 6
REMARK VINA RESULT:      -6.0      1.896      2.519
REMARK  Name = NuBBE_1396
REMARK  4 active torsions:
REMARK  status: ('A' for Active; 'I' for Inactive)
REMARK    1  A    between atoms: C_1  and  C_2
REMARK    2  A    between atoms: C_2  and  C_3
REMARK    3  A    between atoms: C_16  and  C_17
REMARK    4  A    between atoms: C_16  and  O_18
REMARK                            x       y       z     vdW  Elec       q    Type
REMARK                         _______ _______ _______ _____ _____    ______ ____
ROOT
ATOM      1  C   LIG A   1      -6.563  -2.303 124.934  0.00  0.00    +0.011 C 
ATOM      2  C   LIG A   1      -7.883  -2.901 125.392  0.00  0.00    -0.028 C 
ATOM      3  C   LIG A   1      -8.128  -4.210 124.676  0.00  0.00    +0.011 C 
ATOM      4  C   LIG A   1      -9.051  -1.957 125.742  0.00  0.00    +0.005 C 
ATOM      5  C   LIG A   1      -8.486  -2.839 126.820  0.00  0.00    -0.001 C 
ATOM      6  C   LIG A   1      -7.644  -2.511 128.011  0.00  0.00    +0.009 C 
ATOM      7  C   LIG A   1      -7.784  -1.177 128.750  0.00  0.00    +0.031 C 
ATOM      8  C   LIG A   1      -7.804   0.168 128.042  0.00  0.00    -0.073 C 
ATOM      9  C   LIG A   1      -7.719   1.266 128.783  0.00  0.00    +0.008 C 
ATOM     10  C   LIG A   1      -7.783   0.157 126.523  0.00  0.00    +0.021 C 
ATOM     11  C   LIG A   1      -9.028  -0.452 125.837  0.00  0.00    +0.031 C 
ATOM     12  C   LIG A   1      -9.169   0.255 124.444  0.00  0.00    +0.067 C 
ATOM     13  C   LIG A   1      -9.224  -0.637 123.192  0.00  0.00    +0.041 C 
ATOM     14  C   LIG A   1      -8.013   1.259 124.364  0.00  0.00    +0.035 C 
ATOM     15  C   LIG A   1      -7.540   1.482 125.795  0.00  0.00    +0.011 C 
ENDROOT
BRANCH  12  16
ATOM     16  O   LIG A   1     -10.396   1.006 124.451  0.00  0.00    -0.389 OA
ATOM     17  H   LIG A   1     -11.025   0.541 125.032  0.00  0.00    +0.210 HD
ENDBRANCH  12  16
TORSDOF 1
ENDMDL
MODEL 7
REMARK VINA RESULT:      -5.9      2.020      4.062
REMARK  Name = NuBBE_1396
REMARK  4 active torsions:
REMARK  status: ('A' for Active; 'I' for Inactive)
REMARK    1  A    between atoms: C_1  and  C_2
REMARK    2  A    between atoms: C_2  and  C_3
REMARK    3  A    between atoms: C_16  and  C_17
REMARK    4  A    between atoms: C_16  and  O_18
REMARK                            x       y       z     vdW  Elec       q    Type
REMARK                         _______ _______ _______ _____ _____    ______ ____
ROOT
ATOM      1  C   LIG A   1      -7.654  -3.027 125.450  0.00  0.00    +0.011 C 
ATOM      2  C   LIG A   1      -6.758  -2.621 124.292  0.00  0.00    -0.028 C 
ATOM      3  C   LIG A   1      -5.680  -3.662 124.089  0.00  0.00    +0.011 C 
ATOM      4  C   LIG A   1      -6.468  -1.125 124.058  0.00  0.00    +0.005 C 
ATOM      5  C   LIG A   1      -7.191  -1.898 122.990  0.00  0.00    -0.001 C 
ATOM      6  C   LIG A   1      -8.620  -1.862 122.554  0.00  0.00    +0.009 C 
ATOM      7  C   LIG A   1      -9.443  -0.572 122.606  0.00  0.00    +0.031 C 
ATOM      8  C   LIG A   1      -9.501   0.330 123.830  0.00  0.00    -0.073 C 
ATOM      9  C   LIG A   1     -10.401   1.305 123.846  0.00  0.00    +0.008 C 
ATOM     10  C   LIG A   1      -8.614  -0.036 125.007  0.00  0.00    +0.021 C 
ATOM     11  C   LIG A   1      -7.091   0.058 124.758  0.00  0.00    +0.031 C 
ATOM     12  C   LIG A   1      -6.424   0.375 126.142  0.00  0.00    +0.067 C 
ATOM     13  C   LIG A   1      -5.318  -0.573 126.637  0.00  0.00    +0.041 C 
ATOM     14  C   LIG A   1      -7.574   0.467 127.151  0.00  0.00    +0.035 C 
ATOM     15  C   LIG A   1      -8.842   0.691 126.336  0.00  0.00    +0.011 C 
ENDROOT
BRANCH  12  16
ATOM     16  O   LIG A   1      -5.819   1.678 126.053  0.00  0.00    -0.389 OA
ATOM     17  H   LIG A   1      -6.461   2.327 126.396  0.00  0.00    +0.210 HD
ENDBRANCH  12  16
TORSDOF 1
ENDMDL
MODEL 8
REMARK VINA RESULT:      -5.9      3.303      5.814
REMARK  Name = NuBBE_1396
REMARK  4 active torsions:
REMARK  status: ('A' for Active; 'I' for Inactive)
REMARK    1  A    between atoms: C_1  and  C_2
REMARK    2  A    between atoms: C_2  and  C_3
REMARK    3  A    between atoms: C_16  and  C_17
REMARK    4  A    between atoms: C_16  and  O_18
REMARK                            x       y       z     vdW  Elec       q    Type
REMARK                         _______ _______ _______ _____ _____    ______ ____
ROOT
ATOM      1  C   LIG A   1      -4.071  -1.899 130.457  0.00  0.00    +0.011 C 
ATOM      2  C   LIG A   1      -4.173  -3.383 130.149  0.00  0.00    -0.028 C 
ATOM      3  C   LIG A   1      -3.060  -3.789 129.208  0.00  0.00    +0.011 C 
ATOM      4  C   LIG A   1      -5.567  -4.034 130.054  0.00  0.00    +0.005 C 
ATOM      5  C   LIG A   1      -4.619  -4.507 131.121  0.00  0.00    -0.001 C 
ATOM      6  C   LIG A   1      -4.631  -4.301 132.601  0.00  0.00    +0.009 C 
ATOM      7  C   LIG A   1      -5.941  -4.189 133.386  0.00  0.00    +0.031 C 
ATOM      8  C   LIG A   1      -7.087  -3.280 132.967  0.00  0.00    -0.073 C 
ATOM      9  C   LIG A   1      -8.086  -3.100 133.822  0.00  0.00    +0.008 C 
ATOM     10  C   LIG A   1      -6.940  -2.534 131.653  0.00  0.00    +0.021 C 
ATOM     11  C   LIG A   1      -6.903  -3.412 130.380  0.00  0.00    +0.031 C 
ATOM     12  C   LIG A   1      -7.477  -2.540 129.210  0.00  0.00    +0.067 C 
ATOM     13  C   LIG A   1      -6.604  -2.362 127.956  0.00  0.00    +0.041 C 
ATOM     14  C   LIG A   1      -7.841  -1.188 129.834  0.00  0.00    +0.035 C 
ATOM     15  C   LIG A   1      -7.947  -1.424 131.336  0.00  0.00    +0.011 C 
ENDROOT
BRANCH  12  16
ATOM     16  O   LIG A   1      -8.699  -3.153 128.760  0.00  0.00    -0.389 OA
ATOM     17  H   LIG A   1      -9.046  -3.694 129.492  0.00  0.00    +0.210 HD
ENDBRANCH  12  16
TORSDOF 1
ENDMDL
MODEL 9
REMARK VINA RESULT:      -5.9      1.906      3.879
REMARK  Name = NuBBE_1396
REMARK  4 active torsions:
REMARK  status: ('A' for Active; 'I' for Inactive)
REMARK    1  A    between atoms: C_1  and  C_2
REMARK    2  A    between atoms: C_2  and  C_3
REMARK    3  A    between atoms: C_16  and  C_17
REMARK    4  A    between atoms: C_16  and  O_18
REMARK                            x       y       z     vdW  Elec       q    Type
REMARK                         _______ _______ _______ _____ _____    ______ ____
ROOT
ATOM      1  C   LIG A   1      -9.420   0.287 125.496  0.00  0.00    +0.011 C 
ATOM      2  C   LIG A   1      -8.431   0.284 124.343  0.00  0.00    -0.028 C 
ATOM      3  C   LIG A   1      -9.050   0.948 123.134  0.00  0.00    +0.011 C 
ATOM      4  C   LIG A   1      -7.470  -0.912 124.185  0.00  0.00    +0.005 C 
ATOM      5  C   LIG A   1      -6.892   0.453 124.438  0.00  0.00    -0.001 C 
ATOM      6  C   LIG A   1      -6.242   1.030 125.654  0.00  0.00    +0.009 C 
ATOM      7  C   LIG A   1      -5.412   0.166 126.608  0.00  0.00    +0.031 C 
ATOM      8  C   LIG A   1      -5.895  -1.169 127.155  0.00  0.00    -0.073 C 
ATOM      9  C   LIG A   1      -5.194  -1.735 128.130  0.00  0.00    +0.008 C 
ATOM     10  C   LIG A   1      -7.222  -1.695 126.638  0.00  0.00    +0.021 C 
ATOM     11  C   LIG A   1      -7.263  -2.065 125.137  0.00  0.00    +0.031 C 
ATOM     12  C   LIG A   1      -8.337  -3.195 124.977  0.00  0.00    +0.067 C 
ATOM     13  C   LIG A   1      -9.477  -2.962 123.970  0.00  0.00    +0.041 C 
ATOM     14  C   LIG A   1      -8.883  -3.459 126.385  0.00  0.00    +0.035 C 
ATOM     15  C   LIG A   1      -7.853  -2.892 127.355  0.00  0.00    +0.011 C 
ENDROOT
BRANCH  12  16
ATOM     16  O   LIG A   1      -7.662  -4.389 124.543  0.00  0.00    -0.389 OA
ATOM     17  H   LIG A   1      -7.568  -4.974 125.316  0.00  0.00    +0.210 HD
ENDBRANCH  12  16
TORSDOF 1
ENDMDL
