MODEL 1
REMARK VINA RESULT:      -7.6      0.000      0.000
REMARK  Name = NuBBE_2228
REMARK  1 active torsions:
REMARK  status: ('A' for Active; 'I' for Inactive)
REMARK    1  A    between atoms: O_1  and  C_2
REMARK                            x       y       z     vdW  Elec       q    Type
REMARK                         _______ _______ _______ _____ _____    ______ ____
ROOT
ATOM      1  C   LIG A   1     -10.430   6.946 127.745  0.00  0.00    +0.125 A 
ATOM      2  C   LIG A   1     -10.131   6.358 128.996  0.00  0.00    +0.039 A 
ATOM      3  C   LIG A   1      -9.150   5.243 129.301  0.00  0.00    +0.042 A 
ATOM      4  C   LIG A   1      -9.007   4.819 130.669  0.00  0.00    +0.023 A 
ATOM      5  C   LIG A   1      -9.721   5.376 131.730  0.00  0.00    +0.119 A 
ATOM      6  C   LIG A   1     -10.706   6.431 131.460  0.00  0.00    +0.212 C 
ATOM      7  O   LIG A   1     -11.383   6.915 132.372  0.00  0.00    -0.285 OA
ATOM      8  C   LIG A   1     -10.885   6.907 130.074  0.00  0.00    +0.035 A 
ATOM      9  C   LIG A   1     -11.848   7.929 129.915  0.00  0.00    +0.012 A 
ATOM     10  C   LIG A   1     -12.105   8.461 128.670  0.00  0.00    +0.004 A 
ATOM     11  C   LIG A   1     -11.393   7.969 127.590  0.00  0.00    +0.046 A 
ATOM     12  N   LIG A   1      -9.610   5.015 133.039  0.00  0.00    -0.251 NA
ATOM     13  C   LIG A   1      -8.743   4.044 133.344  0.00  0.00    +0.112 A 
ATOM     14  C   LIG A   1      -7.977   3.401 132.399  0.00  0.00    +0.028 A 
ATOM     15  C   LIG A   1      -8.115   3.773 131.060  0.00  0.00    -0.010 A 
ATOM     16  C   LIG A   1      -7.375   3.092 130.107  0.00  0.00    +0.058 A 
ATOM     17  C   LIG A   1      -7.511   3.488 128.804  0.00  0.00    +0.167 A 
ATOM     18  C   LIG A   1      -8.336   4.533 128.405  0.00  0.00    +0.175 A 
ATOM     19  O   LIG A   1      -8.204   4.715 127.053  0.00  0.00    -0.452 OA
ATOM     20  C   LIG A   1      -7.125   3.805 126.724  0.00  0.00    +0.466 C 
ATOM     21  O   LIG A   1      -6.836   2.892 127.784  0.00  0.00    -0.453 OA
ENDROOT
BRANCH   1  22
ATOM     22  O   LIG A   1      -9.850   6.621 126.551  0.00  0.00    -0.506 OA
ATOM     23  H   LIG A   1      -8.934   6.340 126.703  0.00  0.00    +0.292 HD
ENDBRANCH   1  22
TORSDOF 1
ENDMDL
MODEL 2
REMARK VINA RESULT:      -7.5      5.108      7.860
REMARK  Name = NuBBE_2228
REMARK  1 active torsions:
REMARK  status: ('A' for Active; 'I' for Inactive)
REMARK    1  A    between atoms: O_1  and  C_2
REMARK                            x       y       z     vdW  Elec       q    Type
REMARK                         _______ _______ _______ _____ _____    ______ ____
ROOT
ATOM      1  C   LIG A   1      -9.142  -2.427 125.979  0.00  0.00    +0.125 A 
ATOM      2  C   LIG A   1      -8.648  -1.168 126.393  0.00  0.00    +0.039 A 
ATOM      3  C   LIG A   1      -8.686   0.150 125.644  0.00  0.00    +0.042 A 
ATOM      4  C   LIG A   1      -8.127   1.312 126.284  0.00  0.00    +0.023 A 
ATOM      5  C   LIG A   1      -7.552   1.293 127.554  0.00  0.00    +0.119 A 
ATOM      6  C   LIG A   1      -7.467   0.024 128.287  0.00  0.00    +0.212 C 
ATOM      7  O   LIG A   1      -6.927  -0.033 129.396  0.00  0.00    -0.285 OA
ATOM      8  C   LIG A   1      -8.033  -1.195 127.678  0.00  0.00    +0.035 A 
ATOM      9  C   LIG A   1      -7.911  -2.365 128.463  0.00  0.00    +0.012 A 
ATOM     10  C   LIG A   1      -8.403  -3.568 128.006  0.00  0.00    +0.004 A 
ATOM     11  C   LIG A   1      -9.019  -3.594 126.767  0.00  0.00    +0.046 A 
ATOM     12  N   LIG A   1      -7.022   2.368 128.202  0.00  0.00    -0.251 NA
ATOM     13  C   LIG A   1      -7.053   3.549 127.575  0.00  0.00    +0.112 A 
ATOM     14  C   LIG A   1      -7.584   3.713 126.316  0.00  0.00    +0.028 A 
ATOM     15  C   LIG A   1      -8.108   2.598 125.660  0.00  0.00    -0.010 A 
ATOM     16  C   LIG A   1      -8.600   2.760 124.376  0.00  0.00    +0.058 A 
ATOM     17  C   LIG A   1      -9.129   1.657 123.761  0.00  0.00    +0.167 A 
ATOM     18  C   LIG A   1      -9.201   0.407 124.364  0.00  0.00    +0.175 A 
ATOM     19  O   LIG A   1      -9.832  -0.463 123.513  0.00  0.00    -0.452 OA
ATOM     20  C   LIG A   1     -10.261   0.411 122.440  0.00  0.00    +0.466 C 
ATOM     21  O   LIG A   1      -9.639   1.697 122.500  0.00  0.00    -0.453 OA
ENDROOT
BRANCH   1  22
ATOM     22  O   LIG A   1      -9.785  -2.685 124.801  0.00  0.00    -0.506 OA
ATOM     23  H   LIG A   1      -9.469  -2.071 124.120  0.00  0.00    +0.292 HD
ENDBRANCH   1  22
TORSDOF 1
ENDMDL
MODEL 3
REMARK VINA RESULT:      -7.2      5.170      8.556
REMARK  Name = NuBBE_2228
REMARK  1 active torsions:
REMARK  status: ('A' for Active; 'I' for Inactive)
REMARK    1  A    between atoms: O_1  and  C_2
REMARK                            x       y       z     vdW  Elec       q    Type
REMARK                         _______ _______ _______ _____ _____    ______ ____
ROOT
ATOM      1  C   LIG A   1      -7.539  -1.018 128.403  0.00  0.00    +0.125 A 
ATOM      2  C   LIG A   1      -8.084  -0.761 127.123  0.00  0.00    +0.039 A 
ATOM      3  C   LIG A   1      -8.172   0.561 126.386  0.00  0.00    +0.042 A 
ATOM      4  C   LIG A   1      -8.763   0.570 125.073  0.00  0.00    +0.023 A 
ATOM      5  C   LIG A   1      -9.260  -0.571 124.442  0.00  0.00    +0.119 A 
ATOM      6  C   LIG A   1      -9.224  -1.858 125.147  0.00  0.00    +0.212 C 
ATOM      7  O   LIG A   1      -9.693  -2.877 124.631  0.00  0.00    -0.285 OA
ATOM      8  C   LIG A   1      -8.620  -1.921 126.493  0.00  0.00    +0.035 A 
ATOM      9  C   LIG A   1      -8.623  -3.204 127.086  0.00  0.00    +0.012 A 
ATOM     10  C   LIG A   1      -8.085  -3.396 128.340  0.00  0.00    +0.004 A 
ATOM     11  C   LIG A   1      -7.542  -2.302 128.993  0.00  0.00    +0.046 A 
ATOM     12  N   LIG A   1      -9.817  -0.611 123.199  0.00  0.00    -0.251 NA
ATOM     13  C   LIG A   1      -9.897   0.536 122.516  0.00  0.00    +0.112 A 
ATOM     14  C   LIG A   1      -9.452   1.737 123.018  0.00  0.00    +0.028 A 
ATOM     15  C   LIG A   1      -8.899   1.764 124.300  0.00  0.00    -0.010 A 
ATOM     16  C   LIG A   1      -8.494   2.983 124.817  0.00  0.00    +0.058 A 
ATOM     17  C   LIG A   1      -7.936   2.981 126.067  0.00  0.00    +0.167 A 
ATOM     18  C   LIG A   1      -7.751   1.828 126.820  0.00  0.00    +0.175 A 
ATOM     19  O   LIG A   1      -7.118   2.155 127.991  0.00  0.00    -0.452 OA
ATOM     20  C   LIG A   1      -6.808   3.557 127.792  0.00  0.00    +0.466 C 
ATOM     21  O   LIG A   1      -7.504   4.118 126.677  0.00  0.00    -0.453 OA
ENDROOT
BRANCH   1  22
ATOM     22  O   LIG A   1      -6.951  -0.094 129.221  0.00  0.00    -0.506 OA
ATOM     23  H   LIG A   1      -7.542   0.100 129.966  0.00  0.00    +0.292 HD
ENDBRANCH   1  22
TORSDOF 1
ENDMDL
MODEL 4
REMARK VINA RESULT:      -7.2      6.552      7.864
REMARK  Name = NuBBE_2228
REMARK  1 active torsions:
REMARK  status: ('A' for Active; 'I' for Inactive)
REMARK    1  A    between atoms: O_1  and  C_2
REMARK                            x       y       z     vdW  Elec       q    Type
REMARK                         _______ _______ _______ _____ _____    ______ ____
ROOT
ATOM      1  C   LIG A   1      -6.440   1.395 125.099  0.00  0.00    +0.125 A 
ATOM      2  C   LIG A   1      -6.738   0.429 126.090  0.00  0.00    +0.039 A 
ATOM      3  C   LIG A   1      -7.600  -0.811 125.965  0.00  0.00    +0.042 A 
ATOM      4  C   LIG A   1      -7.744  -1.658 127.121  0.00  0.00    +0.023 A 
ATOM      5  C   LIG A   1      -7.134  -1.400 128.348  0.00  0.00    +0.119 A 
ATOM      6  C   LIG A   1      -6.325  -0.186 128.510  0.00  0.00    +0.212 C 
ATOM      7  O   LIG A   1      -5.806   0.091 129.595  0.00  0.00    -0.285 OA
ATOM      8  C   LIG A   1      -6.140   0.711 127.353  0.00  0.00    +0.035 A 
ATOM      9  C   LIG A   1      -5.338   1.848 127.603  0.00  0.00    +0.012 A 
ATOM     10  C   LIG A   1      -5.088   2.762 126.602  0.00  0.00    +0.004 A 
ATOM     11  C   LIG A   1      -5.638   2.530 125.353  0.00  0.00    +0.046 A 
ATOM     12  N   LIG A   1      -7.233  -2.178 129.463  0.00  0.00    -0.251 NA
ATOM     13  C   LIG A   1      -7.975  -3.288 129.383  0.00  0.00    +0.112 A 
ATOM     14  C   LIG A   1      -8.638  -3.662 128.237  0.00  0.00    +0.028 A 
ATOM     15  C   LIG A   1      -8.539  -2.846 127.108  0.00  0.00    -0.010 A 
ATOM     16  C   LIG A   1      -9.244  -3.204 125.972  0.00  0.00    +0.058 A 
ATOM     17  C   LIG A   1      -9.115  -2.399 124.872  0.00  0.00    +0.167 A 
ATOM     18  C   LIG A   1      -8.312  -1.266 124.845  0.00  0.00    +0.175 A 
ATOM     19  O   LIG A   1      -8.354  -0.719 123.588  0.00  0.00    -0.452 OA
ATOM     20  C   LIG A   1      -9.114  -1.707 122.847  0.00  0.00    +0.466 C 
ATOM     21  O   LIG A   1      -9.762  -2.652 123.702  0.00  0.00    -0.453 OA
ENDROOT
BRANCH   1  22
ATOM     22  O   LIG A   1      -6.871   1.367 123.802  0.00  0.00    -0.506 OA
ATOM     23  H   LIG A   1      -7.829   1.211 123.783  0.00  0.00    +0.292 HD
ENDBRANCH   1  22
TORSDOF 1
ENDMDL
MODEL 5
REMARK VINA RESULT:      -7.1      6.686      8.750
REMARK  Name = NuBBE_2228
REMARK  1 active torsions:
REMARK  status: ('A' for Active; 'I' for Inactive)
REMARK    1  A    between atoms: O_1  and  C_2
REMARK                            x       y       z     vdW  Elec       q    Type
REMARK                         _______ _______ _______ _____ _____    ______ ____
ROOT
ATOM      1  C   LIG A   1      -7.383  -2.328 128.627  0.00  0.00    +0.125 A 
ATOM      2  C   LIG A   1      -7.491  -1.561 127.444  0.00  0.00    +0.039 A 
ATOM      3  C   LIG A   1      -6.796  -0.258 127.100  0.00  0.00    +0.042 A 
ATOM      4  C   LIG A   1      -7.056   0.333 125.813  0.00  0.00    +0.023 A 
ATOM      5  C   LIG A   1      -7.913  -0.227 124.865  0.00  0.00    +0.119 A 
ATOM      6  C   LIG A   1      -8.630  -1.467 125.185  0.00  0.00    +0.212 C 
ATOM      7  O   LIG A   1      -9.425  -1.965 124.383  0.00  0.00    -0.285 OA
ATOM      8  C   LIG A   1      -8.391  -2.117 126.489  0.00  0.00    +0.035 A 
ATOM      9  C   LIG A   1      -9.119  -3.310 126.701  0.00  0.00    +0.012 A 
ATOM     10  C   LIG A   1      -8.981  -4.014 127.878  0.00  0.00    +0.004 A 
ATOM     11  C   LIG A   1      -8.111  -3.521 128.836  0.00  0.00    +0.046 A 
ATOM     12  N   LIG A   1      -8.180   0.291 123.633  0.00  0.00    -0.251 NA
ATOM     13  C   LIG A   1      -7.572   1.432 123.293  0.00  0.00    +0.112 A 
ATOM     14  C   LIG A   1      -6.707   2.097 124.131  0.00  0.00    +0.028 A 
ATOM     15  C   LIG A   1      -6.457   1.561 125.397  0.00  0.00    -0.010 A 
ATOM     16  C   LIG A   1      -5.621   2.258 126.253  0.00  0.00    +0.058 A 
ATOM     17  C   LIG A   1      -5.374   1.703 127.480  0.00  0.00    +0.167 A 
ATOM     18  C   LIG A   1      -5.907   0.487 127.890  0.00  0.00    +0.175 A 
ATOM     19  O   LIG A   1      -5.424   0.185 129.137  0.00  0.00    -0.452 OA
ATOM     20  C   LIG A   1      -4.449   1.236 129.352  0.00  0.00    +0.466 C 
ATOM     21  O   LIG A   1      -4.570   2.297 128.403  0.00  0.00    -0.453 OA
ENDROOT
BRANCH   1  22
ATOM     22  O   LIG A   1      -6.587  -2.035 129.699  0.00  0.00    -0.506 OA
ATOM     23  H   LIG A   1      -6.155  -2.846 130.011  0.00  0.00    +0.292 HD
ENDBRANCH   1  22
TORSDOF 1
ENDMDL
MODEL 6
REMARK VINA RESULT:      -7.1      5.600      8.614
REMARK  Name = NuBBE_2228
REMARK  1 active torsions:
REMARK  status: ('A' for Active; 'I' for Inactive)
REMARK    1  A    between atoms: O_1  and  C_2
REMARK                            x       y       z     vdW  Elec       q    Type
REMARK                         _______ _______ _______ _____ _____    ______ ____
ROOT
ATOM      1  C   LIG A   1      -7.771   0.403 128.622  0.00  0.00    +0.125 A 
ATOM      2  C   LIG A   1      -8.109  -0.374 127.489  0.00  0.00    +0.039 A 
ATOM      3  C   LIG A   1      -8.428   0.101 126.084  0.00  0.00    +0.042 A 
ATOM      4  C   LIG A   1      -8.732  -0.890 125.085  0.00  0.00    +0.023 A 
ATOM      5  C   LIG A   1      -8.749  -2.262 125.337  0.00  0.00    +0.119 A 
ATOM      6  C   LIG A   1      -8.483  -2.748 126.696  0.00  0.00    +0.212 C 
ATOM      7  O   LIG A   1      -8.531  -3.953 126.960  0.00  0.00    -0.285 OA
ATOM      8  C   LIG A   1      -8.158  -1.773 127.756  0.00  0.00    +0.035 A 
ATOM      9  C   LIG A   1      -7.908  -2.337 129.028  0.00  0.00    +0.012 A 
ATOM     10  C   LIG A   1      -7.591  -1.531 130.100  0.00  0.00    +0.004 A 
ATOM     11  C   LIG A   1      -7.521  -0.164 129.892  0.00  0.00    +0.046 A 
ATOM     12  N   LIG A   1      -9.020  -3.234 124.421  0.00  0.00    -0.251 NA
ATOM     13  C   LIG A   1      -9.291  -2.851 123.169  0.00  0.00    +0.112 A 
ATOM     14  C   LIG A   1      -9.315  -1.531 122.780  0.00  0.00    +0.028 A 
ATOM     15  C   LIG A   1      -9.051  -0.547 123.735  0.00  0.00    -0.010 A 
ATOM     16  C   LIG A   1      -9.121   0.781 123.349  0.00  0.00    +0.058 A 
ATOM     17  C   LIG A   1      -8.837   1.728 124.297  0.00  0.00    +0.167 A 
ATOM     18  C   LIG A   1      -8.479   1.417 125.602  0.00  0.00    +0.175 A 
ATOM     19  O   LIG A   1      -8.205   2.579 126.278  0.00  0.00    -0.452 OA
ATOM     20  C   LIG A   1      -8.278   3.572 125.225  0.00  0.00    +0.466 C 
ATOM     21  O   LIG A   1      -8.875   3.062 124.032  0.00  0.00    -0.453 OA
ENDROOT
BRANCH   1  22
ATOM     22  O   LIG A   1      -7.642   1.763 128.648  0.00  0.00    -0.506 OA
ATOM     23  H   LIG A   1      -7.432   2.085 127.757  0.00  0.00    +0.292 HD
ENDBRANCH   1  22
TORSDOF 1
ENDMDL
MODEL 7
REMARK VINA RESULT:      -7.1      5.489      8.080
REMARK  Name = NuBBE_2228
REMARK  1 active torsions:
REMARK  status: ('A' for Active; 'I' for Inactive)
REMARK    1  A    between atoms: O_1  and  C_2
REMARK                            x       y       z     vdW  Elec       q    Type
REMARK                         _______ _______ _______ _____ _____    ______ ____
ROOT
ATOM      1  C   LIG A   1      -7.841   2.167 127.076  0.00  0.00    +0.125 A 
ATOM      2  C   LIG A   1      -8.204   1.127 126.188  0.00  0.00    +0.039 A 
ATOM      3  C   LIG A   1      -8.257  -0.364 126.456  0.00  0.00    +0.042 A 
ATOM      4  C   LIG A   1      -8.676  -1.232 125.387  0.00  0.00    +0.023 A 
ATOM      5  C   LIG A   1      -9.035  -0.778 124.118  0.00  0.00    +0.119 A 
ATOM      6  C   LIG A   1      -8.957   0.656 123.818  0.00  0.00    +0.212 C 
ATOM      7  O   LIG A   1      -9.229   1.084 122.692  0.00  0.00    -0.285 OA
ATOM      8  C   LIG A   1      -8.540   1.590 124.882  0.00  0.00    +0.035 A 
ATOM      9  C   LIG A   1      -8.504   2.951 124.500  0.00  0.00    +0.012 A 
ATOM     10  C   LIG A   1      -8.134   3.922 125.405  0.00  0.00    +0.004 A 
ATOM     11  C   LIG A   1      -7.806   3.526 126.691  0.00  0.00    +0.046 A 
ATOM     12  N   LIG A   1      -9.448  -1.561 123.082  0.00  0.00    -0.251 NA
ATOM     13  C   LIG A   1      -9.520  -2.881 123.290  0.00  0.00    +0.112 A 
ATOM     14  C   LIG A   1      -9.190  -3.467 124.490  0.00  0.00    +0.028 A 
ATOM     15  C   LIG A   1      -8.753  -2.652 125.536  0.00  0.00    -0.010 A 
ATOM     16  C   LIG A   1      -8.380  -3.252 126.727  0.00  0.00    +0.058 A 
ATOM     17  C   LIG A   1      -7.976  -2.430 127.745  0.00  0.00    +0.167 A 
ATOM     18  C   LIG A   1      -7.937  -1.046 127.640  0.00  0.00    +0.175 A 
ATOM     19  O   LIG A   1      -7.547  -0.517 128.844  0.00  0.00    -0.452 OA
ATOM     20  C   LIG A   1      -7.517  -1.687 129.699  0.00  0.00    +0.466 C 
ATOM     21  O   LIG A   1      -7.585  -2.908 128.958  0.00  0.00    -0.453 OA
ENDROOT
BRANCH   1  22
ATOM     22  O   LIG A   1      -7.485   2.009 128.386  0.00  0.00    -0.506 OA
ATOM     23  H   LIG A   1      -7.138   1.113 128.521  0.00  0.00    +0.292 HD
ENDBRANCH   1  22
TORSDOF 1
ENDMDL
MODEL 8
REMARK VINA RESULT:      -7.0      6.968      8.730
REMARK  Name = NuBBE_2228
REMARK  1 active torsions:
REMARK  status: ('A' for Active; 'I' for Inactive)
REMARK    1  A    between atoms: O_1  and  C_2
REMARK                            x       y       z     vdW  Elec       q    Type
REMARK                         _______ _______ _______ _____ _____    ______ ____
ROOT
ATOM      1  C   LIG A   1      -8.979  -1.586 123.600  0.00  0.00    +0.125 A 
ATOM      2  C   LIG A   1      -7.990  -0.903 124.346  0.00  0.00    +0.039 A 
ATOM      3  C   LIG A   1      -7.556   0.545 124.229  0.00  0.00    +0.042 A 
ATOM      4  C   LIG A   1      -6.528   1.020 125.118  0.00  0.00    +0.023 A 
ATOM      5  C   LIG A   1      -5.910   0.223 126.081  0.00  0.00    +0.119 A 
ATOM      6  C   LIG A   1      -6.282  -1.192 126.192  0.00  0.00    +0.212 C 
ATOM      7  O   LIG A   1      -5.724  -1.933 127.007  0.00  0.00    -0.285 OA
ATOM      8  C   LIG A   1      -7.337  -1.728 125.308  0.00  0.00    +0.035 A 
ATOM      9  C   LIG A   1      -7.632  -3.097 125.496  0.00  0.00    +0.012 A 
ATOM     10  C   LIG A   1      -8.601  -3.714 124.734  0.00  0.00    +0.004 A 
ATOM     11  C   LIG A   1      -9.273  -2.955 123.791  0.00  0.00    +0.046 A 
ATOM     12  N   LIG A   1      -4.942   0.633 126.949  0.00  0.00    -0.251 NA
ATOM     13  C   LIG A   1      -4.546   1.908 126.882  0.00  0.00    +0.112 A 
ATOM     14  C   LIG A   1      -5.066   2.805 125.977  0.00  0.00    +0.028 A 
ATOM     15  C   LIG A   1      -6.044   2.364 125.083  0.00  0.00    -0.010 A 
ATOM     16  C   LIG A   1      -6.530   3.259 124.145  0.00  0.00    +0.058 A 
ATOM     17  C   LIG A   1      -7.504   2.811 123.294  0.00  0.00    +0.167 A 
ATOM     18  C   LIG A   1      -8.024   1.523 123.338  0.00  0.00    +0.175 A 
ATOM     19  O   LIG A   1      -9.017   1.409 122.400  0.00  0.00    -0.452 OA
ATOM     20  C   LIG A   1      -9.143   2.770 121.918  0.00  0.00    +0.466 C 
ATOM     21  O   LIG A   1      -8.055   3.600 122.332  0.00  0.00    -0.453 OA
ENDROOT
BRANCH   1  22
ATOM     22  O   LIG A   1      -9.763  -1.038 122.624  0.00  0.00    -0.506 OA
ATOM     23  H   LIG A   1     -10.094  -1.742 122.043  0.00  0.00    +0.292 HD
ENDBRANCH   1  22
TORSDOF 1
ENDMDL
MODEL 9
REMARK VINA RESULT:      -7.0      6.287      8.611
REMARK  Name = NuBBE_2228
REMARK  1 active torsions:
REMARK  status: ('A' for Active; 'I' for Inactive)
REMARK    1  A    between atoms: O_1  and  C_2
REMARK                            x       y       z     vdW  Elec       q    Type
REMARK                         _______ _______ _______ _____ _____    ______ ____
ROOT
ATOM      1  C   LIG A   1      -8.347  -2.946 127.902  0.00  0.00    +0.125 A 
ATOM      2  C   LIG A   1      -7.848  -1.705 127.443  0.00  0.00    +0.039 A 
ATOM      3  C   LIG A   1      -7.822  -1.167 126.026  0.00  0.00    +0.042 A 
ATOM      4  C   LIG A   1      -7.270   0.144 125.806  0.00  0.00    +0.023 A 
ATOM      5  C   LIG A   1      -6.758   0.948 126.825  0.00  0.00    +0.119 A 
ATOM      6  C   LIG A   1      -6.735   0.438 128.202  0.00  0.00    +0.212 C 
ATOM      7  O   LIG A   1      -6.251   1.109 129.118  0.00  0.00    -0.285 OA
ATOM      8  C   LIG A   1      -7.296  -0.898 128.481  0.00  0.00    +0.035 A 
ATOM      9  C   LIG A   1      -7.237  -1.298 129.835  0.00  0.00    +0.012 A 
ATOM     10  C   LIG A   1      -7.732  -2.523 130.225  0.00  0.00    +0.004 A 
ATOM     11  C   LIG A   1      -8.288  -3.342 129.257  0.00  0.00    +0.046 A 
ATOM     12  N   LIG A   1      -6.238   2.197 126.666  0.00  0.00    -0.251 NA
ATOM     13  C   LIG A   1      -6.213   2.707 125.430  0.00  0.00    +0.112 A 
ATOM     14  C   LIG A   1      -6.678   2.024 124.330  0.00  0.00    +0.028 A 
ATOM     15  C   LIG A   1      -7.194   0.738 124.509  0.00  0.00    -0.010 A 
ATOM     16  C   LIG A   1      -7.619   0.038 123.392  0.00  0.00    +0.058 A 
ATOM     17  C   LIG A   1      -8.140  -1.212 123.595  0.00  0.00    +0.167 A 
ATOM     18  C   LIG A   1      -8.268  -1.792 124.851  0.00  0.00    +0.175 A 
ATOM     19  O   LIG A   1      -8.875  -3.014 124.719  0.00  0.00    -0.452 OA
ATOM     20  C   LIG A   1      -9.232  -3.030 123.314  0.00  0.00    +0.466 C 
ATOM     21  O   LIG A   1      -8.587  -1.992 122.574  0.00  0.00    -0.453 OA
ENDROOT
BRANCH   1  22
ATOM     22  O   LIG A   1      -8.938  -3.905 127.127  0.00  0.00    -0.506 OA
ATOM     23  H   LIG A   1      -8.368  -4.101 126.366  0.00  0.00    +0.292 HD
ENDBRANCH   1  22
TORSDOF 1
ENDMDL
