MODEL 1
REMARK VINA RESULT:      -8.5      0.000      0.000
REMARK  Name = NuBBE_1195
REMARK  17 active torsions:
REMARK  status: ('A' for Active; 'I' for Inactive)
REMARK    1  A    between atoms: C_1  and  C_2
REMARK    2  A    between atoms: C_2  and  C_12
REMARK    3  A    between atoms: C_4  and  C_5
REMARK    4  A    between atoms: C_5  and  C_6
REMARK    5  A    between atoms: C_5  and  O_7
REMARK    6  A    between atoms: C_5  and  C_8
REMARK    7  A    between atoms: C_15  and  O_17
REMARK    8  A    between atoms: C_18  and  C_19
REMARK    9  A    between atoms: C_20  and  C_25
REMARK   10  A    between atoms: C_26  and  O_28
REMARK   11  A    between atoms: C_30  and  C_38
REMARK   12  A    between atoms: C_31  and  C_32
REMARK   13  A    between atoms: C_31  and  C_33
REMARK   14  A    between atoms: C_33  and  C_34
REMARK   15  A    between atoms: C_34  and  C_35
REMARK   16  A    between atoms: C_35  and  O_36
REMARK   17  A    between atoms: C_38  and  C_39
REMARK                            x       y       z     vdW  Elec       q    Type
REMARK                         _______ _______ _______ _____ _____    ______ ____
ROOT
ATOM      1  C   LIG A   1     -10.185   4.275 131.481  0.00  0.00    +0.027 C 
ATOM      2  C   LIG A   1     -10.111   3.109 130.457  0.00  0.00    +0.038 C 
ATOM      3  C   LIG A   1      -8.865   2.237 130.750  0.00  0.00    +0.122 C 
ATOM      4  C   LIG A   1      -7.952   2.996 131.766  0.00  0.00    +0.005 C 
ATOM      5  C   LIG A   1      -7.419   2.016 132.856  0.00  0.00    +0.014 C 
ATOM      6  C   LIG A   1      -6.676   3.805 131.100  0.00  0.00    +0.005 C 
ATOM      7  C   LIG A   1      -6.223   4.985 132.053  0.00  0.00    +0.004 C 
ATOM      8  C   LIG A   1      -7.421   5.828 132.482  0.00  0.00    +0.005 C 
ATOM      9  C   LIG A   1      -8.411   5.024 133.292  0.00  0.00    +0.005 C 
ATOM     10  C   LIG A   1      -9.022   3.923 132.462  0.00  0.00    +0.004 C 
ATOM     11  C   LIG A   1      -7.040   4.222 129.656  0.00  0.00    +0.014 C 
ATOM     12  C   LIG A   1      -5.369   2.951 130.978  0.00  0.00    +0.122 C 
ATOM     13  C   LIG A   1      -4.260   3.712 130.239  0.00  0.00    +0.040 C 
ATOM     14  C   LIG A   1      -3.866   5.095 130.821  0.00  0.00    +0.023 C 
ATOM     15  C   LIG A   1      -4.984   5.893 131.632  0.00  0.00    -0.022 C 
ATOM     16  C   LIG A   1      -5.462   7.143 130.840  0.00  0.00    +0.012 C 
ENDROOT
BRANCH   1  18
ATOM     17  C   LIG A   1      -9.220   6.551 130.501  0.00  0.00    +0.042 C 
ATOM     18  C   LIG A   1     -10.469   5.702 130.842  0.00  0.00    +0.070 C 
ATOM     19  O   LIG A   1     -11.212   5.595 129.615  0.00  0.00    -0.367 OA
ATOM     20  C   LIG A   1     -12.295   6.549 129.586  0.00  0.00    +0.150 C 
ATOM     21  C   LIG A   1     -12.096   7.462 130.784  0.00  0.00    +0.037 C 
ATOM     22  C   LIG A   1     -11.385   6.547 131.756  0.00  0.00    +0.037 C 
BRANCH  20  23
ATOM     23  C   LIG A   1     -12.384   7.273 128.218  0.00  0.00    +0.086 C 
ATOM     24  C   LIG A   1     -11.732   8.651 128.283  0.00  0.00    +0.043 C 
ATOM     25  C   LIG A   1     -13.840   7.418 127.781  0.00  0.00    +0.043 C 
BRANCH  23  26
ATOM     26  O   LIG A   1     -11.689   6.516 127.216  0.00  0.00    -0.387 OA
ATOM     27  H   LIG A   1     -10.946   7.053 126.891  0.00  0.00    +0.210 HD
ENDBRANCH  23  26
ENDBRANCH  20  23
ENDBRANCH   1  18
BRANCH  14  28
ATOM     28  C   LIG A   1      -3.075   5.912 129.766  0.00  0.00    -0.076 C 
ATOM     29  C   LIG A   1      -3.549   5.954 128.326  0.00  0.00    +0.038 C 
ATOM     30  C   LIG A   1      -1.958   6.594 130.078  0.00  0.00    +0.007 C 
ENDBRANCH  14  28
BRANCH   3  31
ATOM     31  O   LIG A   1      -9.343   0.999 131.289  0.00  0.00    -0.391 OA
ATOM     32  H   LIG A   1      -8.960   0.290 130.744  0.00  0.00    +0.210 HD
ENDBRANCH   3  31
BRANCH  12  33
ATOM     33  O   LIG A   1      -5.627   1.739 130.269  0.00  0.00    -0.391 OA
ATOM     34  H   LIG A   1      -5.846   1.058 130.929  0.00  0.00    +0.210 HD
ENDBRANCH  12  33
BRANCH  15  35
ATOM     35  C   LIG A   1      -4.353   6.536 132.960  0.00  0.00    +0.018 C 
BRANCH  35  36
ATOM     36  C   LIG A   1      -4.246   5.639 134.214  0.00  0.00    +0.121 C 
BRANCH  36  37
ATOM     37  C   LIG A   1      -3.138   4.601 134.059  0.00  0.00    +0.305 C 
ATOM     38  O   LIG A   1      -3.269   3.400 134.022  0.00  0.00    -0.251 OA
BRANCH  37  39
ATOM     39  O   LIG A   1      -1.917   5.180 133.900  0.00  0.00    -0.481 OA
ATOM     40  H   LIG A   1      -1.437   4.550 133.323  0.00  0.00    +0.295 HD
ENDBRANCH  37  39
ENDBRANCH  36  37
ENDBRANCH  35  36
ENDBRANCH  15  35
TORSDOF 10
ENDMDL
MODEL 2
REMARK VINA RESULT:      -8.3      5.863      8.896
REMARK  Name = NuBBE_1195
REMARK  17 active torsions:
REMARK  status: ('A' for Active; 'I' for Inactive)
REMARK    1  A    between atoms: C_1  and  C_2
REMARK    2  A    between atoms: C_2  and  C_12
REMARK    3  A    between atoms: C_4  and  C_5
REMARK    4  A    between atoms: C_5  and  C_6
REMARK    5  A    between atoms: C_5  and  O_7
REMARK    6  A    between atoms: C_5  and  C_8
REMARK    7  A    between atoms: C_15  and  O_17
REMARK    8  A    between atoms: C_18  and  C_19
REMARK    9  A    between atoms: C_20  and  C_25
REMARK   10  A    between atoms: C_26  and  O_28
REMARK   11  A    between atoms: C_30  and  C_38
REMARK   12  A    between atoms: C_31  and  C_32
REMARK   13  A    between atoms: C_31  and  C_33
REMARK   14  A    between atoms: C_33  and  C_34
REMARK   15  A    between atoms: C_34  and  C_35
REMARK   16  A    between atoms: C_35  and  O_36
REMARK   17  A    between atoms: C_38  and  C_39
REMARK                            x       y       z     vdW  Elec       q    Type
REMARK                         _______ _______ _______ _____ _____    ______ ____
ROOT
ATOM      1  C   LIG A   1      -7.788  -3.178 126.224  0.00  0.00    +0.027 C 
ATOM      2  C   LIG A   1      -9.082  -2.925 125.404  0.00  0.00    +0.038 C 
ATOM      3  C   LIG A   1      -8.755  -2.042 124.174  0.00  0.00    +0.122 C 
ATOM      4  C   LIG A   1      -7.316  -1.459 124.347  0.00  0.00    +0.005 C 
ATOM      5  C   LIG A   1      -6.530  -1.542 123.002  0.00  0.00    +0.014 C 
ATOM      6  C   LIG A   1      -7.245   0.088 124.916  0.00  0.00    +0.005 C 
ATOM      7  C   LIG A   1      -5.851   0.345 125.622  0.00  0.00    +0.004 C 
ATOM      8  C   LIG A   1      -5.533  -0.767 126.618  0.00  0.00    +0.005 C 
ATOM      9  C   LIG A   1      -5.389  -2.107 125.934  0.00  0.00    +0.005 C 
ATOM     10  C   LIG A   1      -6.692  -2.540 125.312  0.00  0.00    +0.004 C 
ATOM     11  C   LIG A   1      -8.490   0.363 125.791  0.00  0.00    +0.014 C 
ATOM     12  C   LIG A   1      -7.261   1.184 123.798  0.00  0.00    +0.122 C 
ATOM     13  C   LIG A   1      -7.322   2.600 124.390  0.00  0.00    +0.040 C 
ATOM     14  C   LIG A   1      -6.206   2.974 125.398  0.00  0.00    +0.023 C 
ATOM     15  C   LIG A   1      -5.539   1.786 126.228  0.00  0.00    -0.022 C 
ATOM     16  C   LIG A   1      -5.949   1.852 127.726  0.00  0.00    +0.012 C 
ENDROOT
BRANCH   1  18
ATOM     17  C   LIG A   1      -9.094  -3.741 128.472  0.00  0.00    +0.042 C 
ATOM     18  C   LIG A   1      -7.942  -2.961 127.791  0.00  0.00    +0.070 C 
ATOM     19  O   LIG A   1      -6.747  -3.341 128.498  0.00  0.00    -0.367 OA
ATOM     20  C   LIG A   1      -6.387  -2.338 129.472  0.00  0.00    +0.150 C 
ATOM     21  C   LIG A   1      -7.547  -1.359 129.530  0.00  0.00    +0.037 C 
ATOM     22  C   LIG A   1      -8.112  -1.464 128.131  0.00  0.00    +0.037 C 
BRANCH  20  23
ATOM     23  C   LIG A   1      -5.996  -2.973 130.831  0.00  0.00    +0.086 C 
ATOM     24  C   LIG A   1      -5.581  -4.431 130.655  0.00  0.00    +0.043 C 
ATOM     25  C   LIG A   1      -7.159  -2.890 131.818  0.00  0.00    +0.043 C 
BRANCH  23  26
ATOM     26  O   LIG A   1      -4.877  -2.273 131.395  0.00  0.00    -0.387 OA
ATOM     27  H   LIG A   1      -4.212  -2.930 131.664  0.00  0.00    +0.210 HD
ENDBRANCH  23  26
ENDBRANCH  20  23
ENDBRANCH   1  18
BRANCH  14  28
ATOM     28  C   LIG A   1      -6.622   4.225 126.215  0.00  0.00    -0.076 C 
ATOM     29  C   LIG A   1      -5.592   5.281 126.565  0.00  0.00    +0.038 C 
ATOM     30  C   LIG A   1      -7.884   4.415 126.642  0.00  0.00    +0.007 C 
ENDBRANCH  14  28
BRANCH   3  31
ATOM     31  O   LIG A   1      -8.851  -2.887 123.021  0.00  0.00    -0.391 OA
ATOM     32  H   LIG A   1      -9.416  -2.421 122.380  0.00  0.00    +0.210 HD
ENDBRANCH   3  31
BRANCH  12  33
ATOM     33  O   LIG A   1      -8.392   1.010 122.943  0.00  0.00    -0.391 OA
ATOM     34  H   LIG A   1      -9.150   0.780 123.509  0.00  0.00    +0.210 HD
ENDBRANCH  12  33
BRANCH  15  35
ATOM     35  C   LIG A   1      -3.947   1.975 126.287  0.00  0.00    +0.018 C 
BRANCH  35  36
ATOM     36  C   LIG A   1      -3.338   2.554 127.584  0.00  0.00    +0.121 C 
BRANCH  36  37
ATOM     37  C   LIG A   1      -2.298   3.627 127.276  0.00  0.00    +0.305 C 
ATOM     38  O   LIG A   1      -2.324   4.784 127.625  0.00  0.00    -0.251 OA
BRANCH  37  39
ATOM     39  O   LIG A   1      -1.242   3.127 126.578  0.00  0.00    -0.481 OA
ATOM     40  H   LIG A   1      -0.519   3.759 126.770  0.00  0.00    +0.295 HD
ENDBRANCH  37  39
ENDBRANCH  36  37
ENDBRANCH  35  36
ENDBRANCH  15  35
TORSDOF 10
ENDMDL
MODEL 3
REMARK VINA RESULT:      -8.2      2.794      7.060
REMARK  Name = NuBBE_1195
REMARK  17 active torsions:
REMARK  status: ('A' for Active; 'I' for Inactive)
REMARK    1  A    between atoms: C_1  and  C_2
REMARK    2  A    between atoms: C_2  and  C_12
REMARK    3  A    between atoms: C_4  and  C_5
REMARK    4  A    between atoms: C_5  and  C_6
REMARK    5  A    between atoms: C_5  and  O_7
REMARK    6  A    between atoms: C_5  and  C_8
REMARK    7  A    between atoms: C_15  and  O_17
REMARK    8  A    between atoms: C_18  and  C_19
REMARK    9  A    between atoms: C_20  and  C_25
REMARK   10  A    between atoms: C_26  and  O_28
REMARK   11  A    between atoms: C_30  and  C_38
REMARK   12  A    between atoms: C_31  and  C_32
REMARK   13  A    between atoms: C_31  and  C_33
REMARK   14  A    between atoms: C_33  and  C_34
REMARK   15  A    between atoms: C_34  and  C_35
REMARK   16  A    between atoms: C_35  and  O_36
REMARK   17  A    between atoms: C_38  and  C_39
REMARK                            x       y       z     vdW  Elec       q    Type
REMARK                         _______ _______ _______ _____ _____    ______ ____
ROOT
ATOM      1  C   LIG A   1      -5.534   2.332 126.117  0.00  0.00    +0.027 C 
ATOM      2  C   LIG A   1      -4.848   0.996 126.511  0.00  0.00    +0.038 C 
ATOM      3  C   LIG A   1      -5.894   0.037 127.131  0.00  0.00    +0.122 C 
ATOM      4  C   LIG A   1      -7.198   0.845 127.429  0.00  0.00    +0.005 C 
ATOM      5  C   LIG A   1      -8.455   0.026 127.005  0.00  0.00    +0.014 C 
ATOM      6  C   LIG A   1      -7.379   1.337 128.994  0.00  0.00    +0.005 C 
ATOM      7  C   LIG A   1      -8.327   2.605 129.059  0.00  0.00    +0.004 C 
ATOM      8  C   LIG A   1      -7.885   3.665 128.054  0.00  0.00    +0.005 C 
ATOM      9  C   LIG A   1      -7.990   3.166 126.631  0.00  0.00    +0.005 C 
ATOM     10  C   LIG A   1      -7.040   2.020 126.388  0.00  0.00    +0.004 C 
ATOM     11  C   LIG A   1      -5.983   1.520 129.633  0.00  0.00    +0.014 C 
ATOM     12  C   LIG A   1      -8.132   0.310 129.906  0.00  0.00    +0.122 C 
ATOM     13  C   LIG A   1      -8.158   0.765 131.372  0.00  0.00    +0.040 C 
ATOM     14  C   LIG A   1      -8.759   2.167 131.649  0.00  0.00    +0.023 C 
ATOM     15  C   LIG A   1      -8.674   3.245 130.476  0.00  0.00    -0.022 C 
ATOM     16  C   LIG A   1      -7.667   4.375 130.831  0.00  0.00    +0.012 C 
ENDROOT
BRANCH   1  18
ATOM     17  C   LIG A   1      -5.228   4.968 125.936  0.00  0.00    +0.042 C 
ATOM     18  C   LIG A   1      -4.754   3.639 126.574  0.00  0.00    +0.070 C 
ATOM     19  O   LIG A   1      -4.843   3.839 127.996  0.00  0.00    -0.367 OA
ATOM     20  C   LIG A   1      -3.551   4.165 128.550  0.00  0.00    +0.150 C 
ATOM     21  C   LIG A   1      -2.622   4.392 127.370  0.00  0.00    +0.037 C 
ATOM     22  C   LIG A   1      -3.237   3.500 126.315  0.00  0.00    +0.037 C 
BRANCH  20  23
ATOM     23  C   LIG A   1      -3.638   5.345 129.552  0.00  0.00    +0.086 C 
ATOM     24  C   LIG A   1      -2.395   6.228 129.469  0.00  0.00    +0.043 C 
ATOM     25  C   LIG A   1      -3.801   4.827 130.979  0.00  0.00    +0.043 C 
BRANCH  23  26
ATOM     26  O   LIG A   1      -4.772   6.169 129.242  0.00  0.00    -0.387 OA
ATOM     27  H   LIG A   1      -4.600   6.615 128.395  0.00  0.00    +0.210 HD
ENDBRANCH  23  26
ENDBRANCH  20  23
ENDBRANCH   1  18
BRANCH  14  28
ATOM     28  C   LIG A   1      -8.339   2.659 133.059  0.00  0.00    -0.076 C 
ATOM     29  C   LIG A   1      -6.975   2.299 133.614  0.00  0.00    +0.038 C 
ATOM     30  C   LIG A   1      -9.154   3.401 133.831  0.00  0.00    +0.007 C 
ENDBRANCH  14  28
BRANCH   3  31
ATOM     31  O   LIG A   1      -6.123  -1.004 126.173  0.00  0.00    -0.391 OA
ATOM     32  H   LIG A   1      -5.299  -1.518 126.116  0.00  0.00    +0.210 HD
ENDBRANCH   3  31
BRANCH  12  33
ATOM     33  O   LIG A   1      -7.499  -0.969 129.848  0.00  0.00    -0.391 OA
ATOM     34  H   LIG A   1      -7.964  -1.491 129.171  0.00  0.00    +0.210 HD
ENDBRANCH  12  33
BRANCH  15  35
ATOM     35  C   LIG A   1     -10.064   4.036 130.347  0.00  0.00    +0.018 C 
BRANCH  35  36
ATOM     36  C   LIG A   1     -10.029   5.576 130.460  0.00  0.00    +0.121 C 
BRANCH  36  37
ATOM     37  C   LIG A   1     -10.661   6.050 131.765  0.00  0.00    +0.305 C 
ATOM     38  O   LIG A   1     -10.085   6.488 132.733  0.00  0.00    -0.251 OA
BRANCH  37  39
ATOM     39  O   LIG A   1     -12.020   5.988 131.725  0.00  0.00    -0.481 OA
ATOM     40  H   LIG A   1     -12.291   6.920 131.599  0.00  0.00    +0.295 HD
ENDBRANCH  37  39
ENDBRANCH  36  37
ENDBRANCH  35  36
ENDBRANCH  15  35
TORSDOF 10
ENDMDL
MODEL 4
REMARK VINA RESULT:      -8.2      5.475      8.503
REMARK  Name = NuBBE_1195
REMARK  17 active torsions:
REMARK  status: ('A' for Active; 'I' for Inactive)
REMARK    1  A    between atoms: C_1  and  C_2
REMARK    2  A    between atoms: C_2  and  C_12
REMARK    3  A    between atoms: C_4  and  C_5
REMARK    4  A    between atoms: C_5  and  C_6
REMARK    5  A    between atoms: C_5  and  O_7
REMARK    6  A    between atoms: C_5  and  C_8
REMARK    7  A    between atoms: C_15  and  O_17
REMARK    8  A    between atoms: C_18  and  C_19
REMARK    9  A    between atoms: C_20  and  C_25
REMARK   10  A    between atoms: C_26  and  O_28
REMARK   11  A    between atoms: C_30  and  C_38
REMARK   12  A    between atoms: C_31  and  C_32
REMARK   13  A    between atoms: C_31  and  C_33
REMARK   14  A    between atoms: C_33  and  C_34
REMARK   15  A    between atoms: C_34  and  C_35
REMARK   16  A    between atoms: C_35  and  O_36
REMARK   17  A    between atoms: C_38  and  C_39
REMARK                            x       y       z     vdW  Elec       q    Type
REMARK                         _______ _______ _______ _____ _____    ______ ____
ROOT
ATOM      1  C   LIG A   1      -8.040  -1.212 123.898  0.00  0.00    +0.027 C 
ATOM      2  C   LIG A   1      -9.434  -0.552 123.720  0.00  0.00    +0.038 C 
ATOM      3  C   LIG A   1      -9.277   0.987 123.655  0.00  0.00    +0.122 C 
ATOM      4  C   LIG A   1      -7.826   1.360 124.097  0.00  0.00    +0.005 C 
ATOM      5  C   LIG A   1      -7.234   2.454 123.156  0.00  0.00    +0.014 C 
ATOM      6  C   LIG A   1      -7.672   1.858 125.664  0.00  0.00    +0.005 C 
ATOM      7  C   LIG A   1      -6.192   1.608 126.171  0.00  0.00    +0.004 C 
ATOM      8  C   LIG A   1      -5.744   0.183 125.857  0.00  0.00    +0.005 C 
ATOM      9  C   LIG A   1      -5.700  -0.074 124.368  0.00  0.00    +0.005 C 
ATOM     10  C   LIG A   1      -7.078   0.012 123.763  0.00  0.00    +0.004 C 
ATOM     11  C   LIG A   1      -8.783   1.201 126.515  0.00  0.00    +0.014 C 
ATOM     12  C   LIG A   1      -7.839   3.402 125.865  0.00  0.00    +0.122 C 
ATOM     13  C   LIG A   1      -7.813   3.787 127.351  0.00  0.00    +0.040 C 
ATOM     14  C   LIG A   1      -6.566   3.340 128.157  0.00  0.00    +0.023 C 
ATOM     15  C   LIG A   1      -5.795   2.038 127.652  0.00  0.00    -0.022 C 
ATOM     16  C   LIG A   1      -5.993   0.854 128.640  0.00  0.00    +0.012 C 
ENDROOT
BRANCH   1  18
ATOM     17  C   LIG A   1      -7.014  -3.515 124.747  0.00  0.00    +0.042 C 
ATOM     18  C   LIG A   1      -7.974  -2.332 125.025  0.00  0.00    +0.070 C 
ATOM     19  O   LIG A   1      -7.561  -1.786 126.290  0.00  0.00    -0.367 OA
ATOM     20  C   LIG A   1      -8.404  -2.270 127.357  0.00  0.00    +0.150 C 
ATOM     21  C   LIG A   1      -9.278  -3.357 126.755  0.00  0.00    +0.037 C 
ATOM     22  C   LIG A   1      -9.377  -2.912 125.313  0.00  0.00    +0.037 C 
BRANCH  20  23
ATOM     23  C   LIG A   1      -7.573  -2.705 128.592  0.00  0.00    +0.086 C 
ATOM     24  C   LIG A   1      -7.927  -1.863 129.815  0.00  0.00    +0.043 C 
ATOM     25  C   LIG A   1      -6.079  -2.584 128.304  0.00  0.00    +0.043 C 
BRANCH  23  26
ATOM     26  O   LIG A   1      -7.858  -4.074 128.916  0.00  0.00    -0.387 OA
ATOM     27  H   LIG A   1      -8.403  -4.088 129.722  0.00  0.00    +0.210 HD
ENDBRANCH  23  26
ENDBRANCH  20  23
ENDBRANCH   1  18
BRANCH  14  28
ATOM     28  C   LIG A   1      -6.861   3.411 129.679  0.00  0.00    -0.076 C 
ATOM     29  C   LIG A   1      -8.224   3.009 130.207  0.00  0.00    +0.038 C 
ATOM     30  C   LIG A   1      -5.942   3.829 130.568  0.00  0.00    +0.007 C 
ENDBRANCH  14  28
BRANCH   3  31
ATOM     31  O   LIG A   1      -9.535   1.374 122.300  0.00  0.00    -0.391 OA
ATOM     32  H   LIG A   1      -8.673   1.401 121.849  0.00  0.00    +0.210 HD
ENDBRANCH   3  31
BRANCH  12  33
ATOM     33  O   LIG A   1      -9.077   3.848 125.312  0.00  0.00    -0.391 OA
ATOM     34  H   LIG A   1      -9.746   3.790 126.016  0.00  0.00    +0.210 HD
ENDBRANCH  12  33
BRANCH  15  35
ATOM     35  C   LIG A   1      -4.209   2.278 127.701  0.00  0.00    +0.018 C 
BRANCH  35  36
ATOM     36  C   LIG A   1      -3.560   3.046 126.528  0.00  0.00    +0.121 C 
BRANCH  36  37
ATOM     37  C   LIG A   1      -2.100   3.376 126.823  0.00  0.00    +0.305 C 
ATOM     38  O   LIG A   1      -1.138   2.682 126.593  0.00  0.00    -0.251 OA
BRANCH  37  39
ATOM     39  O   LIG A   1      -1.956   4.622 127.350  0.00  0.00    -0.481 OA
ATOM     40  H   LIG A   1      -1.142   4.553 127.890  0.00  0.00    +0.295 HD
ENDBRANCH  37  39
ENDBRANCH  36  37
ENDBRANCH  35  36
ENDBRANCH  15  35
TORSDOF 10
ENDMDL
MODEL 5
REMARK VINA RESULT:      -8.2      5.063      7.359
REMARK  Name = NuBBE_1195
REMARK  17 active torsions:
REMARK  status: ('A' for Active; 'I' for Inactive)
REMARK    1  A    between atoms: C_1  and  C_2
REMARK    2  A    between atoms: C_2  and  C_12
REMARK    3  A    between atoms: C_4  and  C_5
REMARK    4  A    between atoms: C_5  and  C_6
REMARK    5  A    between atoms: C_5  and  O_7
REMARK    6  A    between atoms: C_5  and  C_8
REMARK    7  A    between atoms: C_15  and  O_17
REMARK    8  A    between atoms: C_18  and  C_19
REMARK    9  A    between atoms: C_20  and  C_25
REMARK   10  A    between atoms: C_26  and  O_28
REMARK   11  A    between atoms: C_30  and  C_38
REMARK   12  A    between atoms: C_31  and  C_32
REMARK   13  A    between atoms: C_31  and  C_33
REMARK   14  A    between atoms: C_33  and  C_34
REMARK   15  A    between atoms: C_34  and  C_35
REMARK   16  A    between atoms: C_35  and  O_36
REMARK   17  A    between atoms: C_38  and  C_39
REMARK                            x       y       z     vdW  Elec       q    Type
REMARK                         _______ _______ _______ _____ _____    ______ ____
ROOT
ATOM      1  C   LIG A   1      -7.967   0.179 123.746  0.00  0.00    +0.027 C 
ATOM      2  C   LIG A   1      -6.697  -0.653 123.417  0.00  0.00    +0.038 C 
ATOM      3  C   LIG A   1      -6.474  -1.719 124.518  0.00  0.00    +0.122 C 
ATOM      4  C   LIG A   1      -7.411  -1.393 125.726  0.00  0.00    +0.005 C 
ATOM      5  C   LIG A   1      -8.074  -2.697 126.268  0.00  0.00    +0.014 C 
ATOM      6  C   LIG A   1      -6.693  -0.594 126.980  0.00  0.00    +0.005 C 
ATOM      7  C   LIG A   1      -7.780   0.207 127.808  0.00  0.00    +0.004 C 
ATOM      8  C   LIG A   1      -8.664   1.038 126.881  0.00  0.00    +0.005 C 
ATOM      9  C   LIG A   1      -9.454   0.167 125.932  0.00  0.00    +0.005 C 
ATOM     10  C   LIG A   1      -8.539  -0.574 124.989  0.00  0.00    +0.004 C 
ATOM     11  C   LIG A   1      -5.519   0.252 126.435  0.00  0.00    +0.014 C 
ATOM     12  C   LIG A   1      -6.070  -1.534 128.066  0.00  0.00    +0.122 C 
ATOM     13  C   LIG A   1      -5.309  -0.739 129.137  0.00  0.00    +0.040 C 
ATOM     14  C   LIG A   1      -6.109   0.366 129.874  0.00  0.00    +0.023 C 
ATOM     15  C   LIG A   1      -7.325   1.037 129.089  0.00  0.00    -0.022 C 
ATOM     16  C   LIG A   1      -6.997   2.507 128.705  0.00  0.00    +0.012 C 
ENDROOT
BRANCH   1  18
ATOM     17  C   LIG A   1      -9.062   2.555 123.268  0.00  0.00    +0.042 C 
ATOM     18  C   LIG A   1      -7.783   1.752 123.609  0.00  0.00    +0.070 C 
ATOM     19  O   LIG A   1      -7.274   2.333 124.823  0.00  0.00    -0.367 OA
ATOM     20  C   LIG A   1      -6.201   3.257 124.538  0.00  0.00    +0.150 C 
ATOM     21  C   LIG A   1      -6.171   3.428 123.030  0.00  0.00    +0.037 C 
ATOM     22  C   LIG A   1      -6.707   2.097 122.555  0.00  0.00    +0.037 C 
BRANCH  20  23
ATOM     23  C   LIG A   1      -6.349   4.572 125.345  0.00  0.00    +0.086 C 
ATOM     24  C   LIG A   1      -5.281   4.671 126.432  0.00  0.00    +0.043 C 
ATOM     25  C   LIG A   1      -7.734   4.660 125.982  0.00  0.00    +0.043 C 
BRANCH  23  26
ATOM     26  O   LIG A   1      -6.182   5.702 124.475  0.00  0.00    -0.387 OA
ATOM     27  H   LIG A   1      -6.162   6.506 125.022  0.00  0.00    +0.210 HD
ENDBRANCH  23  26
ENDBRANCH  20  23
ENDBRANCH   1  18
BRANCH  14  28
ATOM     28  C   LIG A   1      -5.138   1.341 130.589  0.00  0.00    -0.076 C 
ATOM     29  C   LIG A   1      -5.462   1.854 131.978  0.00  0.00    +0.038 C 
ATOM     30  C   LIG A   1      -3.999   1.767 130.014  0.00  0.00    +0.007 C 
ENDBRANCH  14  28
BRANCH   3  31
ATOM     31  O   LIG A   1      -6.784  -2.990 123.934  0.00  0.00    -0.391 OA
ATOM     32  H   LIG A   1      -7.730  -3.148 124.096  0.00  0.00    +0.210 HD
ENDBRANCH   3  31
BRANCH  12  33
ATOM     33  O   LIG A   1      -5.160  -2.458 127.467  0.00  0.00    -0.391 OA
ATOM     34  H   LIG A   1      -5.494  -2.654 126.574  0.00  0.00    +0.210 HD
ENDBRANCH  12  33
BRANCH  15  35
ATOM     35  C   LIG A   1      -8.591   1.199 130.061  0.00  0.00    +0.018 C 
BRANCH  35  36
ATOM     36  C   LIG A   1      -9.156   2.621 130.278  0.00  0.00    +0.121 C 
BRANCH  36  37
ATOM     37  C   LIG A   1      -9.162   2.994 131.757  0.00  0.00    +0.305 C 
ATOM     38  O   LIG A   1      -8.469   3.823 132.299  0.00  0.00    -0.251 OA
BRANCH  37  39
ATOM     39  O   LIG A   1     -10.115   2.314 132.450  0.00  0.00    -0.481 OA
ATOM     40  H   LIG A   1     -10.720   1.987 131.753  0.00  0.00    +0.295 HD
ENDBRANCH  37  39
ENDBRANCH  36  37
ENDBRANCH  35  36
ENDBRANCH  15  35
TORSDOF 10
ENDMDL
MODEL 6
REMARK VINA RESULT:      -8.1      4.986      8.362
REMARK  Name = NuBBE_1195
REMARK  17 active torsions:
REMARK  status: ('A' for Active; 'I' for Inactive)
REMARK    1  A    between atoms: C_1  and  C_2
REMARK    2  A    between atoms: C_2  and  C_12
REMARK    3  A    between atoms: C_4  and  C_5
REMARK    4  A    between atoms: C_5  and  C_6
REMARK    5  A    between atoms: C_5  and  O_7
REMARK    6  A    between atoms: C_5  and  C_8
REMARK    7  A    between atoms: C_15  and  O_17
REMARK    8  A    between atoms: C_18  and  C_19
REMARK    9  A    between atoms: C_20  and  C_25
REMARK   10  A    between atoms: C_26  and  O_28
REMARK   11  A    between atoms: C_30  and  C_38
REMARK   12  A    between atoms: C_31  and  C_32
REMARK   13  A    between atoms: C_31  and  C_33
REMARK   14  A    between atoms: C_33  and  C_34
REMARK   15  A    between atoms: C_34  and  C_35
REMARK   16  A    between atoms: C_35  and  O_36
REMARK   17  A    between atoms: C_38  and  C_39
REMARK                            x       y       z     vdW  Elec       q    Type
REMARK                         _______ _______ _______ _____ _____    ______ ____
ROOT
ATOM      1  C   LIG A   1      -7.748  -2.078 126.285  0.00  0.00    +0.027 C 
ATOM      2  C   LIG A   1      -9.176  -1.623 125.880  0.00  0.00    +0.038 C 
ATOM      3  C   LIG A   1      -9.101  -0.261 125.148  0.00  0.00    +0.122 C 
ATOM      4  C   LIG A   1      -7.667   0.331 125.340  0.00  0.00    +0.005 C 
ATOM      5  C   LIG A   1      -7.141   0.930 123.999  0.00  0.00    +0.014 C 
ATOM      6  C   LIG A   1      -7.527   1.467 126.529  0.00  0.00    +0.005 C 
ATOM      7  C   LIG A   1      -6.032   1.528 127.049  0.00  0.00    +0.004 C 
ATOM      8  C   LIG A   1      -5.512   0.130 127.372  0.00  0.00    +0.005 C 
ATOM      9  C   LIG A   1      -5.467  -0.748 126.143  0.00  0.00    +0.005 C 
ATOM     10  C   LIG A   1      -6.853  -0.995 125.603  0.00  0.00    +0.004 C 
ATOM     11  C   LIG A   1      -8.595   1.200 127.614  0.00  0.00    +0.014 C 
ATOM     12  C   LIG A   1      -7.772   2.936 126.044  0.00  0.00    +0.122 C 
ATOM     13  C   LIG A   1      -7.754   3.931 127.213  0.00  0.00    +0.040 C 
ATOM     14  C   LIG A   1      -6.479   3.935 128.095  0.00  0.00    +0.023 C 
ATOM     15  C   LIG A   1      -5.645   2.577 128.183  0.00  0.00    -0.022 C 
ATOM     16  C   LIG A   1      -5.773   1.935 129.593  0.00  0.00    +0.012 C 
ENDROOT
BRANCH   1  18
ATOM     17  C   LIG A   1      -8.443  -3.849 128.144  0.00  0.00    +0.042 C 
ATOM     18  C   LIG A   1      -7.614  -2.591 127.784  0.00  0.00    +0.070 C 
ATOM     19  O   LIG A   1      -6.253  -2.917 128.112  0.00  0.00    -0.367 OA
ATOM     20  C   LIG A   1      -5.889  -2.365 129.395  0.00  0.00    +0.150 C 
ATOM     21  C   LIG A   1      -7.170  -1.832 130.013  0.00  0.00    +0.037 C 
ATOM     22  C   LIG A   1      -7.980  -1.475 128.788  0.00  0.00    +0.037 C 
BRANCH  20  23
ATOM     23  C   LIG A   1      -5.119  -3.393 130.265  0.00  0.00    +0.086 C 
ATOM     24  C   LIG A   1      -3.795  -3.781 129.612  0.00  0.00    +0.043 C 
ATOM     25  C   LIG A   1      -5.963  -4.646 130.488  0.00  0.00    +0.043 C 
BRANCH  23  26
ATOM     26  O   LIG A   1      -4.816  -2.822 131.546  0.00  0.00    -0.387 OA
ATOM     27  H   LIG A   1      -5.471  -3.148 132.186  0.00  0.00    +0.210 HD
ENDBRANCH  23  26
ENDBRANCH  20  23
ENDBRANCH   1  18
BRANCH  14  28
ATOM     28  C   LIG A   1      -6.765   4.648 129.443  0.00  0.00    -0.076 C 
ATOM     29  C   LIG A   1      -5.657   5.402 130.153  0.00  0.00    +0.038 C 
ATOM     30  C   LIG A   1      -7.977   4.619 130.026  0.00  0.00    +0.007 C 
ENDBRANCH  14  28
BRANCH   3  31
ATOM     31  O   LIG A   1      -9.389  -0.514 123.767  0.00  0.00    -0.391 OA
ATOM     32  H   LIG A   1      -9.597   0.345 123.363  0.00  0.00    +0.210 HD
ENDBRANCH   3  31
BRANCH  12  33
ATOM     33  O   LIG A   1      -9.037   3.042 125.389  0.00  0.00    -0.391 OA
ATOM     34  H   LIG A   1      -8.865   3.081 124.432  0.00  0.00    +0.210 HD
ENDBRANCH  12  33
BRANCH  15  35
ATOM     35  C   LIG A   1      -4.074   2.883 128.075  0.00  0.00    +0.018 C 
BRANCH  35  36
ATOM     36  C   LIG A   1      -3.424   2.830 126.674  0.00  0.00    +0.121 C 
BRANCH  36  37
ATOM     37  C   LIG A   1      -1.960   3.256 126.727  0.00  0.00    +0.305 C 
ATOM     38  O   LIG A   1      -1.003   2.610 126.371  0.00  0.00    -0.251 OA
BRANCH  37  39
ATOM     39  O   LIG A   1      -1.817   4.530 127.184  0.00  0.00    -0.481 OA
ATOM     40  H   LIG A   1      -2.140   5.080 126.442  0.00  0.00    +0.295 HD
ENDBRANCH  37  39
ENDBRANCH  36  37
ENDBRANCH  35  36
ENDBRANCH  15  35
TORSDOF 10
ENDMDL
MODEL 7
REMARK VINA RESULT:      -8.0      4.215      7.425
REMARK  Name = NuBBE_1195
REMARK  17 active torsions:
REMARK  status: ('A' for Active; 'I' for Inactive)
REMARK    1  A    between atoms: C_1  and  C_2
REMARK    2  A    between atoms: C_2  and  C_12
REMARK    3  A    between atoms: C_4  and  C_5
REMARK    4  A    between atoms: C_5  and  C_6
REMARK    5  A    between atoms: C_5  and  O_7
REMARK    6  A    between atoms: C_5  and  C_8
REMARK    7  A    between atoms: C_15  and  O_17
REMARK    8  A    between atoms: C_18  and  C_19
REMARK    9  A    between atoms: C_20  and  C_25
REMARK   10  A    between atoms: C_26  and  O_28
REMARK   11  A    between atoms: C_30  and  C_38
REMARK   12  A    between atoms: C_31  and  C_32
REMARK   13  A    between atoms: C_31  and  C_33
REMARK   14  A    between atoms: C_33  and  C_34
REMARK   15  A    between atoms: C_34  and  C_35
REMARK   16  A    between atoms: C_35  and  O_36
REMARK   17  A    between atoms: C_38  and  C_39
REMARK                            x       y       z     vdW  Elec       q    Type
REMARK                         _______ _______ _______ _____ _____    ______ ____
ROOT
ATOM      1  C   LIG A   1      -6.917   0.924 124.828  0.00  0.00    +0.027 C 
ATOM      2  C   LIG A   1      -8.293   1.621 124.646  0.00  0.00    +0.038 C 
ATOM      3  C   LIG A   1      -8.242   3.043 125.258  0.00  0.00    +0.122 C 
ATOM      4  C   LIG A   1      -6.941   3.172 126.112  0.00  0.00    +0.005 C 
ATOM      5  C   LIG A   1      -6.256   4.550 125.857  0.00  0.00    +0.014 C 
ATOM      6  C   LIG A   1      -7.140   2.964 127.738  0.00  0.00    +0.005 C 
ATOM      7  C   LIG A   1      -5.777   2.501 128.399  0.00  0.00    +0.004 C 
ATOM      8  C   LIG A   1      -5.170   1.332 127.627  0.00  0.00    +0.005 C 
ATOM      9  C   LIG A   1      -4.811   1.721 126.212  0.00  0.00    +0.005 C 
ATOM     10  C   LIG A   1      -6.043   2.076 125.418  0.00  0.00    +0.004 C 
ATOM     11  C   LIG A   1      -8.347   2.030 127.984  0.00  0.00    +0.014 C 
ATOM     12  C   LIG A   1      -7.459   4.284 128.518  0.00  0.00    +0.122 C 
ATOM     13  C   LIG A   1      -7.759   4.010 129.999  0.00  0.00    +0.040 C 
ATOM     14  C   LIG A   1      -6.669   3.246 130.794  0.00  0.00    +0.023 C 
ATOM     15  C   LIG A   1      -5.718   2.263 129.973  0.00  0.00    -0.022 C 
ATOM     16  C   LIG A   1      -6.020   0.778 130.316  0.00  0.00    +0.012 C 
ENDROOT
BRANCH   1  18
ATOM     17  C   LIG A   1      -5.757  -1.453 125.100  0.00  0.00    +0.042 C 
ATOM     18  C   LIG A   1      -6.995  -0.566 125.377  0.00  0.00    +0.070 C 
ATOM     19  O   LIG A   1      -7.181  -0.595 126.803  0.00  0.00    -0.367 OA
ATOM     20  C   LIG A   1      -8.209  -1.541 127.167  0.00  0.00    +0.150 C 
ATOM     21  C   LIG A   1      -8.549  -2.312 125.903  0.00  0.00    +0.037 C 
ATOM     22  C   LIG A   1      -8.240  -1.297 124.827  0.00  0.00    +0.037 C 
BRANCH  20  23
ATOM     23  C   LIG A   1      -7.783  -2.415 128.374  0.00  0.00    +0.086 C 
ATOM     24  C   LIG A   1      -6.264  -2.551 128.443  0.00  0.00    +0.043 C 
ATOM     25  C   LIG A   1      -8.415  -3.802 128.283  0.00  0.00    +0.043 C 
BRANCH  23  26
ATOM     26  O   LIG A   1      -8.215  -1.804 129.599  0.00  0.00    -0.387 OA
ATOM     27  H   LIG A   1      -9.069  -2.198 129.849  0.00  0.00    +0.210 HD
ENDBRANCH  23  26
ENDBRANCH  20  23
ENDBRANCH   1  18
BRANCH  14  28
ATOM     28  C   LIG A   1      -7.267   2.677 132.107  0.00  0.00    -0.076 C 
ATOM     29  C   LIG A   1      -8.676   2.117 132.120  0.00  0.00    +0.038 C 
ATOM     30  C   LIG A   1      -6.577   2.664 133.262  0.00  0.00    +0.007 C 
ENDBRANCH  14  28
BRANCH   3  31
ATOM     31  O   LIG A   1      -8.252   3.966 124.163  0.00  0.00    -0.391 OA
ATOM     32  H   LIG A   1      -8.633   4.795 124.499  0.00  0.00    +0.210 HD
ENDBRANCH   3  31
BRANCH  12  33
ATOM     33  O   LIG A   1      -8.592   4.941 127.949  0.00  0.00    -0.391 OA
ATOM     34  H   LIG A   1      -8.719   5.774 128.437  0.00  0.00    +0.210 HD
ENDBRANCH  12  33
BRANCH  15  35
ATOM     35  C   LIG A   1      -4.196   2.435 130.452  0.00  0.00    +0.018 C 
BRANCH  35  36
ATOM     36  C   LIG A   1      -3.696   3.862 130.768  0.00  0.00    +0.121 C 
BRANCH  36  37
ATOM     37  C   LIG A   1      -3.457   4.661 129.490  0.00  0.00    +0.305 C 
ATOM     38  O   LIG A   1      -2.670   4.403 128.610  0.00  0.00    -0.251 OA
BRANCH  37  39
ATOM     39  O   LIG A   1      -4.300   5.725 129.390  0.00  0.00    -0.481 OA
ATOM     40  H   LIG A   1      -5.004   5.406 128.789  0.00  0.00    +0.295 HD
ENDBRANCH  37  39
ENDBRANCH  36  37
ENDBRANCH  35  36
ENDBRANCH  15  35
TORSDOF 10
ENDMDL
MODEL 8
REMARK VINA RESULT:      -8.0      2.930      4.690
REMARK  Name = NuBBE_1195
REMARK  17 active torsions:
REMARK  status: ('A' for Active; 'I' for Inactive)
REMARK    1  A    between atoms: C_1  and  C_2
REMARK    2  A    between atoms: C_2  and  C_12
REMARK    3  A    between atoms: C_4  and  C_5
REMARK    4  A    between atoms: C_5  and  C_6
REMARK    5  A    between atoms: C_5  and  O_7
REMARK    6  A    between atoms: C_5  and  C_8
REMARK    7  A    between atoms: C_15  and  O_17
REMARK    8  A    between atoms: C_18  and  C_19
REMARK    9  A    between atoms: C_20  and  C_25
REMARK   10  A    between atoms: C_26  and  O_28
REMARK   11  A    between atoms: C_30  and  C_38
REMARK   12  A    between atoms: C_31  and  C_32
REMARK   13  A    between atoms: C_31  and  C_33
REMARK   14  A    between atoms: C_33  and  C_34
REMARK   15  A    between atoms: C_34  and  C_35
REMARK   16  A    between atoms: C_35  and  O_36
REMARK   17  A    between atoms: C_38  and  C_39
REMARK                            x       y       z     vdW  Elec       q    Type
REMARK                         _______ _______ _______ _____ _____    ______ ____
ROOT
ATOM      1  C   LIG A   1      -7.337   3.927 132.423  0.00  0.00    +0.027 C 
ATOM      2  C   LIG A   1      -8.282   2.740 132.756  0.00  0.00    +0.038 C 
ATOM      3  C   LIG A   1      -7.717   1.437 132.139  0.00  0.00    +0.122 C 
ATOM      4  C   LIG A   1      -6.572   1.810 131.144  0.00  0.00    +0.005 C 
ATOM      5  C   LIG A   1      -5.361   0.842 131.318  0.00  0.00    +0.014 C 
ATOM      6  C   LIG A   1      -7.005   1.849 129.552  0.00  0.00    +0.005 C 
ATOM      7  C   LIG A   1      -6.026   2.797 128.744  0.00  0.00    +0.004 C 
ATOM      8  C   LIG A   1      -5.873   4.144 129.446  0.00  0.00    +0.005 C 
ATOM      9  C   LIG A   1      -5.243   3.996 130.811  0.00  0.00    +0.005 C 
ATOM     10  C   LIG A   1      -6.134   3.206 131.736  0.00  0.00    +0.004 C 
ATOM     11  C   LIG A   1      -8.507   2.201 129.444  0.00  0.00    +0.014 C 
ATOM     12  C   LIG A   1      -6.835   0.481 128.808  0.00  0.00    +0.122 C 
ATOM     13  C   LIG A   1      -7.371   0.545 127.371  0.00  0.00    +0.040 C 
ATOM     14  C   LIG A   1      -6.776   1.651 126.461  0.00  0.00    +0.023 C 
ATOM     15  C   LIG A   1      -6.231   2.970 127.174  0.00  0.00    -0.022 C 
ATOM     16  C   LIG A   1      -7.148   4.188 126.870  0.00  0.00    +0.012 C 
ENDROOT
BRANCH   1  18
ATOM     17  C   LIG A   1      -7.168   6.465 131.644  0.00  0.00    +0.042 C 
ATOM     18  C   LIG A   1      -8.072   5.232 131.890  0.00  0.00    +0.070 C 
ATOM     19  O   LIG A   1      -8.743   4.988 130.641  0.00  0.00    -0.367 OA
ATOM     20  C   LIG A   1     -10.078   5.538 130.660  0.00  0.00    +0.150 C 
ATOM     21  C   LIG A   1     -10.183   6.366 131.929  0.00  0.00    +0.037 C 
ATOM     22  C   LIG A   1      -9.211   5.657 132.844  0.00  0.00    +0.037 C 
BRANCH  20  23
ATOM     23  C   LIG A   1     -10.402   6.301 129.350  0.00  0.00    +0.086 C 
ATOM     24  C   LIG A   1      -9.996   7.768 129.455  0.00  0.00    +0.043 C 
ATOM     25  C   LIG A   1     -11.892   6.206 129.027  0.00  0.00    +0.043 C 
BRANCH  23  26
ATOM     26  O   LIG A   1      -9.669   5.730 128.256  0.00  0.00    -0.387 OA
ATOM     27  H   LIG A   1      -8.873   5.301 128.615  0.00  0.00    +0.210 HD
ENDBRANCH  23  26
ENDBRANCH  20  23
ENDBRANCH   1  18
BRANCH  14  28
ATOM     28  C   LIG A   1      -7.686   1.871 125.224  0.00  0.00    -0.076 C 
ATOM     29  C   LIG A   1      -9.183   1.661 125.336  0.00  0.00    +0.038 C 
ATOM     30  C   LIG A   1      -7.192   2.241 124.029  0.00  0.00    +0.007 C 
ENDBRANCH  14  28
BRANCH   3  31
ATOM     31  O   LIG A   1      -7.236   0.637 133.226  0.00  0.00    -0.391 OA
ATOM     32  H   LIG A   1      -6.317   0.913 133.390  0.00  0.00    +0.210 HD
ENDBRANCH   3  31
BRANCH  12  33
ATOM     33  O   LIG A   1      -7.535  -0.554 129.499  0.00  0.00    -0.391 OA
ATOM     34  H   LIG A   1      -7.901  -0.164 130.312  0.00  0.00    +0.210 HD
ENDBRANCH  12  33
BRANCH  15  35
ATOM     35  C   LIG A   1      -4.830   3.411 126.527  0.00  0.00    +0.018 C 
BRANCH  35  36
ATOM     36  C   LIG A   1      -3.632   2.447 126.676  0.00  0.00    +0.121 C 
BRANCH  36  37
ATOM     37  C   LIG A   1      -2.372   3.192 127.108  0.00  0.00    +0.305 C 
ATOM     38  O   LIG A   1      -2.318   4.263 127.666  0.00  0.00    -0.251 OA
BRANCH  37  39
ATOM     39  O   LIG A   1      -1.244   2.479 126.846  0.00  0.00    -0.481 OA
ATOM     40  H   LIG A   1      -0.725   3.072 126.264  0.00  0.00    +0.295 HD
ENDBRANCH  37  39
ENDBRANCH  36  37
ENDBRANCH  35  36
ENDBRANCH  15  35
TORSDOF 10
ENDMDL
MODEL 9
REMARK VINA RESULT:      -7.9      2.630      6.278
REMARK  Name = NuBBE_1195
REMARK  17 active torsions:
REMARK  status: ('A' for Active; 'I' for Inactive)
REMARK    1  A    between atoms: C_1  and  C_2
REMARK    2  A    between atoms: C_2  and  C_12
REMARK    3  A    between atoms: C_4  and  C_5
REMARK    4  A    between atoms: C_5  and  C_6
REMARK    5  A    between atoms: C_5  and  O_7
REMARK    6  A    between atoms: C_5  and  C_8
REMARK    7  A    between atoms: C_15  and  O_17
REMARK    8  A    between atoms: C_18  and  C_19
REMARK    9  A    between atoms: C_20  and  C_25
REMARK   10  A    between atoms: C_26  and  O_28
REMARK   11  A    between atoms: C_30  and  C_38
REMARK   12  A    between atoms: C_31  and  C_32
REMARK   13  A    between atoms: C_31  and  C_33
REMARK   14  A    between atoms: C_33  and  C_34
REMARK   15  A    between atoms: C_34  and  C_35
REMARK   16  A    between atoms: C_35  and  O_36
REMARK   17  A    between atoms: C_38  and  C_39
REMARK                            x       y       z     vdW  Elec       q    Type
REMARK                         _______ _______ _______ _____ _____    ______ ____
ROOT
ATOM      1  C   LIG A   1      -8.992   1.628 130.400  0.00  0.00    +0.027 C 
ATOM      2  C   LIG A   1      -9.658   2.336 131.612  0.00  0.00    +0.038 C 
ATOM      3  C   LIG A   1      -9.601   3.871 131.413  0.00  0.00    +0.122 C 
ATOM      4  C   LIG A   1      -8.631   4.186 130.229  0.00  0.00    +0.005 C 
ATOM      5  C   LIG A   1      -9.238   5.286 129.305  0.00  0.00    +0.014 C 
ATOM      6  C   LIG A   1      -7.104   4.635 130.668  0.00  0.00    +0.005 C 
ATOM      7  C   LIG A   1      -6.087   4.324 129.495  0.00  0.00    +0.004 C 
ATOM      8  C   LIG A   1      -6.262   2.895 128.988  0.00  0.00    +0.005 C 
ATOM      9  C   LIG A   1      -7.633   2.677 128.390  0.00  0.00    +0.005 C 
ATOM     10  C   LIG A   1      -8.709   2.824 129.436  0.00  0.00    +0.004 C 
ATOM     11  C   LIG A   1      -6.759   3.990 132.031  0.00  0.00    +0.014 C 
ATOM     12  C   LIG A   1      -6.922   6.177 130.870  0.00  0.00    +0.122 C 
ATOM     13  C   LIG A   1      -5.523   6.520 131.399  0.00  0.00    +0.040 C 
ATOM     14  C   LIG A   1      -4.324   6.011 130.558  0.00  0.00    +0.023 C 
ATOM     15  C   LIG A   1      -4.550   4.700 129.678  0.00  0.00    -0.022 C 
ATOM     16  C   LIG A   1      -3.755   3.496 130.257  0.00  0.00    +0.012 C 
ENDROOT
BRANCH   1  18
ATOM     17  C   LIG A   1      -7.641  -0.542 129.665  0.00  0.00    +0.042 C 
ATOM     18  C   LIG A   1      -7.967   0.476 130.786  0.00  0.00    +0.070 C 
ATOM     19  O   LIG A   1      -6.699   1.013 131.203  0.00  0.00    -0.367 OA
ATOM     20  C   LIG A   1      -6.237   0.362 132.405  0.00  0.00    +0.150 C 
ATOM     21  C   LIG A   1      -7.173  -0.809 132.647  0.00  0.00    +0.037 C 
ATOM     22  C   LIG A   1      -8.457  -0.314 132.020  0.00  0.00    +0.037 C 
BRANCH  20  23
ATOM     23  C   LIG A   1      -4.734  -0.009 132.314  0.00  0.00    +0.086 C 
ATOM     24  C   LIG A   1      -3.873   1.006 133.062  0.00  0.00    +0.043 C 
ATOM     25  C   LIG A   1      -4.285  -0.082 130.856  0.00  0.00    +0.043 C 
BRANCH  23  26
ATOM     26  O   LIG A   1      -4.508  -1.291 132.919  0.00  0.00    -0.387 OA
ATOM     27  H   LIG A   1      -4.578  -1.970 132.226  0.00  0.00    +0.210 HD
ENDBRANCH  23  26
ENDBRANCH  20  23
ENDBRANCH   1  18
BRANCH  14  28
ATOM     28  C   LIG A   1      -3.024   6.049 131.404  0.00  0.00    -0.076 C 
ATOM     29  C   LIG A   1      -1.709   6.439 130.759  0.00  0.00    +0.038 C 
ATOM     30  C   LIG A   1      -3.012   5.737 132.712  0.00  0.00    +0.007 C 
ENDBRANCH  14  28
BRANCH   3  31
ATOM     31  O   LIG A   1     -10.938   4.303 131.132  0.00  0.00    -0.391 OA
ATOM     32  H   LIG A   1     -11.004   5.224 131.440  0.00  0.00    +0.210 HD
ENDBRANCH   3  31
BRANCH  12  33
ATOM     33  O   LIG A   1      -7.885   6.677 131.799  0.00  0.00    -0.391 OA
ATOM     34  H   LIG A   1      -8.002   5.998 132.487  0.00  0.00    +0.210 HD
ENDBRANCH  12  33
BRANCH  15  35
ATOM     35  C   LIG A   1      -3.898   4.888 128.224  0.00  0.00    +0.018 C 
BRANCH  35  36
ATOM     36  C   LIG A   1      -2.540   4.206 127.949  0.00  0.00    +0.121 C 
BRANCH  36  37
ATOM     37  C   LIG A   1      -2.673   3.115 126.890  0.00  0.00    +0.305 C 
ATOM     38  O   LIG A   1      -3.676   2.803 126.291  0.00  0.00    -0.251 OA
BRANCH  37  39
ATOM     39  O   LIG A   1      -1.479   2.521 126.619  0.00  0.00    -0.481 OA
ATOM     40  H   LIG A   1      -1.711   1.575 126.513  0.00  0.00    +0.295 HD
ENDBRANCH  37  39
ENDBRANCH  36  37
ENDBRANCH  35  36
ENDBRANCH  15  35
TORSDOF 10
ENDMDL
