MODEL 1
REMARK VINA RESULT:      -9.2      0.000      0.000
REMARK  Name = NuBBE_384
REMARK  11 active torsions:
REMARK  status: ('A' for Active; 'I' for Inactive)
REMARK    1  A    between atoms: C_3  and  O_4
REMARK    2  A    between atoms: C_5  and  C_6
REMARK    3  A    between atoms: C_12  and  C_13
REMARK    4  A    between atoms: C_15  and  C_28
REMARK    5  A    between atoms: C_17  and  O_19
REMARK    6  A    between atoms: C_20  and  C_21
REMARK    7  A    between atoms: C_20  and  C_22
REMARK    8  A    between atoms: C_22  and  O_23
REMARK    9  A    between atoms: O_23  and  C_24
REMARK   10  A    between atoms: C_31  and  C_32
REMARK   11  A    between atoms: C_35  and  C_36
REMARK                            x       y       z     vdW  Elec       q    Type
REMARK                         _______ _______ _______ _____ _____    ______ ____
ROOT
ATOM      1  O   LIG A   1      -1.832  -4.278 134.563  0.00  0.00    -0.284 OA
ATOM      2  C   LIG A   1      -3.008  -4.319 134.211  0.00  0.00    +0.221 C 
ATOM      3  C   LIG A   1      -4.063  -4.718 135.189  0.00  0.00    +0.167 C 
ATOM      4  C   LIG A   1      -5.366  -4.665 134.853  0.00  0.00    +0.002 C 
ATOM      5  C   LIG A   1      -6.448  -5.092 135.808  0.00  0.00    +0.048 C 
ATOM      6  C   LIG A   1      -5.729  -4.128 133.532  0.00  0.00    -0.014 C 
ATOM      7  C   LIG A   1      -6.984  -3.723 133.239  0.00  0.00    +0.009 C 
ATOM      8  C   LIG A   1      -7.297  -2.969 132.040  0.00  0.00    +0.005 C 
ATOM      9  C   LIG A   1      -6.425  -2.807 131.019  0.00  0.00    -0.034 C 
ATOM     10  C   LIG A   1      -6.628  -1.835 129.897  0.00  0.00    -0.038 C 
ATOM     11  C   LIG A   1      -7.599  -0.871 129.831  0.00  0.00    -0.068 C 
ATOM     12  C   LIG A   1      -8.457  -0.372 130.976  0.00  0.00    +0.039 C 
ATOM     13  C   LIG A   1      -7.974  -0.105 128.549  0.00  0.00    +0.045 C 
ATOM     14  C   LIG A   1      -7.188  -0.393 127.245  0.00  0.00    +0.036 C 
ATOM     15  C   LIG A   1      -8.123  -0.525 126.031  0.00  0.00    +0.169 C 
ATOM     16  C   LIG A   1      -7.479  -0.961 124.701  0.00  0.00    +0.197 C 
ATOM     17  C   LIG A   1      -6.655  -2.248 124.865  0.00  0.00    +0.098 C 
ATOM     18  C   LIG A   1      -7.576  -3.482 124.967  0.00  0.00    +0.026 C 
ATOM     19  C   LIG A   1      -5.727  -2.159 126.110  0.00  0.00    +0.026 C 
ATOM     20  O   LIG A   1      -9.307  -0.176 126.049  0.00  0.00    -0.294 OA
ATOM     21  C   LIG A   1      -6.329   0.847 126.885  0.00  0.00    +0.019 C 
ATOM     22  C   LIG A   1      -6.464  -1.758 127.398  0.00  0.00    +0.014 C 
ATOM     23  C   LIG A   1      -5.616  -1.863 128.720  0.00  0.00    -0.003 C 
ATOM     24  C   LIG A   1      -4.636  -0.668 128.908  0.00  0.00    +0.016 C 
ATOM     25  C   LIG A   1      -4.732  -3.129 128.670  0.00  0.00    +0.013 C 
ATOM     26  C   LIG A   1      -4.147  -3.484 130.025  0.00  0.00    +0.017 C 
ATOM     27  C   LIG A   1      -5.253  -3.834 131.030  0.00  0.00    +0.019 C 
ATOM     28  C   LIG A   1      -5.812  -5.235 130.597  0.00  0.00    +0.021 C 
ATOM     29  C   LIG A   1      -4.709  -4.002 132.470  0.00  0.00    -0.026 C 
ATOM     30  C   LIG A   1      -3.409  -4.059 132.814  0.00  0.00    +0.059 C 
ENDROOT
BRANCH   3  31
ATOM     31  O   LIG A   1      -3.630  -5.127 136.438  0.00  0.00    -0.503 OA
ATOM     32  H   LIG A   1      -3.912  -4.410 137.046  0.00  0.00    +0.292 HD
ENDBRANCH   3  31
BRANCH  16  33
ATOM     33  O   LIG A   1      -8.503  -1.119 123.718  0.00  0.00    -0.383 OA
ATOM     34  H   LIG A   1      -8.782  -0.217 123.456  0.00  0.00    +0.210 HD
ENDBRANCH  16  33
BRANCH  17  35
ATOM     35  C   LIG A   1      -5.779  -2.399 123.608  0.00  0.00    +0.316 C 
ATOM     36  O   LIG A   1      -6.069  -2.016 122.492  0.00  0.00    -0.250 OA
BRANCH  35  37
ATOM     37  O   LIG A   1      -4.592  -2.987 123.944  0.00  0.00    -0.468 OA
ATOM     38  C   LIG A   1      -4.370  -4.325 123.500  0.00  0.00    +0.280 C 
ENDBRANCH  35  37
ENDBRANCH  17  35
TORSDOF 4
ENDMDL
MODEL 2
REMARK VINA RESULT:      -9.2      4.117     10.177
REMARK  Name = NuBBE_384
REMARK  11 active torsions:
REMARK  status: ('A' for Active; 'I' for Inactive)
REMARK    1  A    between atoms: C_3  and  O_4
REMARK    2  A    between atoms: C_5  and  C_6
REMARK    3  A    between atoms: C_12  and  C_13
REMARK    4  A    between atoms: C_15  and  C_28
REMARK    5  A    between atoms: C_17  and  O_19
REMARK    6  A    between atoms: C_20  and  C_21
REMARK    7  A    between atoms: C_20  and  C_22
REMARK    8  A    between atoms: C_22  and  O_23
REMARK    9  A    between atoms: O_23  and  C_24
REMARK   10  A    between atoms: C_31  and  C_32
REMARK   11  A    between atoms: C_35  and  C_36
REMARK                            x       y       z     vdW  Elec       q    Type
REMARK                         _______ _______ _______ _____ _____    ______ ____
ROOT
ATOM      1  O   LIG A   1      -4.653   4.729 120.480  0.00  0.00    -0.284 OA
ATOM      2  C   LIG A   1      -5.690   4.288 120.970  0.00  0.00    +0.221 C 
ATOM      3  C   LIG A   1      -6.962   4.343 120.191  0.00  0.00    +0.167 C 
ATOM      4  C   LIG A   1      -8.084   3.770 120.667  0.00  0.00    +0.002 C 
ATOM      5  C   LIG A   1      -9.387   3.837 119.918  0.00  0.00    +0.048 C 
ATOM      6  C   LIG A   1      -8.007   3.019 121.931  0.00  0.00    -0.014 C 
ATOM      7  C   LIG A   1      -8.964   2.144 122.308  0.00  0.00    +0.009 C 
ATOM      8  C   LIG A   1      -8.783   1.223 123.415  0.00  0.00    +0.005 C 
ATOM      9  C   LIG A   1      -7.757   1.314 124.292  0.00  0.00    -0.034 C 
ATOM     10  C   LIG A   1      -7.408   0.241 125.278  0.00  0.00    -0.038 C 
ATOM     11  C   LIG A   1      -7.940  -1.020 125.319  0.00  0.00    -0.068 C 
ATOM     12  C   LIG A   1      -8.733  -1.703 124.223  0.00  0.00    +0.039 C 
ATOM     13  C   LIG A   1      -7.797  -1.983 126.512  0.00  0.00    +0.045 C 
ATOM     14  C   LIG A   1      -6.967  -1.536 127.742  0.00  0.00    +0.036 C 
ATOM     15  C   LIG A   1      -7.675  -1.878 129.064  0.00  0.00    +0.169 C 
ATOM     16  C   LIG A   1      -7.025  -1.350 130.358  0.00  0.00    +0.197 C 
ATOM     17  C   LIG A   1      -6.762   0.162 130.285  0.00  0.00    +0.098 C 
ATOM     18  C   LIG A   1      -8.071   0.958 130.471  0.00  0.00    +0.026 C 
ATOM     19  C   LIG A   1      -6.082   0.543 128.939  0.00  0.00    +0.026 C 
ATOM     20  O   LIG A   1      -8.637  -2.647 129.136  0.00  0.00    -0.294 OA
ATOM     21  C   LIG A   1      -5.671  -2.384 127.816  0.00  0.00    +0.019 C 
ATOM     22  C   LIG A   1      -6.822   0.009 127.703  0.00  0.00    +0.014 C 
ATOM     23  C   LIG A   1      -6.298   0.546 126.320  0.00  0.00    -0.003 C 
ATOM     24  C   LIG A   1      -4.996  -0.165 125.848  0.00  0.00    +0.016 C 
ATOM     25  C   LIG A   1      -5.937   2.043 126.446  0.00  0.00    +0.013 C 
ATOM     26  C   LIG A   1      -5.750   2.713 125.097  0.00  0.00    +0.017 C 
ATOM     27  C   LIG A   1      -7.056   2.706 124.290  0.00  0.00    +0.019 C 
ATOM     28  C   LIG A   1      -8.005   3.745 124.984  0.00  0.00    +0.021 C 
ATOM     29  C   LIG A   1      -6.852   3.195 122.835  0.00  0.00    -0.026 C 
ATOM     30  C   LIG A   1      -5.736   3.772 122.353  0.00  0.00    +0.059 C 
ENDROOT
BRANCH   3  31
ATOM     31  O   LIG A   1      -6.917   4.995 118.971  0.00  0.00    -0.503 OA
ATOM     32  H   LIG A   1      -7.696   5.590 118.978  0.00  0.00    +0.292 HD
ENDBRANCH   3  31
BRANCH  16  33
ATOM     33  O   LIG A   1      -7.861  -1.682 131.467  0.00  0.00    -0.383 OA
ATOM     34  H   LIG A   1      -7.992  -0.855 131.977  0.00  0.00    +0.210 HD
ENDBRANCH  16  33
BRANCH  17  35
ATOM     35  C   LIG A   1      -5.808   0.520 131.439  0.00  0.00    +0.316 C 
ATOM     36  O   LIG A   1      -5.649   1.629 131.909  0.00  0.00    -0.250 OA
BRANCH  35  37
ATOM     37  O   LIG A   1      -5.196  -0.613 131.896  0.00  0.00    -0.468 OA
ATOM     38  C   LIG A   1      -3.782  -0.569 132.088  0.00  0.00    +0.280 C 
ENDBRANCH  35  37
ENDBRANCH  17  35
TORSDOF 4
ENDMDL
MODEL 3
REMARK VINA RESULT:      -8.8      2.248      8.775
REMARK  Name = NuBBE_384
REMARK  11 active torsions:
REMARK  status: ('A' for Active; 'I' for Inactive)
REMARK    1  A    between atoms: C_3  and  O_4
REMARK    2  A    between atoms: C_5  and  C_6
REMARK    3  A    between atoms: C_12  and  C_13
REMARK    4  A    between atoms: C_15  and  C_28
REMARK    5  A    between atoms: C_17  and  O_19
REMARK    6  A    between atoms: C_20  and  C_21
REMARK    7  A    between atoms: C_20  and  C_22
REMARK    8  A    between atoms: C_22  and  O_23
REMARK    9  A    between atoms: O_23  and  C_24
REMARK   10  A    between atoms: C_31  and  C_32
REMARK   11  A    between atoms: C_35  and  C_36
REMARK                            x       y       z     vdW  Elec       q    Type
REMARK                         _______ _______ _______ _____ _____    ______ ____
ROOT
ATOM      1  O   LIG A   1      -9.665  -2.521 123.426  0.00  0.00    -0.284 OA
ATOM      2  C   LIG A   1      -9.233  -1.613 124.131  0.00  0.00    +0.221 C 
ATOM      3  C   LIG A   1      -9.425  -0.192 123.714  0.00  0.00    +0.167 C 
ATOM      4  C   LIG A   1      -9.054   0.817 124.525  0.00  0.00    +0.002 C 
ATOM      5  C   LIG A   1      -9.206   2.257 124.117  0.00  0.00    +0.048 C 
ATOM      6  C   LIG A   1      -8.532   0.489 125.861  0.00  0.00    -0.014 C 
ATOM      7  C   LIG A   1      -8.457   1.405 126.850  0.00  0.00    +0.009 C 
ATOM      8  C   LIG A   1      -8.184   1.042 128.228  0.00  0.00    +0.005 C 
ATOM      9  C   LIG A   1      -7.761  -0.188 128.598  0.00  0.00    -0.034 C 
ATOM     10  C   LIG A   1      -7.715  -0.660 130.020  0.00  0.00    -0.038 C 
ATOM     11  C   LIG A   1      -8.244  -0.008 131.102  0.00  0.00    -0.068 C 
ATOM     12  C   LIG A   1      -9.240   1.133 131.073  0.00  0.00    +0.039 C 
ATOM     13  C   LIG A   1      -7.916  -0.354 132.567  0.00  0.00    +0.045 C 
ATOM     14  C   LIG A   1      -6.962  -1.538 132.863  0.00  0.00    +0.036 C 
ATOM     15  C   LIG A   1      -5.932  -1.184 133.949  0.00  0.00    +0.169 C 
ATOM     16  C   LIG A   1      -4.830  -2.225 134.228  0.00  0.00    +0.197 C 
ATOM     17  C   LIG A   1      -4.104  -2.642 132.939  0.00  0.00    +0.098 C 
ATOM     18  C   LIG A   1      -3.123  -1.544 132.479  0.00  0.00    +0.026 C 
ATOM     19  C   LIG A   1      -5.122  -2.968 131.809  0.00  0.00    +0.026 C 
ATOM     20  O   LIG A   1      -6.030  -0.192 134.675  0.00  0.00    -0.294 OA
ATOM     21  C   LIG A   1      -7.770  -2.690 133.517  0.00  0.00    +0.019 C 
ATOM     22  C   LIG A   1      -6.157  -1.857 131.574  0.00  0.00    +0.014 C 
ATOM     23  C   LIG A   1      -7.070  -2.042 130.306  0.00  0.00    -0.003 C 
ATOM     24  C   LIG A   1      -8.220  -3.066 130.532  0.00  0.00    +0.016 C 
ATOM     25  C   LIG A   1      -6.228  -2.606 129.139  0.00  0.00    +0.013 C 
ATOM     26  C   LIG A   1      -6.939  -2.496 127.802  0.00  0.00    +0.017 C 
ATOM     27  C   LIG A   1      -7.178  -1.028 127.422  0.00  0.00    +0.019 C 
ATOM     28  C   LIG A   1      -5.775  -0.442 127.036  0.00  0.00    +0.021 C 
ATOM     29  C   LIG A   1      -8.078  -0.883 126.170  0.00  0.00    -0.026 C 
ATOM     30  C   LIG A   1      -8.450  -1.886 125.354  0.00  0.00    +0.059 C 
ENDROOT
BRANCH   3  31
ATOM     31  O   LIG A   1     -10.005   0.019 122.476  0.00  0.00    -0.503 OA
ATOM     32  H   LIG A   1      -9.263   0.297 121.898  0.00  0.00    +0.292 HD
ENDBRANCH   3  31
BRANCH  16  33
ATOM     33  O   LIG A   1      -3.919  -1.692 135.190  0.00  0.00    -0.383 OA
ATOM     34  H   LIG A   1      -4.373  -0.936 135.618  0.00  0.00    +0.210 HD
ENDBRANCH  16  33
BRANCH  17  35
ATOM     35  C   LIG A   1      -3.296  -3.914 133.256  0.00  0.00    +0.316 C 
ATOM     36  O   LIG A   1      -3.660  -5.054 133.051  0.00  0.00    -0.250 OA
BRANCH  35  37
ATOM     37  O   LIG A   1      -2.074  -3.566 133.760  0.00  0.00    -0.468 OA
ATOM     38  C   LIG A   1      -1.566  -4.336 134.849  0.00  0.00    +0.280 C 
ENDBRANCH  35  37
ENDBRANCH  17  35
TORSDOF 4
ENDMDL
MODEL 4
REMARK VINA RESULT:      -8.8      6.495     11.217
REMARK  Name = NuBBE_384
REMARK  11 active torsions:
REMARK  status: ('A' for Active; 'I' for Inactive)
REMARK    1  A    between atoms: C_3  and  O_4
REMARK    2  A    between atoms: C_5  and  C_6
REMARK    3  A    between atoms: C_12  and  C_13
REMARK    4  A    between atoms: C_15  and  C_28
REMARK    5  A    between atoms: C_17  and  O_19
REMARK    6  A    between atoms: C_20  and  C_21
REMARK    7  A    between atoms: C_20  and  C_22
REMARK    8  A    between atoms: C_22  and  O_23
REMARK    9  A    between atoms: O_23  and  C_24
REMARK   10  A    between atoms: C_31  and  C_32
REMARK   11  A    between atoms: C_35  and  C_36
REMARK                            x       y       z     vdW  Elec       q    Type
REMARK                         _______ _______ _______ _____ _____    ______ ____
ROOT
ATOM      1  O   LIG A   1     -13.487   7.438 131.869  0.00  0.00    -0.284 OA
ATOM      2  C   LIG A   1     -12.427   7.217 131.289  0.00  0.00    +0.221 C 
ATOM      3  C   LIG A   1     -12.091   7.967 130.042  0.00  0.00    +0.167 C 
ATOM      4  C   LIG A   1     -10.890   7.817 129.453  0.00  0.00    +0.002 C 
ATOM      5  C   LIG A   1     -10.537   8.535 128.179  0.00  0.00    +0.048 C 
ATOM      6  C   LIG A   1      -9.888   6.962 130.110  0.00  0.00    -0.014 C 
ATOM      7  C   LIG A   1      -8.576   7.016 129.794  0.00  0.00    +0.009 C 
ATOM      8  C   LIG A   1      -7.555   6.369 130.596  0.00  0.00    +0.005 C 
ATOM      9  C   LIG A   1      -7.838   5.483 131.578  0.00  0.00    -0.034 C 
ATOM     10  C   LIG A   1      -6.832   4.999 132.578  0.00  0.00    -0.038 C 
ATOM     11  C   LIG A   1      -5.569   5.497 132.755  0.00  0.00    -0.068 C 
ATOM     12  C   LIG A   1      -5.032   6.811 132.226  0.00  0.00    +0.039 C 
ATOM     13  C   LIG A   1      -4.464   4.789 133.561  0.00  0.00    +0.045 C 
ATOM     14  C   LIG A   1      -4.789   3.446 134.262  0.00  0.00    +0.036 C 
ATOM     15  C   LIG A   1      -3.670   2.410 134.059  0.00  0.00    +0.169 C 
ATOM     16  C   LIG A   1      -3.940   0.984 134.578  0.00  0.00    +0.197 C 
ATOM     17  C   LIG A   1      -5.268   0.427 134.042  0.00  0.00    +0.098 C 
ATOM     18  C   LIG A   1      -5.130  -0.003 132.566  0.00  0.00    +0.026 C 
ATOM     19  C   LIG A   1      -6.411   1.470 134.198  0.00  0.00    +0.026 C 
ATOM     20  O   LIG A   1      -2.549   2.700 133.632  0.00  0.00    -0.294 OA
ATOM     21  C   LIG A   1      -4.785   3.660 135.798  0.00  0.00    +0.019 C 
ATOM     22  C   LIG A   1      -6.068   2.850 133.615  0.00  0.00    +0.014 C 
ATOM     23  C   LIG A   1      -7.263   3.872 133.554  0.00  0.00    -0.003 C 
ATOM     24  C   LIG A   1      -7.569   4.529 134.932  0.00  0.00    +0.016 C 
ATOM     25  C   LIG A   1      -8.558   3.134 133.144  0.00  0.00    +0.013 C 
ATOM     26  C   LIG A   1      -9.667   4.087 132.737  0.00  0.00    +0.017 C 
ATOM     27  C   LIG A   1      -9.276   4.889 131.487  0.00  0.00    +0.019 C 
ATOM     28  C   LIG A   1      -9.325   3.880 130.287  0.00  0.00    +0.021 C 
ATOM     29  C   LIG A   1     -10.294   6.010 131.165  0.00  0.00    -0.026 C 
ATOM     30  C   LIG A   1     -11.497   6.165 131.747  0.00  0.00    +0.059 C 
ENDROOT
BRANCH   3  31
ATOM     31  O   LIG A   1     -13.066   8.815 129.546  0.00  0.00    -0.503 OA
ATOM     32  H   LIG A   1     -13.913   8.366 129.749  0.00  0.00    +0.292 HD
ENDBRANCH   3  31
BRANCH  16  33
ATOM     33  O   LIG A   1      -2.841   0.144 134.223  0.00  0.00    -0.383 OA
ATOM     34  H   LIG A   1      -3.191  -0.770 134.169  0.00  0.00    +0.210 HD
ENDBRANCH  16  33
BRANCH  17  35
ATOM     35  C   LIG A   1      -5.618  -0.817 134.879  0.00  0.00    +0.316 C 
ATOM     36  O   LIG A   1      -6.435  -0.860 135.776  0.00  0.00    -0.250 OA
BRANCH  35  37
ATOM     37  O   LIG A   1      -4.902  -1.890 134.426  0.00  0.00    -0.468 OA
ATOM     38  C   LIG A   1      -4.402  -2.807 135.399  0.00  0.00    +0.280 C 
ENDBRANCH  35  37
ENDBRANCH  17  35
TORSDOF 4
ENDMDL
MODEL 5
REMARK VINA RESULT:      -8.7      2.740      3.875
REMARK  Name = NuBBE_384
REMARK  11 active torsions:
REMARK  status: ('A' for Active; 'I' for Inactive)
REMARK    1  A    between atoms: C_3  and  O_4
REMARK    2  A    between atoms: C_5  and  C_6
REMARK    3  A    between atoms: C_12  and  C_13
REMARK    4  A    between atoms: C_15  and  C_28
REMARK    5  A    between atoms: C_17  and  O_19
REMARK    6  A    between atoms: C_20  and  C_21
REMARK    7  A    between atoms: C_20  and  C_22
REMARK    8  A    between atoms: C_22  and  O_23
REMARK    9  A    between atoms: O_23  and  C_24
REMARK   10  A    between atoms: C_31  and  C_32
REMARK   11  A    between atoms: C_35  and  C_36
REMARK                            x       y       z     vdW  Elec       q    Type
REMARK                         _______ _______ _______ _____ _____    ______ ____
ROOT
ATOM      1  O   LIG A   1      -4.003  -5.018 132.668  0.00  0.00    -0.284 OA
ATOM      2  C   LIG A   1      -5.038  -4.362 132.586  0.00  0.00    +0.221 C 
ATOM      3  C   LIG A   1      -6.110  -4.534 133.611  0.00  0.00    +0.167 C 
ATOM      4  C   LIG A   1      -7.204  -3.749 133.599  0.00  0.00    +0.002 C 
ATOM      5  C   LIG A   1      -8.315  -3.922 134.599  0.00  0.00    +0.048 C 
ATOM      6  C   LIG A   1      -7.279  -2.665 132.606  0.00  0.00    -0.014 C 
ATOM      7  C   LIG A   1      -8.146  -1.637 132.727  0.00  0.00    +0.009 C 
ATOM      8  C   LIG A   1      -8.061  -0.447 131.901  0.00  0.00    +0.005 C 
ATOM      9  C   LIG A   1      -7.270  -0.362 130.807  0.00  0.00    -0.034 C 
ATOM     10  C   LIG A   1      -6.974   0.922 130.091  0.00  0.00    -0.038 C 
ATOM     11  C   LIG A   1      -7.299   2.180 130.525  0.00  0.00    -0.068 C 
ATOM     12  C   LIG A   1      -7.727   2.571 131.925  0.00  0.00    +0.039 C 
ATOM     13  C   LIG A   1      -7.263   3.438 129.639  0.00  0.00    +0.045 C 
ATOM     14  C   LIG A   1      -6.791   3.308 128.169  0.00  0.00    +0.036 C 
ATOM     15  C   LIG A   1      -7.700   4.090 127.205  0.00  0.00    +0.169 C 
ATOM     16  C   LIG A   1      -7.427   3.918 125.698  0.00  0.00    +0.197 C 
ATOM     17  C   LIG A   1      -7.393   2.436 125.293  0.00  0.00    +0.098 C 
ATOM     18  C   LIG A   1      -8.819   1.850 125.228  0.00  0.00    +0.026 C 
ATOM     19  C   LIG A   1      -6.512   1.612 126.275  0.00  0.00    +0.026 C 
ATOM     20  O   LIG A   1      -8.524   4.927 127.583  0.00  0.00    -0.294 OA
ATOM     21  C   LIG A   1      -5.423   4.022 128.009  0.00  0.00    +0.019 C 
ATOM     22  C   LIG A   1      -6.883   1.815 127.753  0.00  0.00    +0.014 C 
ATOM     23  C   LIG A   1      -6.170   0.846 128.766  0.00  0.00    -0.003 C 
ATOM     24  C   LIG A   1      -4.703   1.266 129.076  0.00  0.00    +0.016 C 
ATOM     25  C   LIG A   1      -6.081  -0.571 128.156  0.00  0.00    +0.013 C 
ATOM     26  C   LIG A   1      -5.720  -1.627 129.184  0.00  0.00    +0.017 C 
ATOM     27  C   LIG A   1      -6.810  -1.746 130.260  0.00  0.00    +0.019 C 
ATOM     28  C   LIG A   1      -8.033  -2.443 129.568  0.00  0.00    +0.021 C 
ATOM     29  C   LIG A   1      -6.382  -2.664 131.431  0.00  0.00    -0.026 C 
ATOM     30  C   LIG A   1      -5.293  -3.454 131.449  0.00  0.00    +0.059 C 
ENDROOT
BRANCH   3  31
ATOM     31  O   LIG A   1      -5.911  -5.523 134.558  0.00  0.00    -0.503 OA
ATOM     32  H   LIG A   1      -6.796  -5.926 134.687  0.00  0.00    +0.292 HD
ENDBRANCH   3  31
BRANCH  16  33
ATOM     33  O   LIG A   1      -8.416   4.638 124.961  0.00  0.00    -0.383 OA
ATOM     34  H   LIG A   1      -8.636   4.091 124.179  0.00  0.00    +0.210 HD
ENDBRANCH  16  33
BRANCH  17  35
ATOM     35  C   LIG A   1      -6.771   2.356 123.887  0.00  0.00    +0.316 C 
ATOM     36  O   LIG A   1      -6.939   1.458 123.088  0.00  0.00    -0.250 OA
BRANCH  35  37
ATOM     37  O   LIG A   1      -6.033   3.482 123.648  0.00  0.00    -0.468 OA
ATOM     38  C   LIG A   1      -5.877   3.892 122.290  0.00  0.00    +0.280 C 
ENDBRANCH  35  37
ENDBRANCH  17  35
TORSDOF 4
ENDMDL
MODEL 6
REMARK VINA RESULT:      -8.5      2.744      9.110
REMARK  Name = NuBBE_384
REMARK  11 active torsions:
REMARK  status: ('A' for Active; 'I' for Inactive)
REMARK    1  A    between atoms: C_3  and  O_4
REMARK    2  A    between atoms: C_5  and  C_6
REMARK    3  A    between atoms: C_12  and  C_13
REMARK    4  A    between atoms: C_15  and  C_28
REMARK    5  A    between atoms: C_17  and  O_19
REMARK    6  A    between atoms: C_20  and  C_21
REMARK    7  A    between atoms: C_20  and  C_22
REMARK    8  A    between atoms: C_22  and  O_23
REMARK    9  A    between atoms: O_23  and  C_24
REMARK   10  A    between atoms: C_31  and  C_32
REMARK   11  A    between atoms: C_35  and  C_36
REMARK                            x       y       z     vdW  Elec       q    Type
REMARK                         _______ _______ _______ _____ _____    ______ ____
ROOT
ATOM      1  O   LIG A   1     -10.252   1.961 123.503  0.00  0.00    -0.284 OA
ATOM      2  C   LIG A   1      -9.069   2.006 123.831  0.00  0.00    +0.221 C 
ATOM      3  C   LIG A   1      -8.132   2.915 123.107  0.00  0.00    +0.167 C 
ATOM      4  C   LIG A   1      -6.858   3.059 123.520  0.00  0.00    +0.002 C 
ATOM      5  C   LIG A   1      -5.883   3.943 122.790  0.00  0.00    +0.048 C 
ATOM      6  C   LIG A   1      -6.435   2.363 124.746  0.00  0.00    -0.014 C 
ATOM      7  C   LIG A   1      -5.313   2.702 125.416  0.00  0.00    +0.009 C 
ATOM      8  C   LIG A   1      -5.019   2.201 126.746  0.00  0.00    +0.005 C 
ATOM      9  C   LIG A   1      -5.710   1.192 127.324  0.00  0.00    -0.034 C 
ATOM     10  C   LIG A   1      -5.595   0.829 128.774  0.00  0.00    -0.038 C 
ATOM     11  C   LIG A   1      -4.937   1.549 129.735  0.00  0.00    -0.068 C 
ATOM     12  C   LIG A   1      -4.466   2.985 129.626  0.00  0.00    +0.039 C 
ATOM     13  C   LIG A   1      -4.574   1.004 131.129  0.00  0.00    +0.045 C 
ATOM     14  C   LIG A   1      -5.008  -0.434 131.509  0.00  0.00    +0.036 C 
ATOM     15  C   LIG A   1      -3.876  -1.207 132.208  0.00  0.00    +0.169 C 
ATOM     16  C   LIG A   1      -4.131  -2.698 132.501  0.00  0.00    +0.197 C 
ATOM     17  C   LIG A   1      -4.576  -3.456 131.242  0.00  0.00    +0.098 C 
ATOM     18  C   LIG A   1      -3.379  -3.717 130.303  0.00  0.00    +0.026 C 
ATOM     19  C   LIG A   1      -5.694  -2.678 130.491  0.00  0.00    +0.026 C 
ATOM     20  O   LIG A   1      -2.860  -0.664 132.650  0.00  0.00    -0.294 OA
ATOM     21  C   LIG A   1      -6.103  -0.361 132.605  0.00  0.00    +0.019 C 
ATOM     22  C   LIG A   1      -5.336  -1.211 130.206  0.00  0.00    +0.014 C 
ATOM     23  C   LIG A   1      -6.337  -0.443 129.265  0.00  0.00    -0.003 C 
ATOM     24  C   LIG A   1      -7.630   0.015 130.001  0.00  0.00    +0.016 C 
ATOM     25  C   LIG A   1      -6.809  -1.382 128.132  0.00  0.00    +0.013 C 
ATOM     26  C   LIG A   1      -7.498  -0.635 127.005  0.00  0.00    +0.017 C 
ATOM     27  C   LIG A   1      -6.530   0.337 126.313  0.00  0.00    +0.019 C 
ATOM     28  C   LIG A   1      -5.536  -0.551 125.486  0.00  0.00    +0.021 C 
ATOM     29  C   LIG A   1      -7.249   1.259 125.298  0.00  0.00    -0.026 C 
ATOM     30  C   LIG A   1      -8.520   1.121 124.878  0.00  0.00    +0.059 C 
ENDROOT
BRANCH   3  31
ATOM     31  O   LIG A   1      -8.644   3.596 122.016  0.00  0.00    -0.503 OA
ATOM     32  H   LIG A   1      -9.353   4.163 122.387  0.00  0.00    +0.292 HD
ENDBRANCH   3  31
BRANCH  16  33
ATOM     33  O   LIG A   1      -2.948  -3.270 133.063  0.00  0.00    -0.383 OA
ATOM     34  H   LIG A   1      -2.945  -3.031 134.014  0.00  0.00    +0.210 HD
ENDBRANCH  16  33
BRANCH  17  35
ATOM     35  C   LIG A   1      -5.142  -4.814 131.696  0.00  0.00    +0.316 C 
ATOM     36  O   LIG A   1      -5.581  -5.679 130.965  0.00  0.00    -0.250 OA
BRANCH  35  37
ATOM     37  O   LIG A   1      -5.029  -4.927 133.054  0.00  0.00    -0.468 OA
ATOM     38  C   LIG A   1      -6.214  -5.221 133.792  0.00  0.00    +0.280 C 
ENDBRANCH  35  37
ENDBRANCH  17  35
TORSDOF 4
ENDMDL
MODEL 7
REMARK VINA RESULT:      -8.5      1.935      2.114
REMARK  Name = NuBBE_384
REMARK  11 active torsions:
REMARK  status: ('A' for Active; 'I' for Inactive)
REMARK    1  A    between atoms: C_3  and  O_4
REMARK    2  A    between atoms: C_5  and  C_6
REMARK    3  A    between atoms: C_12  and  C_13
REMARK    4  A    between atoms: C_15  and  C_28
REMARK    5  A    between atoms: C_17  and  O_19
REMARK    6  A    between atoms: C_20  and  C_21
REMARK    7  A    between atoms: C_20  and  C_22
REMARK    8  A    between atoms: C_22  and  O_23
REMARK    9  A    between atoms: O_23  and  C_24
REMARK   10  A    between atoms: C_31  and  C_32
REMARK   11  A    between atoms: C_35  and  C_36
REMARK                            x       y       z     vdW  Elec       q    Type
REMARK                         _______ _______ _______ _____ _____    ______ ____
ROOT
ATOM      1  O   LIG A   1      -1.493  -1.084 134.010  0.00  0.00    -0.284 OA
ATOM      2  C   LIG A   1      -2.701  -1.229 133.838  0.00  0.00    +0.221 C 
ATOM      3  C   LIG A   1      -3.613  -1.326 135.017  0.00  0.00    +0.167 C 
ATOM      4  C   LIG A   1      -4.948  -1.376 134.850  0.00  0.00    +0.002 C 
ATOM      5  C   LIG A   1      -5.888  -1.507 136.017  0.00  0.00    +0.048 C 
ATOM      6  C   LIG A   1      -5.490  -1.251 133.487  0.00  0.00    -0.014 C 
ATOM      7  C   LIG A   1      -6.786  -0.953 133.252  0.00  0.00    +0.009 C 
ATOM      8  C   LIG A   1      -7.273  -0.584 131.936  0.00  0.00    +0.005 C 
ATOM      9  C   LIG A   1      -6.538  -0.727 130.809  0.00  0.00    -0.034 C 
ATOM     10  C   LIG A   1      -6.915  -0.126 129.489  0.00  0.00    -0.038 C 
ATOM     11  C   LIG A   1      -7.924   0.773 129.271  0.00  0.00    -0.068 C 
ATOM     12  C   LIG A   1      -8.656   1.584 130.321  0.00  0.00    +0.039 C 
ATOM     13  C   LIG A   1      -8.483   1.129 127.881  0.00  0.00    +0.045 C 
ATOM     14  C   LIG A   1      -7.850   0.474 126.628  0.00  0.00    +0.036 C 
ATOM     15  C   LIG A   1      -8.921  -0.011 125.634  0.00  0.00    +0.169 C 
ATOM     16  C   LIG A   1      -8.426  -0.816 124.417  0.00  0.00    +0.197 C 
ATOM     17  C   LIG A   1      -7.538  -1.996 124.841  0.00  0.00    +0.098 C 
ATOM     18  C   LIG A   1      -8.390  -3.149 125.414  0.00  0.00    +0.026 C 
ATOM     19  C   LIG A   1      -6.470  -1.544 125.877  0.00  0.00    +0.026 C 
ATOM     20  O   LIG A   1     -10.106   0.326 125.701  0.00  0.00    -0.294 OA
ATOM     21  C   LIG A   1      -7.091   1.556 125.816  0.00  0.00    +0.019 C 
ATOM     22  C   LIG A   1      -7.059  -0.785 127.076  0.00  0.00    +0.014 C 
ATOM     23  C   LIG A   1      -6.054  -0.496 128.251  0.00  0.00    -0.003 C 
ATOM     24  C   LIG A   1      -5.106   0.703 127.957  0.00  0.00    +0.016 C 
ATOM     25  C   LIG A   1      -5.132  -1.719 128.459  0.00  0.00    +0.013 C 
ATOM     26  C   LIG A   1      -4.373  -1.660 129.772  0.00  0.00    +0.017 C 
ATOM     27  C   LIG A   1      -5.334  -1.703 130.969  0.00  0.00    +0.019 C 
ATOM     28  C   LIG A   1      -5.885  -3.170 131.035  0.00  0.00    +0.021 C 
ATOM     29  C   LIG A   1      -4.612  -1.440 132.313  0.00  0.00    -0.026 C 
ATOM     30  C   LIG A   1      -3.279  -1.390 132.489  0.00  0.00    +0.059 C 
ENDROOT
BRANCH   3  31
ATOM     31  O   LIG A   1      -3.015  -1.349 136.264  0.00  0.00    -0.503 OA
ATOM     32  H   LIG A   1      -2.065  -1.512 136.082  0.00  0.00    +0.292 HD
ENDBRANCH   3  31
BRANCH  16  33
ATOM     33  O   LIG A   1      -9.555  -1.257 123.662  0.00  0.00    -0.383 OA
ATOM     34  H   LIG A   1      -9.907  -2.049 124.119  0.00  0.00    +0.210 HD
ENDBRANCH  16  33
BRANCH  17  35
ATOM     35  C   LIG A   1      -6.817  -2.507 123.580  0.00  0.00    +0.316 C 
ATOM     36  O   LIG A   1      -6.868  -1.998 122.479  0.00  0.00    -0.250 OA
BRANCH  35  37
ATOM     37  O   LIG A   1      -6.060  -3.600 123.897  0.00  0.00    -0.468 OA
ATOM     38  C   LIG A   1      -4.684  -3.582 123.518  0.00  0.00    +0.280 C 
ENDBRANCH  35  37
ENDBRANCH  17  35
TORSDOF 4
ENDMDL
MODEL 8
REMARK VINA RESULT:      -8.4      4.675      9.593
REMARK  Name = NuBBE_384
REMARK  11 active torsions:
REMARK  status: ('A' for Active; 'I' for Inactive)
REMARK    1  A    between atoms: C_3  and  O_4
REMARK    2  A    between atoms: C_5  and  C_6
REMARK    3  A    between atoms: C_12  and  C_13
REMARK    4  A    between atoms: C_15  and  C_28
REMARK    5  A    between atoms: C_17  and  O_19
REMARK    6  A    between atoms: C_20  and  C_21
REMARK    7  A    between atoms: C_20  and  C_22
REMARK    8  A    between atoms: C_22  and  O_23
REMARK    9  A    between atoms: O_23  and  C_24
REMARK   10  A    between atoms: C_31  and  C_32
REMARK   11  A    between atoms: C_35  and  C_36
REMARK                            x       y       z     vdW  Elec       q    Type
REMARK                         _______ _______ _______ _____ _____    ______ ____
ROOT
ATOM      1  O   LIG A   1      -9.873  -0.301 122.858  0.00  0.00    -0.284 OA
ATOM      2  C   LIG A   1      -8.924  -0.529 123.603  0.00  0.00    +0.221 C 
ATOM      3  C   LIG A   1      -7.875  -1.509 123.192  0.00  0.00    +0.167 C 
ATOM      4  C   LIG A   1      -6.773  -1.693 123.945  0.00  0.00    +0.002 C 
ATOM      5  C   LIG A   1      -5.717  -2.696 123.572  0.00  0.00    +0.048 C 
ATOM      6  C   LIG A   1      -6.589  -0.848 125.137  0.00  0.00    -0.014 C 
ATOM      7  C   LIG A   1      -5.393  -0.718 125.749  0.00  0.00    +0.009 C 
ATOM      8  C   LIG A   1      -5.142   0.293 126.759  0.00  0.00    +0.005 C 
ATOM      9  C   LIG A   1      -6.125   1.025 127.331  0.00  0.00    -0.034 C 
ATOM     10  C   LIG A   1      -5.874   2.235 128.181  0.00  0.00    -0.038 C 
ATOM     11  C   LIG A   1      -4.670   2.865 128.351  0.00  0.00    -0.068 C 
ATOM     12  C   LIG A   1      -3.428   2.687 127.501  0.00  0.00    +0.039 C 
ATOM     13  C   LIG A   1      -4.382   3.898 129.455  0.00  0.00    +0.045 C 
ATOM     14  C   LIG A   1      -5.523   4.302 130.422  0.00  0.00    +0.036 C 
ATOM     15  C   LIG A   1      -5.042   4.355 131.883  0.00  0.00    +0.169 C 
ATOM     16  C   LIG A   1      -6.117   4.596 132.960  0.00  0.00    +0.197 C 
ATOM     17  C   LIG A   1      -7.281   3.602 132.833  0.00  0.00    +0.098 C 
ATOM     18  C   LIG A   1      -6.880   2.211 133.368  0.00  0.00    +0.026 C 
ATOM     19  C   LIG A   1      -7.763   3.498 131.357  0.00  0.00    +0.026 C 
ATOM     20  O   LIG A   1      -3.850   4.347 132.203  0.00  0.00    -0.294 OA
ATOM     21  C   LIG A   1      -5.932   5.771 130.141  0.00  0.00    +0.019 C 
ATOM     22  C   LIG A   1      -6.630   3.215 130.359  0.00  0.00    +0.014 C 
ATOM     23  C   LIG A   1      -7.090   2.888 128.890  0.00  0.00    -0.003 C 
ATOM     24  C   LIG A   1      -7.486   4.159 128.082  0.00  0.00    +0.016 C 
ATOM     25  C   LIG A   1      -8.356   2.003 128.928  0.00  0.00    +0.013 C 
ATOM     26  C   LIG A   1      -8.665   1.370 127.584  0.00  0.00    +0.017 C 
ATOM     27  C   LIG A   1      -7.545   0.411 127.155  0.00  0.00    +0.019 C 
ATOM     28  C   LIG A   1      -7.666  -0.847 128.084  0.00  0.00    +0.021 C 
ATOM     29  C   LIG A   1      -7.728  -0.094 125.702  0.00  0.00    -0.026 C 
ATOM     30  C   LIG A   1      -8.825   0.082 124.944  0.00  0.00    +0.059 C 
ENDROOT
BRANCH   3  31
ATOM     31  O   LIG A   1      -8.094  -2.194 122.010  0.00  0.00    -0.503 OA
ATOM     32  H   LIG A   1      -8.189  -3.132 122.280  0.00  0.00    +0.292 HD
ENDBRANCH   3  31
BRANCH  16  33
ATOM     33  O   LIG A   1      -5.507   4.522 134.250  0.00  0.00    -0.383 OA
ATOM     34  H   LIG A   1      -5.138   5.410 134.438  0.00  0.00    +0.210 HD
ENDBRANCH  16  33
BRANCH  17  35
ATOM     35  C   LIG A   1      -8.441   4.137 133.693  0.00  0.00    +0.316 C 
ATOM     36  O   LIG A   1      -8.424   4.274 134.899  0.00  0.00    -0.250 OA
BRANCH  35  37
ATOM     37  O   LIG A   1      -9.487   4.486 132.885  0.00  0.00    -0.468 OA
ATOM     38  C   LIG A   1      -9.826   5.870 132.807  0.00  0.00    +0.280 C 
ENDBRANCH  35  37
ENDBRANCH  17  35
TORSDOF 4
ENDMDL
MODEL 9
REMARK VINA RESULT:      -8.0      9.678     12.743
REMARK  Name = NuBBE_384
REMARK  11 active torsions:
REMARK  status: ('A' for Active; 'I' for Inactive)
REMARK    1  A    between atoms: C_3  and  O_4
REMARK    2  A    between atoms: C_5  and  C_6
REMARK    3  A    between atoms: C_12  and  C_13
REMARK    4  A    between atoms: C_15  and  C_28
REMARK    5  A    between atoms: C_17  and  O_19
REMARK    6  A    between atoms: C_20  and  C_21
REMARK    7  A    between atoms: C_20  and  C_22
REMARK    8  A    between atoms: C_22  and  O_23
REMARK    9  A    between atoms: O_23  and  C_24
REMARK   10  A    between atoms: C_31  and  C_32
REMARK   11  A    between atoms: C_35  and  C_36
REMARK                            x       y       z     vdW  Elec       q    Type
REMARK                         _______ _______ _______ _____ _____    ______ ____
ROOT
ATOM      1  O   LIG A   1      -6.389   2.718 127.588  0.00  0.00    -0.284 OA
ATOM      2  C   LIG A   1      -6.768   3.356 128.566  0.00  0.00    +0.221 C 
ATOM      3  C   LIG A   1      -8.136   3.125 129.119  0.00  0.00    +0.167 C 
ATOM      4  C   LIG A   1      -8.530   3.735 130.253  0.00  0.00    +0.002 C 
ATOM      5  C   LIG A   1      -9.913   3.547 130.815  0.00  0.00    +0.048 C 
ATOM      6  C   LIG A   1      -7.555   4.567 130.978  0.00  0.00    -0.014 C 
ATOM      7  C   LIG A   1      -7.738   4.933 132.265  0.00  0.00    +0.009 C 
ATOM      8  C   LIG A   1      -6.682   5.534 133.059  0.00  0.00    +0.005 C 
ATOM      9  C   LIG A   1      -5.522   5.983 132.528  0.00  0.00    -0.034 C 
ATOM     10  C   LIG A   1      -4.327   6.371 133.346  0.00  0.00    -0.038 C 
ATOM     11  C   LIG A   1      -4.171   6.166 134.691  0.00  0.00    -0.068 C 
ATOM     12  C   LIG A   1      -4.996   5.247 135.568  0.00  0.00    +0.039 C 
ATOM     13  C   LIG A   1      -3.087   6.842 135.550  0.00  0.00    +0.045 C 
ATOM     14  C   LIG A   1      -2.068   7.787 134.865  0.00  0.00    +0.036 C 
ATOM     15  C   LIG A   1      -1.849   9.076 135.676  0.00  0.00    +0.169 C 
ATOM     16  C   LIG A   1      -0.974  10.166 135.027  0.00  0.00    +0.197 C 
ATOM     17  C   LIG A   1      -1.461  10.519 133.614  0.00  0.00    +0.098 C 
ATOM     18  C   LIG A   1      -2.729  11.396 133.671  0.00  0.00    +0.026 C 
ATOM     19  C   LIG A   1      -1.729   9.232 132.782  0.00  0.00    +0.026 C 
ATOM     20  O   LIG A   1      -2.223   9.211 136.844  0.00  0.00    -0.294 OA
ATOM     21  C   LIG A   1      -0.665   7.125 134.886  0.00  0.00    +0.019 C 
ATOM     22  C   LIG A   1      -2.645   8.221 133.491  0.00  0.00    +0.014 C 
ATOM     23  C   LIG A   1      -3.119   7.007 132.609  0.00  0.00    -0.003 C 
ATOM     24  C   LIG A   1      -2.026   5.909 132.453  0.00  0.00    +0.016 C 
ATOM     25  C   LIG A   1      -3.431   7.496 131.177  0.00  0.00    +0.013 C 
ATOM     26  C   LIG A   1      -4.207   6.472 130.368  0.00  0.00    +0.017 C 
ATOM     27  C   LIG A   1      -5.587   6.208 130.988  0.00  0.00    +0.019 C 
ATOM     28  C   LIG A   1      -6.446   7.490 130.704  0.00  0.00    +0.021 C 
ATOM     29  C   LIG A   1      -6.320   5.025 130.309  0.00  0.00    -0.026 C 
ATOM     30  C   LIG A   1      -5.935   4.412 129.175  0.00  0.00    +0.059 C 
ENDROOT
BRANCH   3  31
ATOM     31  O   LIG A   1      -8.952   2.257 128.415  0.00  0.00    -0.503 OA
ATOM     32  H   LIG A   1      -8.445   1.419 128.372  0.00  0.00    +0.292 HD
ENDBRANCH   3  31
BRANCH  16  33
ATOM     33  O   LIG A   1      -0.957  11.315 135.875  0.00  0.00    -0.383 OA
ATOM     34  H   LIG A   1      -0.017  11.567 135.989  0.00  0.00    +0.210 HD
ENDBRANCH  16  33
BRANCH  17  35
ATOM     35  C   LIG A   1      -0.343  11.325 132.928  0.00  0.00    +0.316 C 
ATOM     36  O   LIG A   1       0.849  11.164 133.091  0.00  0.00    -0.250 OA
BRANCH  35  37
ATOM     37  O   LIG A   1      -0.895  12.225 132.059  0.00  0.00    -0.468 OA
ATOM     38  C   LIG A   1      -0.018  12.879 131.142  0.00  0.00    +0.280 C 
ENDBRANCH  35  37
ENDBRANCH  17  35
TORSDOF 4
ENDMDL
