MODEL 1
REMARK VINA RESULT:      -8.2      0.000      0.000
REMARK  Name = NuBBE_2233
REMARK  6 active torsions:
REMARK  status: ('A' for Active; 'I' for Inactive)
REMARK    1  A    between atoms: C_1  and  C_2
REMARK    2  A    between atoms: C_10  and  O_12
REMARK    3  A    between atoms: O_12  and  C_13
REMARK    4  A    between atoms: C_13  and  C_14
REMARK    5  A    between atoms: C_23  and  C_24
REMARK    6  A    between atoms: C_23  and  C_25
REMARK                            x       y       z     vdW  Elec       q    Type
REMARK                         _______ _______ _______ _____ _____    ______ ____
ROOT
ATOM      1  C   LIG A   1      -6.276  -2.518 125.373  0.00  0.00    +0.012 C 
ATOM      2  C   LIG A   1      -7.255  -2.303 126.562  0.00  0.00    -0.022 C 
ATOM      3  C   LIG A   1      -6.410  -2.501 127.886  0.00  0.00    +0.001 C 
ATOM      4  C   LIG A   1      -5.423  -1.328 128.085  0.00  0.00    +0.005 C 
ATOM      5  C   LIG A   1      -6.038   0.062 128.005  0.00  0.00    +0.008 C 
ATOM      6  C   LIG A   1      -6.971   0.323 126.811  0.00  0.00    -0.018 C 
ATOM      7  C   LIG A   1      -6.230   0.848 125.552  0.00  0.00    +0.037 C 
ATOM      8  C   LIG A   1      -7.942  -0.879 126.535  0.00  0.00    +0.043 C 
ATOM      9  C   LIG A   1      -8.969  -0.587 125.382  0.00  0.00    +0.181 C 
ATOM     10  C   LIG A   1      -9.488   0.871 125.406  0.00  0.00    +0.053 C 
ATOM     11  C   LIG A   1      -8.435   1.917 125.800  0.00  0.00    +0.018 C 
ATOM     12  C   LIG A   1      -7.844   1.558 127.154  0.00  0.00    +0.015 C 
ATOM     13  C   LIG A   1      -7.195   1.845 124.951  0.00  0.00    -0.073 C 
ATOM     14  C   LIG A   1      -6.929   2.634 123.903  0.00  0.00    +0.008 C 
ATOM     15  C   LIG A   1      -7.182  -2.952 129.195  0.00  0.00    -0.032 C 
ATOM     16  C   LIG A   1      -6.178  -3.624 130.174  0.00  0.00    +0.011 C 
ATOM     17  C   LIG A   1      -7.858  -1.820 129.992  0.00  0.00    +0.011 C 
ATOM     18  C   LIG A   1      -8.242  -4.028 128.862  0.00  0.00    +0.007 C 
ATOM     19  C   LIG A   1      -9.146  -3.635 127.707  0.00  0.00    +0.001 C 
ATOM     20  C   LIG A   1      -8.312  -3.437 126.452  0.00  0.00    +0.007 C 
ENDROOT
BRANCH   9  21
ATOM     21  O   LIG A   1      -8.450  -0.844 124.060  0.00  0.00    -0.461 OA
BRANCH  21  22
ATOM     22  C   LIG A   1      -9.325  -1.360 123.144  0.00  0.00    +0.304 C 
ATOM     23  C   LIG A   1      -9.284  -2.860 123.129  0.00  0.00    +0.136 C 
ATOM     24  O   LIG A   1     -10.043  -0.715 122.399  0.00  0.00    -0.251 OA
ENDBRANCH  21  22
ENDBRANCH   9  21
TORSDOF 2
ENDMDL
MODEL 2
REMARK VINA RESULT:      -7.6      2.086      4.860
REMARK  Name = NuBBE_2233
REMARK  6 active torsions:
REMARK  status: ('A' for Active; 'I' for Inactive)
REMARK    1  A    between atoms: C_1  and  C_2
REMARK    2  A    between atoms: C_10  and  O_12
REMARK    3  A    between atoms: O_12  and  C_13
REMARK    4  A    between atoms: C_13  and  C_14
REMARK    5  A    between atoms: C_23  and  C_24
REMARK    6  A    between atoms: C_23  and  C_25
REMARK                            x       y       z     vdW  Elec       q    Type
REMARK                         _______ _______ _______ _____ _____    ______ ____
ROOT
ATOM      1  C   LIG A   1      -8.781   1.200 126.690  0.00  0.00    +0.012 C 
ATOM      2  C   LIG A   1      -7.399   1.608 126.106  0.00  0.00    -0.022 C 
ATOM      3  C   LIG A   1      -6.441   1.856 127.342  0.00  0.00    +0.001 C 
ATOM      4  C   LIG A   1      -6.096   0.522 128.042  0.00  0.00    +0.005 C 
ATOM      5  C   LIG A   1      -5.573  -0.577 127.129  0.00  0.00    +0.008 C 
ATOM      6  C   LIG A   1      -6.371  -0.823 125.838  0.00  0.00    -0.018 C 
ATOM      7  C   LIG A   1      -7.522  -1.852 126.010  0.00  0.00    +0.037 C 
ATOM      8  C   LIG A   1      -6.800   0.514 125.135  0.00  0.00    +0.043 C 
ATOM      9  C   LIG A   1      -7.529   0.279 123.763  0.00  0.00    +0.181 C 
ATOM     10  C   LIG A   1      -6.911  -0.887 122.954  0.00  0.00    +0.053 C 
ATOM     11  C   LIG A   1      -6.444  -2.076 123.806  0.00  0.00    +0.018 C 
ATOM     12  C   LIG A   1      -5.453  -1.593 124.854  0.00  0.00    +0.015 C 
ATOM     13  C   LIG A   1      -7.526  -2.613 124.703  0.00  0.00    -0.073 C 
ATOM     14  C   LIG A   1      -8.288  -3.681 124.441  0.00  0.00    +0.008 C 
ATOM     15  C   LIG A   1      -5.213   2.840 127.140  0.00  0.00    -0.032 C 
ATOM     16  C   LIG A   1      -4.764   3.386 128.525  0.00  0.00    +0.011 C 
ATOM     17  C   LIG A   1      -3.958   2.215 126.503  0.00  0.00    +0.011 C 
ATOM     18  C   LIG A   1      -5.633   4.075 126.308  0.00  0.00    +0.007 C 
ATOM     19  C   LIG A   1      -6.359   3.709 125.025  0.00  0.00    +0.001 C 
ATOM     20  C   LIG A   1      -7.633   2.951 125.359  0.00  0.00    +0.007 C 
ENDROOT
BRANCH   9  21
ATOM     21  O   LIG A   1      -8.943   0.020 123.890  0.00  0.00    -0.461 OA
BRANCH  21  22
ATOM     22  C   LIG A   1      -9.766   0.627 122.983  0.00  0.00    +0.304 C 
ATOM     23  C   LIG A   1      -9.274   1.999 122.626  0.00  0.00    +0.136 C 
ATOM     24  O   LIG A   1     -10.790   0.156 122.518  0.00  0.00    -0.251 OA
ENDBRANCH  21  22
ENDBRANCH   9  21
TORSDOF 2
ENDMDL
MODEL 3
REMARK VINA RESULT:      -7.2      7.251      9.773
REMARK  Name = NuBBE_2233
REMARK  6 active torsions:
REMARK  status: ('A' for Active; 'I' for Inactive)
REMARK    1  A    between atoms: C_1  and  C_2
REMARK    2  A    between atoms: C_10  and  O_12
REMARK    3  A    between atoms: O_12  and  C_13
REMARK    4  A    between atoms: C_13  and  C_14
REMARK    5  A    between atoms: C_23  and  C_24
REMARK    6  A    between atoms: C_23  and  C_25
REMARK                            x       y       z     vdW  Elec       q    Type
REMARK                         _______ _______ _______ _____ _____    ______ ____
ROOT
ATOM      1  C   LIG A   1      -5.631   5.503 130.233  0.00  0.00    +0.012 C 
ATOM      2  C   LIG A   1      -4.464   4.592 129.758  0.00  0.00    -0.022 C 
ATOM      3  C   LIG A   1      -4.303   4.835 128.202  0.00  0.00    +0.001 C 
ATOM      4  C   LIG A   1      -3.725   6.242 127.926  0.00  0.00    +0.005 C 
ATOM      5  C   LIG A   1      -2.455   6.587 128.689  0.00  0.00    +0.008 C 
ATOM      6  C   LIG A   1      -2.465   6.281 130.197  0.00  0.00    -0.018 C 
ATOM      7  C   LIG A   1      -3.008   7.453 131.059  0.00  0.00    +0.037 C 
ATOM      8  C   LIG A   1      -3.111   4.887 130.521  0.00  0.00    +0.043 C 
ATOM      9  C   LIG A   1      -3.038   4.517 132.047  0.00  0.00    +0.181 C 
ATOM     10  C   LIG A   1      -1.704   4.953 132.700  0.00  0.00    +0.053 C 
ATOM     11  C   LIG A   1      -1.153   6.293 132.192  0.00  0.00    +0.018 C 
ATOM     12  C   LIG A   1      -0.993   6.237 130.681  0.00  0.00    +0.015 C 
ATOM     13  C   LIG A   1      -2.150   7.415 132.304  0.00  0.00    -0.073 C 
ATOM     14  C   LIG A   1      -2.188   8.320 133.289  0.00  0.00    +0.008 C 
ATOM     15  C   LIG A   1      -3.667   3.671 127.333  0.00  0.00    -0.032 C 
ATOM     16  C   LIG A   1      -4.105   3.843 125.851  0.00  0.00    +0.011 C 
ATOM     17  C   LIG A   1      -2.127   3.618 127.317  0.00  0.00    +0.011 C 
ATOM     18  C   LIG A   1      -4.207   2.294 127.784  0.00  0.00    +0.007 C 
ATOM     19  C   LIG A   1      -4.111   2.079 129.284  0.00  0.00    +0.001 C 
ATOM     20  C   LIG A   1      -4.938   3.132 130.004  0.00  0.00    +0.007 C 
ENDROOT
BRANCH   9  21
ATOM     21  O   LIG A   1      -4.112   5.076 132.834  0.00  0.00    -0.461 OA
BRANCH  21  22
ATOM     22  C   LIG A   1      -4.816   4.206 133.620  0.00  0.00    +0.304 C 
ATOM     23  C   LIG A   1      -5.816   4.926 134.477  0.00  0.00    +0.136 C 
ATOM     24  O   LIG A   1      -4.663   2.998 133.665  0.00  0.00    -0.251 OA
ENDBRANCH  21  22
ENDBRANCH   9  21
TORSDOF 2
ENDMDL
MODEL 4
REMARK VINA RESULT:      -7.1      1.629      4.174
REMARK  Name = NuBBE_2233
REMARK  6 active torsions:
REMARK  status: ('A' for Active; 'I' for Inactive)
REMARK    1  A    between atoms: C_1  and  C_2
REMARK    2  A    between atoms: C_10  and  O_12
REMARK    3  A    between atoms: O_12  and  C_13
REMARK    4  A    between atoms: C_13  and  C_14
REMARK    5  A    between atoms: C_23  and  C_24
REMARK    6  A    between atoms: C_23  and  C_25
REMARK                            x       y       z     vdW  Elec       q    Type
REMARK                         _______ _______ _______ _____ _____    ______ ____
ROOT
ATOM      1  C   LIG A   1      -8.844   0.743 126.741  0.00  0.00    +0.012 C 
ATOM      2  C   LIG A   1      -7.368   0.279 126.903  0.00  0.00    -0.022 C 
ATOM      3  C   LIG A   1      -7.211  -0.219 128.398  0.00  0.00    +0.001 C 
ATOM      4  C   LIG A   1      -7.975  -1.544 128.615  0.00  0.00    +0.005 C 
ATOM      5  C   LIG A   1      -7.666  -2.647 127.614  0.00  0.00    +0.008 C 
ATOM      6  C   LIG A   1      -7.680  -2.240 126.131  0.00  0.00    -0.018 C 
ATOM      7  C   LIG A   1      -9.078  -2.370 125.469  0.00  0.00    +0.037 C 
ATOM      8  C   LIG A   1      -6.973  -0.861 125.882  0.00  0.00    +0.043 C 
ATOM      9  C   LIG A   1      -6.890  -0.479 124.359  0.00  0.00    +0.181 C 
ATOM     10  C   LIG A   1      -6.600  -1.702 123.456  0.00  0.00    +0.053 C 
ATOM     11  C   LIG A   1      -7.286  -3.002 123.902  0.00  0.00    +0.018 C 
ATOM     12  C   LIG A   1      -6.895  -3.316 125.337  0.00  0.00    +0.015 C 
ATOM     13  C   LIG A   1      -8.774  -2.850 124.068  0.00  0.00    -0.073 C 
ATOM     14  C   LIG A   1      -9.693  -3.207 123.163  0.00  0.00    +0.008 C 
ATOM     15  C   LIG A   1      -5.765  -0.169 129.046  0.00  0.00    -0.032 C 
ATOM     16  C   LIG A   1      -5.900  -0.136 130.595  0.00  0.00    +0.011 C 
ATOM     17  C   LIG A   1      -4.851  -1.366 128.725  0.00  0.00    +0.011 C 
ATOM     18  C   LIG A   1      -5.033   1.136 128.651  0.00  0.00    +0.007 C 
ATOM     19  C   LIG A   1      -5.059   1.404 127.157  0.00  0.00    +0.001 C 
ATOM     20  C   LIG A   1      -6.498   1.549 126.690  0.00  0.00    +0.007 C 
ENDROOT
BRANCH   9  21
ATOM     21  O   LIG A   1      -8.080   0.163 123.854  0.00  0.00    -0.461 OA
BRANCH  21  22
ATOM     22  C   LIG A   1      -7.920   1.392 123.277  0.00  0.00    +0.304 C 
ATOM     23  C   LIG A   1      -9.241   2.058 123.024  0.00  0.00    +0.136 C 
ATOM     24  O   LIG A   1      -6.857   1.904 122.970  0.00  0.00    -0.251 OA
ENDBRANCH  21  22
ENDBRANCH   9  21
TORSDOF 2
ENDMDL
MODEL 5
REMARK VINA RESULT:      -7.0      2.186      5.547
REMARK  Name = NuBBE_2233
REMARK  6 active torsions:
REMARK  status: ('A' for Active; 'I' for Inactive)
REMARK    1  A    between atoms: C_1  and  C_2
REMARK    2  A    between atoms: C_10  and  O_12
REMARK    3  A    between atoms: O_12  and  C_13
REMARK    4  A    between atoms: C_13  and  C_14
REMARK    5  A    between atoms: C_23  and  C_24
REMARK    6  A    between atoms: C_23  and  C_25
REMARK                            x       y       z     vdW  Elec       q    Type
REMARK                         _______ _______ _______ _____ _____    ______ ____
ROOT
ATOM      1  C   LIG A   1      -5.053   0.321 126.275  0.00  0.00    +0.012 C 
ATOM      2  C   LIG A   1      -6.603   0.388 126.166  0.00  0.00    -0.022 C 
ATOM      3  C   LIG A   1      -6.936   1.590 125.190  0.00  0.00    +0.001 C 
ATOM      4  C   LIG A   1      -6.541   1.240 123.738  0.00  0.00    +0.005 C 
ATOM      5  C   LIG A   1      -7.082  -0.083 123.216  0.00  0.00    +0.008 C 
ATOM      6  C   LIG A   1      -6.910  -1.298 124.141  0.00  0.00    -0.018 C 
ATOM      7  C   LIG A   1      -5.565  -2.047 123.933  0.00  0.00    +0.037 C 
ATOM      8  C   LIG A   1      -7.235  -0.962 125.640  0.00  0.00    +0.043 C 
ATOM      9  C   LIG A   1      -7.161  -2.218 126.581  0.00  0.00    +0.181 C 
ATOM     10  C   LIG A   1      -7.717  -3.496 125.910  0.00  0.00    +0.053 C 
ATOM     11  C   LIG A   1      -7.399  -3.620 124.413  0.00  0.00    +0.018 C 
ATOM     12  C   LIG A   1      -7.910  -2.389 123.681  0.00  0.00    +0.015 C 
ATOM     13  C   LIG A   1      -5.929  -3.504 124.116  0.00  0.00    -0.073 C 
ATOM     14  C   LIG A   1      -5.096  -4.532 123.916  0.00  0.00    +0.008 C 
ATOM     15  C   LIG A   1      -8.347   2.299 125.346  0.00  0.00    -0.032 C 
ATOM     16  C   LIG A   1      -8.265   3.732 124.749  0.00  0.00    +0.011 C 
ATOM     17  C   LIG A   1      -9.521   1.607 124.628  0.00  0.00    +0.011 C 
ATOM     18  C   LIG A   1      -8.709   2.475 126.839  0.00  0.00    +0.007 C 
ATOM     19  C   LIG A   1      -8.561   1.195 127.642  0.00  0.00    +0.001 C 
ATOM     20  C   LIG A   1      -7.115   0.727 127.594  0.00  0.00    +0.007 C 
ENDROOT
BRANCH   9  21
ATOM     21  O   LIG A   1      -5.829  -2.516 127.052  0.00  0.00    -0.461 OA
BRANCH  21  22
ATOM     22  C   LIG A   1      -5.655  -2.588 128.406  0.00  0.00    +0.304 C 
ATOM     23  C   LIG A   1      -4.239  -2.935 128.761  0.00  0.00    +0.136 C 
ATOM     24  O   LIG A   1      -6.521  -2.423 129.248  0.00  0.00    -0.251 OA
ENDBRANCH  21  22
ENDBRANCH   9  21
TORSDOF 2
ENDMDL
MODEL 6
REMARK VINA RESULT:      -6.9      1.974      4.210
REMARK  Name = NuBBE_2233
REMARK  6 active torsions:
REMARK  status: ('A' for Active; 'I' for Inactive)
REMARK    1  A    between atoms: C_1  and  C_2
REMARK    2  A    between atoms: C_10  and  O_12
REMARK    3  A    between atoms: O_12  and  C_13
REMARK    4  A    between atoms: C_13  and  C_14
REMARK    5  A    between atoms: C_23  and  C_24
REMARK    6  A    between atoms: C_23  and  C_25
REMARK                            x       y       z     vdW  Elec       q    Type
REMARK                         _______ _______ _______ _____ _____    ______ ____
ROOT
ATOM      1  C   LIG A   1      -7.838   0.297 128.923  0.00  0.00    +0.012 C 
ATOM      2  C   LIG A   1      -6.717  -0.780 128.968  0.00  0.00    -0.022 C 
ATOM      3  C   LIG A   1      -7.203  -1.897 129.980  0.00  0.00    +0.001 C 
ATOM      4  C   LIG A   1      -8.377  -2.703 129.381  0.00  0.00    +0.005 C 
ATOM      5  C   LIG A   1      -8.140  -3.264 127.987  0.00  0.00    +0.008 C 
ATOM      6  C   LIG A   1      -7.559  -2.285 126.952  0.00  0.00    -0.018 C 
ATOM      7  C   LIG A   1      -8.645  -1.488 126.179  0.00  0.00    +0.037 C 
ATOM      8  C   LIG A   1      -6.408  -1.399 127.546  0.00  0.00    +0.043 C 
ATOM      9  C   LIG A   1      -5.737  -0.465 126.475  0.00  0.00    +0.181 C 
ATOM     10  C   LIG A   1      -5.586  -1.155 125.098  0.00  0.00    +0.053 C 
ATOM     11  C   LIG A   1      -6.754  -2.075 124.714  0.00  0.00    +0.018 C 
ATOM     12  C   LIG A   1      -6.954  -3.123 125.797  0.00  0.00    +0.015 C 
ATOM     13  C   LIG A   1      -8.088  -1.382 124.778  0.00  0.00    -0.073 C 
ATOM     14  C   LIG A   1      -8.742  -0.865 123.730  0.00  0.00    +0.008 C 
ATOM     15  C   LIG A   1      -6.095  -2.771 130.704  0.00  0.00    -0.032 C 
ATOM     16  C   LIG A   1      -6.689  -3.368 132.011  0.00  0.00    +0.011 C 
ATOM     17  C   LIG A   1      -5.560  -3.969 129.896  0.00  0.00    +0.011 C 
ATOM     18  C   LIG A   1      -4.900  -1.890 131.139  0.00  0.00    +0.007 C 
ATOM     19  C   LIG A   1      -4.371  -1.011 130.019  0.00  0.00    +0.001 C 
ATOM     20  C   LIG A   1      -5.465  -0.066 129.552  0.00  0.00    +0.007 C 
ENDROOT
BRANCH   9  21
ATOM     21  O   LIG A   1      -6.439   0.779 126.265  0.00  0.00    -0.461 OA
BRANCH  21  22
ATOM     22  C   LIG A   1      -5.705   1.826 125.779  0.00  0.00    +0.304 C 
ATOM     23  C   LIG A   1      -4.473   2.063 126.602  0.00  0.00    +0.136 C 
ATOM     24  O   LIG A   1      -5.995   2.518 124.818  0.00  0.00    -0.251 OA
ENDBRANCH  21  22
ENDBRANCH   9  21
TORSDOF 2
ENDMDL
MODEL 7
REMARK VINA RESULT:      -6.7      4.533      6.992
REMARK  Name = NuBBE_2233
REMARK  6 active torsions:
REMARK  status: ('A' for Active; 'I' for Inactive)
REMARK    1  A    between atoms: C_1  and  C_2
REMARK    2  A    between atoms: C_10  and  O_12
REMARK    3  A    between atoms: O_12  and  C_13
REMARK    4  A    between atoms: C_13  and  C_14
REMARK    5  A    between atoms: C_23  and  C_24
REMARK    6  A    between atoms: C_23  and  C_25
REMARK                            x       y       z     vdW  Elec       q    Type
REMARK                         _______ _______ _______ _____ _____    ______ ____
ROOT
ATOM      1  C   LIG A   1      -4.773   2.347 129.575  0.00  0.00    +0.012 C 
ATOM      2  C   LIG A   1      -4.875   3.849 129.187  0.00  0.00    -0.022 C 
ATOM      3  C   LIG A   1      -3.395   4.412 129.165  0.00  0.00    +0.001 C 
ATOM      4  C   LIG A   1      -2.610   3.838 127.964  0.00  0.00    +0.005 C 
ATOM      5  C   LIG A   1      -3.292   3.979 126.611  0.00  0.00    +0.008 C 
ATOM      6  C   LIG A   1      -4.771   3.564 126.551  0.00  0.00    -0.018 C 
ATOM      7  C   LIG A   1      -4.978   2.061 126.223  0.00  0.00    +0.037 C 
ATOM      8  C   LIG A   1      -5.587   4.072 127.793  0.00  0.00    +0.043 C 
ATOM      9  C   LIG A   1      -7.120   3.742 127.697  0.00  0.00    +0.181 C 
ATOM     10  C   LIG A   1      -7.672   3.899 126.259  0.00  0.00    +0.053 C 
ATOM     11  C   LIG A   1      -6.704   3.455 125.153  0.00  0.00    +0.018 C 
ATOM     12  C   LIG A   1      -5.394   4.213 125.288  0.00  0.00    +0.015 C 
ATOM     13  C   LIG A   1      -6.207   2.047 125.343  0.00  0.00    -0.073 C 
ATOM     14  C   LIG A   1      -6.696   0.965 124.725  0.00  0.00    +0.008 C 
ATOM     15  C   LIG A   1      -3.191   5.965 129.414  0.00  0.00    -0.032 C 
ATOM     16  C   LIG A   1      -1.740   6.216 129.912  0.00  0.00    +0.011 C 
ATOM     17  C   LIG A   1      -3.376   6.866 128.178  0.00  0.00    +0.011 C 
ATOM     18  C   LIG A   1      -4.125   6.466 130.540  0.00  0.00    +0.007 C 
ATOM     19  C   LIG A   1      -5.571   6.049 130.344  0.00  0.00    +0.001 C 
ATOM     20  C   LIG A   1      -5.668   4.532 130.336  0.00  0.00    +0.007 C 
ENDROOT
BRANCH   9  21
ATOM     21  O   LIG A   1      -7.461   2.415 128.152  0.00  0.00    -0.461 OA
BRANCH  21  22
ATOM     22  C   LIG A   1      -8.448   2.321 129.094  0.00  0.00    +0.304 C 
ATOM     23  C   LIG A   1      -8.262   1.115 129.966  0.00  0.00    +0.136 C 
ATOM     24  O   LIG A   1      -9.388   3.087 129.224  0.00  0.00    -0.251 OA
ENDBRANCH  21  22
ENDBRANCH   9  21
TORSDOF 2
ENDMDL
MODEL 8
REMARK VINA RESULT:      -6.7      6.799      9.272
REMARK  Name = NuBBE_2233
REMARK  6 active torsions:
REMARK  status: ('A' for Active; 'I' for Inactive)
REMARK    1  A    between atoms: C_1  and  C_2
REMARK    2  A    between atoms: C_10  and  O_12
REMARK    3  A    between atoms: O_12  and  C_13
REMARK    4  A    between atoms: C_13  and  C_14
REMARK    5  A    between atoms: C_23  and  C_24
REMARK    6  A    between atoms: C_23  and  C_25
REMARK                            x       y       z     vdW  Elec       q    Type
REMARK                         _______ _______ _______ _____ _____    ______ ____
ROOT
ATOM      1  C   LIG A   1      -6.134   6.981 131.109  0.00  0.00    +0.012 C 
ATOM      2  C   LIG A   1      -5.014   5.901 131.125  0.00  0.00    -0.022 C 
ATOM      3  C   LIG A   1      -3.808   6.512 131.950  0.00  0.00    +0.001 C 
ATOM      4  C   LIG A   1      -4.164   6.608 133.450  0.00  0.00    +0.005 C 
ATOM      5  C   LIG A   1      -4.690   5.325 134.079  0.00  0.00    +0.008 C 
ATOM      6  C   LIG A   1      -5.790   4.588 133.297  0.00  0.00    -0.018 C 
ATOM      7  C   LIG A   1      -7.224   5.061 133.657  0.00  0.00    +0.037 C 
ATOM      8  C   LIG A   1      -5.496   4.533 131.756  0.00  0.00    +0.043 C 
ATOM      9  C   LIG A   1      -6.560   3.697 130.957  0.00  0.00    +0.181 C 
ATOM     10  C   LIG A   1      -7.025   2.439 131.728  0.00  0.00    +0.053 C 
ATOM     11  C   LIG A   1      -7.161   2.633 133.245  0.00  0.00    +0.018 C 
ATOM     12  C   LIG A   1      -5.840   3.128 133.814  0.00  0.00    +0.015 C 
ATOM     13  C   LIG A   1      -8.047   3.794 133.608  0.00  0.00    -0.073 C 
ATOM     14  C   LIG A   1      -9.335   3.702 133.960  0.00  0.00    +0.008 C 
ATOM     15  C   LIG A   1      -2.351   5.966 131.643  0.00  0.00    -0.032 C 
ATOM     16  C   LIG A   1      -1.304   7.026 132.089  0.00  0.00    +0.011 C 
ATOM     17  C   LIG A   1      -1.966   4.660 132.364  0.00  0.00    +0.011 C 
ATOM     18  C   LIG A   1      -2.147   5.774 130.122  0.00  0.00    +0.007 C 
ATOM     19  C   LIG A   1      -3.264   4.980 129.467  0.00  0.00    +0.001 C 
ATOM     20  C   LIG A   1      -4.583   5.714 129.644  0.00  0.00    +0.007 C 
ENDROOT
BRANCH   9  21
ATOM     21  O   LIG A   1      -7.739   4.448 130.594  0.00  0.00    -0.461 OA
BRANCH  21  22
ATOM     22  C   LIG A   1      -8.446   4.000 129.514  0.00  0.00    +0.304 C 
ATOM     23  C   LIG A   1      -7.635   4.079 128.254  0.00  0.00    +0.136 C 
ATOM     24  O   LIG A   1      -9.599   3.603 129.528  0.00  0.00    -0.251 OA
ENDBRANCH  21  22
ENDBRANCH   9  21
TORSDOF 2
ENDMDL
MODEL 9
REMARK VINA RESULT:      -6.7      3.907      6.089
REMARK  Name = NuBBE_2233
REMARK  6 active torsions:
REMARK  status: ('A' for Active; 'I' for Inactive)
REMARK    1  A    between atoms: C_1  and  C_2
REMARK    2  A    between atoms: C_10  and  O_12
REMARK    3  A    between atoms: O_12  and  C_13
REMARK    4  A    between atoms: C_13  and  C_14
REMARK    5  A    between atoms: C_23  and  C_24
REMARK    6  A    between atoms: C_23  and  C_25
REMARK                            x       y       z     vdW  Elec       q    Type
REMARK                         _______ _______ _______ _____ _____    ______ ____
ROOT
ATOM      1  C   LIG A   1      -5.052   0.958 131.100  0.00  0.00    +0.012 C 
ATOM      2  C   LIG A   1      -6.129   0.198 130.274  0.00  0.00    -0.022 C 
ATOM      3  C   LIG A   1      -6.031  -1.326 130.696  0.00  0.00    +0.001 C 
ATOM      4  C   LIG A   1      -6.550  -1.528 132.137  0.00  0.00    +0.005 C 
ATOM      5  C   LIG A   1      -7.927  -0.947 132.422  0.00  0.00    +0.008 C 
ATOM      6  C   LIG A   1      -8.166   0.496 131.948  0.00  0.00    -0.018 C 
ATOM      7  C   LIG A   1      -7.768   1.565 133.002  0.00  0.00    +0.037 C 
ATOM      8  C   LIG A   1      -7.587   0.759 130.512  0.00  0.00    +0.043 C 
ATOM      9  C   LIG A   1      -7.911   2.200 129.974  0.00  0.00    +0.181 C 
ATOM     10  C   LIG A   1      -9.332   2.672 130.363  0.00  0.00    +0.053 C 
ATOM     11  C   LIG A   1      -9.788   2.239 131.764  0.00  0.00    +0.018 C 
ATOM     12  C   LIG A   1      -9.697   0.726 131.883  0.00  0.00    +0.015 C 
ATOM     13  C   LIG A   1      -8.819   2.640 132.843  0.00  0.00    -0.073 C 
ATOM     14  C   LIG A   1      -8.940   3.716 133.630  0.00  0.00    +0.008 C 
ATOM     15  C   LIG A   1      -6.520  -2.414 129.651  0.00  0.00    -0.032 C 
ATOM     16  C   LIG A   1      -5.843  -3.775 129.979  0.00  0.00    +0.011 C 
ATOM     17  C   LIG A   1      -8.036  -2.687 129.636  0.00  0.00    +0.011 C 
ATOM     18  C   LIG A   1      -6.066  -2.043 128.220  0.00  0.00    +0.007 C 
ATOM     19  C   LIG A   1      -6.408  -0.613 127.840  0.00  0.00    +0.001 C 
ATOM     20  C   LIG A   1      -5.707   0.348 128.785  0.00  0.00    +0.007 C 
ENDROOT
BRANCH   9  21
ATOM     21  O   LIG A   1      -6.979   3.210 130.416  0.00  0.00    -0.461 OA
BRANCH  21  22
ATOM     22  C   LIG A   1      -6.837   4.309 129.615  0.00  0.00    +0.304 C 
ATOM     23  C   LIG A   1      -6.291   3.940 128.267  0.00  0.00    +0.136 C 
ATOM     24  O   LIG A   1      -7.087   5.460 129.929  0.00  0.00    -0.251 OA
ENDBRANCH  21  22
ENDBRANCH   9  21
TORSDOF 2
ENDMDL
