MODEL 1
REMARK VINA RESULT:      -7.0      0.000      0.000
REMARK  Name = NuBBE_1954
REMARK  26 active torsions:
REMARK  status: ('A' for Active; 'I' for Inactive)
REMARK    1  A    between atoms: O_1  and  C_2
REMARK    2  A    between atoms: O_1  and  C_3
REMARK    3  A    between atoms: C_6  and  O_7
REMARK    4  A    between atoms: O_7  and  C_8
REMARK    5  A    between atoms: N_12  and  C_39
REMARK    6  A    between atoms: C_15  and  C_16
REMARK    7  A    between atoms: C_16  and  C_17
REMARK    8  A    between atoms: C_17  and  O_18
REMARK    9  A    between atoms: C_17  and  C_36
REMARK   10  A    between atoms: O_18  and  C_19
REMARK   11  A    between atoms: C_19  and  C_21
REMARK   12  A    between atoms: C_21  and  C_22
REMARK   13  A    between atoms: C_22  and  C_23
REMARK   14  A    between atoms: C_23  and  C_24
REMARK   15  A    between atoms: C_24  and  C_25
REMARK   16  A    between atoms: C_25  and  C_26
REMARK   17  A    between atoms: C_26  and  C_27
REMARK   18  A    between atoms: C_27  and  C_28
REMARK   19  A    between atoms: C_28  and  C_29
REMARK   20  A    between atoms: C_29  and  C_30
REMARK   21  A    between atoms: C_30  and  C_31
REMARK   22  A    between atoms: C_31  and  C_32
REMARK   23  A    between atoms: C_32  and  C_33
REMARK   24  A    between atoms: C_33  and  C_34
REMARK   25  A    between atoms: C_34  and  C_35
REMARK   26  A    between atoms: C_36  and  C_38
REMARK                            x       y       z     vdW  Elec       q    Type
REMARK                         _______ _______ _______ _____ _____    ______ ____
ROOT
ATOM      1  C   LIG A   1      -6.565  -2.816 125.024  0.00  0.00    +0.206 C 
ENDROOT
BRANCH   1   2
ATOM      2  C   LIG A   1      -5.750  -2.772 123.687  0.00  0.00    -0.039 C 
ATOM      3  C   LIG A   1      -4.490  -3.228 123.525  0.00  0.00    +0.011 C 
ATOM      4  C   LIG A   1      -6.399  -2.062 122.523  0.00  0.00    +0.042 C 
ENDBRANCH   1   2
BRANCH   1   5
ATOM      5  O   LIG A   1      -7.652  -3.785 124.809  0.00  0.00    -0.457 OA
BRANCH   5   6
ATOM      6  C   LIG A   1      -8.938  -3.374 124.941  0.00  0.00    +0.308 C 
ATOM      7  O   LIG A   1      -9.711  -3.309 123.949  0.00  0.00    -0.251 OA
BRANCH   6   8
ATOM      8  C   LIG A   1      -9.390  -2.997 126.363  0.00  0.00    +0.120 C 
BRANCH   8   9
ATOM      9  C   LIG A   1      -8.976  -4.018 127.437  0.00  0.00    +0.011 C 
BRANCH   9  10
ATOM     10  C   LIG A   1      -8.561  -3.362 128.778  0.00  0.00    +0.000 C 
BRANCH  10  11
ATOM     11  C   LIG A   1      -7.039  -3.164 129.040  0.00  0.00    +0.000 C 
BRANCH  11  12
ATOM     12  C   LIG A   1      -6.516  -3.858 130.305  0.00  0.00    -0.000 C 
BRANCH  12  13
ATOM     13  C   LIG A   1      -5.022  -4.266 130.326  0.00  0.00    -0.000 C 
BRANCH  13  14
ATOM     14  C   LIG A   1      -4.223  -3.357 129.352  0.00  0.00    -0.000 C 
BRANCH  14  15
ATOM     15  C   LIG A   1      -3.385  -2.260 130.029  0.00  0.00    -0.000 C 
BRANCH  15  16
ATOM     16  C   LIG A   1      -4.159  -1.010 130.493  0.00  0.00    -0.000 C 
BRANCH  16  17
ATOM     17  C   LIG A   1      -4.110  -0.683 131.999  0.00  0.00    -0.000 C 
BRANCH  17  18
ATOM     18  C   LIG A   1      -5.364  -1.263 132.684  0.00  0.00    -0.000 C 
BRANCH  18  19
ATOM     19  C   LIG A   1      -6.568  -0.323 132.823  0.00  0.00    -0.000 C 
BRANCH  19  20
ATOM     20  C   LIG A   1      -7.867  -0.953 132.266  0.00  0.00    -0.000 C 
BRANCH  20  21
ATOM     21  C   LIG A   1      -8.606  -0.020 131.297  0.00  0.00    -0.003 C 
ATOM     22  C   LIG A   1      -7.901   0.164 129.962  0.00  0.00    +0.004 C 
ENDBRANCH  20  21
ENDBRANCH  19  20
ENDBRANCH  18  19
ENDBRANCH  17  18
ENDBRANCH  16  17
ENDBRANCH  15  16
ENDBRANCH  14  15
ENDBRANCH  13  14
ENDBRANCH  12  13
ENDBRANCH  11  12
ENDBRANCH  10  11
ENDBRANCH   9  10
ENDBRANCH   8   9
ENDBRANCH   6   8
ENDBRANCH   5   6
ENDBRANCH   1   5
BRANCH   1  23
ATOM     23  C   LIG A   1      -6.914  -1.371 125.691  0.00  0.00    +0.093 C 
BRANCH  23  34
ATOM     24  C   LIG A   1      -6.122   1.177 125.275  0.00  0.00    +0.138 A 
ATOM     25  C   LIG A   1      -6.178   2.580 124.480  0.00  0.00    +0.044 A 
ATOM     26  C   LIG A   1      -6.897   2.522 123.314  0.00  0.00    +0.097 A 
ATOM     27  C   LIG A   1      -6.485   3.402 122.259  0.00  0.00    +0.144 A 
ATOM     28  C   LIG A   1      -5.444   4.360 122.404  0.00  0.00    +0.048 A 
ATOM     29  C   LIG A   1      -4.914   4.611 123.630  0.00  0.00    +0.004 A 
ATOM     30  C   LIG A   1      -5.397   3.818 124.653  0.00  0.00    +0.014 A 
ATOM     31  N   LIG A   1      -8.023   1.640 123.343  0.00  0.00    -0.308 N 
ATOM     32  C   LIG A   1      -8.098   0.433 124.107  0.00  0.00    +0.258 A 
ATOM     33  O   LIG A   1      -9.049  -0.282 124.079  0.00  0.00    -0.267 OA
ATOM     34  C   LIG A   1      -6.923   0.110 125.015  0.00  0.00    +0.063 A 
ATOM     35  C   LIG A   1      -9.311   2.301 123.196  0.00  0.00    +0.152 C 
BRANCH  24  36
ATOM     36  O   LIG A   1      -5.079   0.951 126.201  0.00  0.00    -0.494 OA
ATOM     37  C   LIG A   1      -5.504   1.526 127.391  0.00  0.00    +0.277 C 
ENDBRANCH  24  36
BRANCH  27  38
ATOM     38  O   LIG A   1      -6.902   3.416 120.954  0.00  0.00    -0.493 OA
ATOM     39  C   LIG A   1      -6.277   4.336 120.097  0.00  0.00    +0.277 C 
ENDBRANCH  27  38
ENDBRANCH  23  34
ENDBRANCH   1  23
TORSDOF 21
ENDMDL
MODEL 2
REMARK VINA RESULT:      -6.8      3.770      7.215
REMARK  Name = NuBBE_1954
REMARK  26 active torsions:
REMARK  status: ('A' for Active; 'I' for Inactive)
REMARK    1  A    between atoms: O_1  and  C_2
REMARK    2  A    between atoms: O_1  and  C_3
REMARK    3  A    between atoms: C_6  and  O_7
REMARK    4  A    between atoms: O_7  and  C_8
REMARK    5  A    between atoms: N_12  and  C_39
REMARK    6  A    between atoms: C_15  and  C_16
REMARK    7  A    between atoms: C_16  and  C_17
REMARK    8  A    between atoms: C_17  and  O_18
REMARK    9  A    between atoms: C_17  and  C_36
REMARK   10  A    between atoms: O_18  and  C_19
REMARK   11  A    between atoms: C_19  and  C_21
REMARK   12  A    between atoms: C_21  and  C_22
REMARK   13  A    between atoms: C_22  and  C_23
REMARK   14  A    between atoms: C_23  and  C_24
REMARK   15  A    between atoms: C_24  and  C_25
REMARK   16  A    between atoms: C_25  and  C_26
REMARK   17  A    between atoms: C_26  and  C_27
REMARK   18  A    between atoms: C_27  and  C_28
REMARK   19  A    between atoms: C_28  and  C_29
REMARK   20  A    between atoms: C_29  and  C_30
REMARK   21  A    between atoms: C_30  and  C_31
REMARK   22  A    between atoms: C_31  and  C_32
REMARK   23  A    between atoms: C_32  and  C_33
REMARK   24  A    between atoms: C_33  and  C_34
REMARK   25  A    between atoms: C_34  and  C_35
REMARK   26  A    between atoms: C_36  and  C_38
REMARK                            x       y       z     vdW  Elec       q    Type
REMARK                         _______ _______ _______ _____ _____    ______ ____
ROOT
ATOM      1  C   LIG A   1      -5.099  -0.474 130.489  0.00  0.00    +0.206 C 
ENDROOT
BRANCH   1   2
ATOM      2  C   LIG A   1      -4.861  -0.271 132.025  0.00  0.00    -0.039 C 
ATOM      3  C   LIG A   1      -3.823   0.394 132.573  0.00  0.00    +0.011 C 
ATOM      4  C   LIG A   1      -5.821  -0.973 132.955  0.00  0.00    +0.042 C 
ENDBRANCH   1   2
BRANCH   1   5
ATOM      5  O   LIG A   1      -3.929  -1.216 129.989  0.00  0.00    -0.457 OA
BRANCH   5   6
ATOM      6  C   LIG A   1      -3.908  -2.568 130.101  0.00  0.00    +0.308 C 
ATOM      7  O   LIG A   1      -3.018  -3.157 130.770  0.00  0.00    -0.251 OA
BRANCH   6   8
ATOM      8  C   LIG A   1      -5.027  -3.329 129.369  0.00  0.00    +0.120 C 
BRANCH   8   9
ATOM      9  C   LIG A   1      -6.082  -3.937 130.310  0.00  0.00    +0.011 C 
BRANCH   9  10
ATOM     10  C   LIG A   1      -7.470  -3.258 130.193  0.00  0.00    +0.000 C 
BRANCH  10  11
ATOM     11  C   LIG A   1      -7.915  -2.768 128.782  0.00  0.00    +0.000 C 
BRANCH  11  12
ATOM     12  C   LIG A   1      -8.767  -3.775 127.998  0.00  0.00    -0.000 C 
BRANCH  12  13
ATOM     13  C   LIG A   1      -8.649  -3.757 126.455  0.00  0.00    -0.000 C 
BRANCH  13  14
ATOM     14  C   LIG A   1      -9.540  -2.621 125.880  0.00  0.00    -0.000 C 
BRANCH  14  15
ATOM     15  C   LIG A   1      -9.101  -2.084 124.507  0.00  0.00    -0.000 C 
BRANCH  15  16
ATOM     16  C   LIG A   1      -8.393  -0.715 124.514  0.00  0.00    -0.000 C 
BRANCH  16  17
ATOM     17  C   LIG A   1      -8.182  -0.049 125.889  0.00  0.00    -0.000 C 
BRANCH  17  18
ATOM     18  C   LIG A   1      -6.720  -0.253 126.332  0.00  0.00    -0.000 C 
BRANCH  18  19
ATOM     19  C   LIG A   1      -5.777  -0.902 125.311  0.00  0.00    -0.000 C 
BRANCH  19  20
ATOM     20  C   LIG A   1      -5.419  -2.359 125.690  0.00  0.00    -0.000 C 
BRANCH  20  21
ATOM     21  C   LIG A   1      -5.328  -3.281 124.467  0.00  0.00    -0.003 C 
ATOM     22  C   LIG A   1      -5.548  -2.570 123.141  0.00  0.00    +0.004 C 
ENDBRANCH  20  21
ENDBRANCH  19  20
ENDBRANCH  18  19
ENDBRANCH  17  18
ENDBRANCH  16  17
ENDBRANCH  15  16
ENDBRANCH  14  15
ENDBRANCH  13  14
ENDBRANCH  12  13
ENDBRANCH  11  12
ENDBRANCH  10  11
ENDBRANCH   9  10
ENDBRANCH   8   9
ENDBRANCH   6   8
ENDBRANCH   5   6
ENDBRANCH   1   5
BRANCH   1  23
ATOM     23  C   LIG A   1      -5.613   0.836 129.670  0.00  0.00    +0.093 C 
BRANCH  23  34
ATOM     24  C   LIG A   1      -6.267   3.280 130.616  0.00  0.00    +0.138 A 
ATOM     25  C   LIG A   1      -7.336   4.428 130.996  0.00  0.00    +0.044 A 
ATOM     26  C   LIG A   1      -8.603   4.172 130.536  0.00  0.00    +0.097 A 
ATOM     27  C   LIG A   1      -9.413   5.310 130.215  0.00  0.00    +0.144 A 
ATOM     28  C   LIG A   1      -8.993   6.652 130.428  0.00  0.00    +0.048 A 
ATOM     29  C   LIG A   1      -7.858   6.908 131.130  0.00  0.00    +0.004 A 
ATOM     30  C   LIG A   1      -7.142   5.792 131.517  0.00  0.00    +0.014 A 
ATOM     31  N   LIG A   1      -8.971   2.789 130.521  0.00  0.00    -0.308 N 
ATOM     32  C   LIG A   1      -8.066   1.703 130.301  0.00  0.00    +0.258 A 
ATOM     33  O   LIG A   1      -8.425   0.569 130.273  0.00  0.00    -0.267 OA
ATOM     34  C   LIG A   1      -6.593   2.044 130.153  0.00  0.00    +0.063 A 
ATOM     35  C   LIG A   1     -10.064   2.446 131.418  0.00  0.00    +0.152 C 
BRANCH  24  36
ATOM     36  O   LIG A   1      -4.890   3.599 130.599  0.00  0.00    -0.494 OA
ATOM     37  C   LIG A   1      -4.682   4.295 129.416  0.00  0.00    +0.277 C 
ENDBRANCH  24  36
BRANCH  27  38
ATOM     38  O   LIG A   1     -10.623   5.336 129.573  0.00  0.00    -0.493 OA
ATOM     39  C   LIG A   1     -11.694   5.931 130.260  0.00  0.00    +0.277 C 
ENDBRANCH  27  38
ENDBRANCH  23  34
ENDBRANCH   1  23
TORSDOF 21
ENDMDL
MODEL 3
REMARK VINA RESULT:      -6.7      3.850      7.517
REMARK  Name = NuBBE_1954
REMARK  26 active torsions:
REMARK  status: ('A' for Active; 'I' for Inactive)
REMARK    1  A    between atoms: O_1  and  C_2
REMARK    2  A    between atoms: O_1  and  C_3
REMARK    3  A    between atoms: C_6  and  O_7
REMARK    4  A    between atoms: O_7  and  C_8
REMARK    5  A    between atoms: N_12  and  C_39
REMARK    6  A    between atoms: C_15  and  C_16
REMARK    7  A    between atoms: C_16  and  C_17
REMARK    8  A    between atoms: C_17  and  O_18
REMARK    9  A    between atoms: C_17  and  C_36
REMARK   10  A    between atoms: O_18  and  C_19
REMARK   11  A    between atoms: C_19  and  C_21
REMARK   12  A    between atoms: C_21  and  C_22
REMARK   13  A    between atoms: C_22  and  C_23
REMARK   14  A    between atoms: C_23  and  C_24
REMARK   15  A    between atoms: C_24  and  C_25
REMARK   16  A    between atoms: C_25  and  C_26
REMARK   17  A    between atoms: C_26  and  C_27
REMARK   18  A    between atoms: C_27  and  C_28
REMARK   19  A    between atoms: C_28  and  C_29
REMARK   20  A    between atoms: C_29  and  C_30
REMARK   21  A    between atoms: C_30  and  C_31
REMARK   22  A    between atoms: C_31  and  C_32
REMARK   23  A    between atoms: C_32  and  C_33
REMARK   24  A    between atoms: C_33  and  C_34
REMARK   25  A    between atoms: C_34  and  C_35
REMARK   26  A    between atoms: C_36  and  C_38
REMARK                            x       y       z     vdW  Elec       q    Type
REMARK                         _______ _______ _______ _____ _____    ______ ____
ROOT
ATOM      1  C   LIG A   1      -7.083   2.908 126.993  0.00  0.00    +0.206 C 
ENDROOT
BRANCH   1   2
ATOM      2  C   LIG A   1      -5.530   2.704 126.955  0.00  0.00    -0.039 C 
ATOM      3  C   LIG A   1      -4.709   3.141 125.977  0.00  0.00    +0.011 C 
ATOM      4  C   LIG A   1      -4.933   1.855 128.051  0.00  0.00    +0.042 C 
ENDBRANCH   1   2
BRANCH   1   5
ATOM      5  O   LIG A   1      -7.554   2.725 125.610  0.00  0.00    -0.457 OA
BRANCH   5   6
ATOM      6  C   LIG A   1      -8.514   1.800 125.357  0.00  0.00    +0.308 C 
ATOM      7  O   LIG A   1      -9.631   2.128 124.877  0.00  0.00    -0.251 OA
BRANCH   6   8
ATOM      8  C   LIG A   1      -8.158   0.340 125.690  0.00  0.00    +0.120 C 
BRANCH   8   9
ATOM      9  C   LIG A   1      -6.896  -0.170 124.974  0.00  0.00    +0.011 C 
BRANCH   9  10
ATOM     10  C   LIG A   1      -7.202  -1.165 123.826  0.00  0.00    +0.000 C 
BRANCH  10  11
ATOM     11  C   LIG A   1      -6.606  -2.600 123.940  0.00  0.00    +0.000 C 
BRANCH  11  12
ATOM     12  C   LIG A   1      -7.602  -3.668 124.412  0.00  0.00    -0.000 C 
BRANCH  12  13
ATOM     13  C   LIG A   1      -9.103  -3.290 124.409  0.00  0.00    -0.000 C 
BRANCH  13  14
ATOM     14  C   LIG A   1      -9.563  -2.979 125.860  0.00  0.00    -0.000 C 
BRANCH  14  15
ATOM     15  C   LIG A   1      -8.719  -3.639 126.963  0.00  0.00    -0.000 C 
BRANCH  15  16
ATOM     16  C   LIG A   1      -7.952  -2.678 127.892  0.00  0.00    -0.000 C 
BRANCH  16  17
ATOM     17  C   LIG A   1      -8.185  -2.842 129.408  0.00  0.00    -0.000 C 
BRANCH  17  18
ATOM     18  C   LIG A   1      -7.617  -1.613 130.144  0.00  0.00    -0.000 C 
BRANCH  18  19
ATOM     19  C   LIG A   1      -7.789  -0.256 129.449  0.00  0.00    -0.000 C 
BRANCH  19  20
ATOM     20  C   LIG A   1      -7.672   0.927 130.440  0.00  0.00    -0.000 C 
BRANCH  20  21
ATOM     21  C   LIG A   1      -8.327   0.628 131.795  0.00  0.00    -0.003 C 
ATOM     22  C   LIG A   1      -9.708   1.242 131.960  0.00  0.00    +0.004 C 
ENDBRANCH  20  21
ENDBRANCH  19  20
ENDBRANCH  18  19
ENDBRANCH  17  18
ENDBRANCH  16  17
ENDBRANCH  15  16
ENDBRANCH  14  15
ENDBRANCH  13  14
ENDBRANCH  12  13
ENDBRANCH  11  12
ENDBRANCH  10  11
ENDBRANCH   9  10
ENDBRANCH   8   9
ENDBRANCH   6   8
ENDBRANCH   5   6
ENDBRANCH   1   5
BRANCH   1  23
ATOM     23  C   LIG A   1      -7.611   4.193 127.844  0.00  0.00    +0.093 C 
BRANCH  23  34
ATOM     24  C   LIG A   1      -8.481   4.474 130.385  0.00  0.00    +0.138 A 
ATOM     25  C   LIG A   1      -8.236   4.721 131.962  0.00  0.00    +0.044 A 
ATOM     26  C   LIG A   1      -6.916   4.661 132.329  0.00  0.00    +0.097 A 
ATOM     27  C   LIG A   1      -6.637   4.202 133.658  0.00  0.00    +0.144 A 
ATOM     28  C   LIG A   1      -7.652   3.895 134.606  0.00  0.00    +0.048 A 
ATOM     29  C   LIG A   1      -8.948   4.210 134.344  0.00  0.00    +0.004 A 
ATOM     30  C   LIG A   1      -9.182   4.744 133.092  0.00  0.00    +0.014 A 
ATOM     31  N   LIG A   1      -5.995   5.150 131.349  0.00  0.00    -0.308 N 
ATOM     32  C   LIG A   1      -6.186   5.070 129.933  0.00  0.00    +0.258 A 
ATOM     33  O   LIG A   1      -5.378   5.471 129.157  0.00  0.00    -0.267 OA
ATOM     34  C   LIG A   1      -7.503   4.496 129.441  0.00  0.00    +0.063 A 
ATOM     35  C   LIG A   1      -5.252   6.333 131.757  0.00  0.00    +0.152 C 
BRANCH  24  36
ATOM     36  O   LIG A   1      -9.753   4.049 129.943  0.00  0.00    -0.494 OA
ATOM     37  C   LIG A   1     -10.537   5.194 129.905  0.00  0.00    +0.277 C 
ENDBRANCH  24  36
BRANCH  27  38
ATOM     38  O   LIG A   1      -5.426   3.875 134.207  0.00  0.00    -0.493 OA
ATOM     39  C   LIG A   1      -5.265   2.552 134.650  0.00  0.00    +0.277 C 
ENDBRANCH  27  38
ENDBRANCH  23  34
ENDBRANCH   1  23
TORSDOF 21
ENDMDL
MODEL 4
REMARK VINA RESULT:      -6.6      1.989      2.919
REMARK  Name = NuBBE_1954
REMARK  26 active torsions:
REMARK  status: ('A' for Active; 'I' for Inactive)
REMARK    1  A    between atoms: O_1  and  C_2
REMARK    2  A    between atoms: O_1  and  C_3
REMARK    3  A    between atoms: C_6  and  O_7
REMARK    4  A    between atoms: O_7  and  C_8
REMARK    5  A    between atoms: N_12  and  C_39
REMARK    6  A    between atoms: C_15  and  C_16
REMARK    7  A    between atoms: C_16  and  C_17
REMARK    8  A    between atoms: C_17  and  O_18
REMARK    9  A    between atoms: C_17  and  C_36
REMARK   10  A    between atoms: O_18  and  C_19
REMARK   11  A    between atoms: C_19  and  C_21
REMARK   12  A    between atoms: C_21  and  C_22
REMARK   13  A    between atoms: C_22  and  C_23
REMARK   14  A    between atoms: C_23  and  C_24
REMARK   15  A    between atoms: C_24  and  C_25
REMARK   16  A    between atoms: C_25  and  C_26
REMARK   17  A    between atoms: C_26  and  C_27
REMARK   18  A    between atoms: C_27  and  C_28
REMARK   19  A    between atoms: C_28  and  C_29
REMARK   20  A    between atoms: C_29  and  C_30
REMARK   21  A    between atoms: C_30  and  C_31
REMARK   22  A    between atoms: C_31  and  C_32
REMARK   23  A    between atoms: C_32  and  C_33
REMARK   24  A    between atoms: C_33  and  C_34
REMARK   25  A    between atoms: C_34  and  C_35
REMARK   26  A    between atoms: C_36  and  C_38
REMARK                            x       y       z     vdW  Elec       q    Type
REMARK                         _______ _______ _______ _____ _____    ______ ____
ROOT
ATOM      1  C   LIG A   1      -6.649  -2.563 125.013  0.00  0.00    +0.206 C 
ENDROOT
BRANCH   1   2
ATOM      2  C   LIG A   1      -5.888  -2.603 123.644  0.00  0.00    -0.039 C 
ATOM      3  C   LIG A   1      -6.329  -2.064 122.489  0.00  0.00    +0.011 C 
ATOM      4  C   LIG A   1      -4.609  -3.406 123.606  0.00  0.00    +0.042 C 
ENDBRANCH   1   2
BRANCH   1   5
ATOM      5  O   LIG A   1      -7.657  -3.635 124.952  0.00  0.00    -0.457 OA
BRANCH   5   6
ATOM      6  C   LIG A   1      -8.973  -3.305 124.969  0.00  0.00    +0.308 C 
ATOM      7  O   LIG A   1      -9.621  -3.137 123.903  0.00  0.00    -0.251 OA
BRANCH   6   8
ATOM      8  C   LIG A   1      -9.618  -3.151 126.358  0.00  0.00    +0.120 C 
BRANCH   8   9
ATOM      9  C   LIG A   1      -8.907  -3.948 127.465  0.00  0.00    +0.011 C 
BRANCH   9  10
ATOM     10  C   LIG A   1      -8.381  -3.058 128.619  0.00  0.00    +0.000 C 
BRANCH  10  11
ATOM     11  C   LIG A   1      -7.193  -3.605 129.465  0.00  0.00    +0.000 C 
BRANCH  11  12
ATOM     12  C   LIG A   1      -6.708  -2.655 130.569  0.00  0.00    -0.000 C 
BRANCH  12  13
ATOM     13  C   LIG A   1      -7.558  -2.574 131.861  0.00  0.00    -0.000 C 
BRANCH  13  14
ATOM     14  C   LIG A   1      -7.641  -1.097 132.335  0.00  0.00    -0.000 C 
BRANCH  14  15
ATOM     15  C   LIG A   1      -8.739  -0.259 131.660  0.00  0.00    -0.000 C 
BRANCH  15  16
ATOM     16  C   LIG A   1      -8.326   0.482 130.372  0.00  0.00    -0.000 C 
BRANCH  16  17
ATOM     17  C   LIG A   1      -7.894   1.954 130.527  0.00  0.00    -0.000 C 
BRANCH  17  18
ATOM     18  C   LIG A   1      -8.935   2.700 131.385  0.00  0.00    -0.000 C 
BRANCH  18  19
ATOM     19  C   LIG A   1     -10.169   3.242 130.651  0.00  0.00    -0.000 C 
BRANCH  19  20
ATOM     20  C   LIG A   1     -10.108   4.776 130.462  0.00  0.00    -0.000 C 
BRANCH  20  21
ATOM     21  C   LIG A   1     -11.498   5.405 130.293  0.00  0.00    -0.003 C 
ATOM     22  C   LIG A   1     -11.616   6.804 130.877  0.00  0.00    +0.004 C 
ENDBRANCH  20  21
ENDBRANCH  19  20
ENDBRANCH  18  19
ENDBRANCH  17  18
ENDBRANCH  16  17
ENDBRANCH  15  16
ENDBRANCH  14  15
ENDBRANCH  13  14
ENDBRANCH  12  13
ENDBRANCH  11  12
ENDBRANCH  10  11
ENDBRANCH   9  10
ENDBRANCH   8   9
ENDBRANCH   6   8
ENDBRANCH   5   6
ENDBRANCH   1   5
BRANCH   1  23
ATOM     23  C   LIG A   1      -7.097  -1.086 125.535  0.00  0.00    +0.093 C 
BRANCH  23  34
ATOM     24  C   LIG A   1      -6.226   1.421 125.037  0.00  0.00    +0.138 A 
ATOM     25  C   LIG A   1      -6.190   2.774 124.157  0.00  0.00    +0.044 A 
ATOM     26  C   LIG A   1      -6.808   2.654 122.939  0.00  0.00    +0.097 A 
ATOM     27  C   LIG A   1      -6.293   3.463 121.872  0.00  0.00    +0.144 A 
ATOM     28  C   LIG A   1      -5.251   4.415 122.049  0.00  0.00    +0.048 A 
ATOM     29  C   LIG A   1      -4.823   4.733 123.299  0.00  0.00    +0.004 A 
ATOM     30  C   LIG A   1      -5.404   4.011 124.322  0.00  0.00    +0.014 A 
ATOM     31  N   LIG A   1      -7.948   1.789 122.924  0.00  0.00    -0.308 N 
ATOM     32  C   LIG A   1      -8.109   0.632 123.750  0.00  0.00    +0.258 A 
ATOM     33  O   LIG A   1      -9.067  -0.071 123.683  0.00  0.00    -0.267 OA
ATOM     34  C   LIG A   1      -7.022   0.351 124.772  0.00  0.00    +0.063 A 
ATOM     35  C   LIG A   1      -9.207   2.456 122.627  0.00  0.00    +0.152 C 
BRANCH  24  36
ATOM     36  O   LIG A   1      -5.271   1.239 126.061  0.00  0.00    -0.494 OA
ATOM     37  C   LIG A   1      -5.804   1.856 127.184  0.00  0.00    +0.277 C 
ENDBRANCH  24  36
BRANCH  27  38
ATOM     38  O   LIG A   1      -6.597   3.402 120.538  0.00  0.00    -0.493 OA
ATOM     39  C   LIG A   1      -6.326   4.547 119.772  0.00  0.00    +0.277 C 
ENDBRANCH  27  38
ENDBRANCH  23  34
ENDBRANCH   1  23
TORSDOF 21
ENDMDL
MODEL 5
REMARK VINA RESULT:      -6.6      3.930      7.163
REMARK  Name = NuBBE_1954
REMARK  26 active torsions:
REMARK  status: ('A' for Active; 'I' for Inactive)
REMARK    1  A    between atoms: O_1  and  C_2
REMARK    2  A    between atoms: O_1  and  C_3
REMARK    3  A    between atoms: C_6  and  O_7
REMARK    4  A    between atoms: O_7  and  C_8
REMARK    5  A    between atoms: N_12  and  C_39
REMARK    6  A    between atoms: C_15  and  C_16
REMARK    7  A    between atoms: C_16  and  C_17
REMARK    8  A    between atoms: C_17  and  O_18
REMARK    9  A    between atoms: C_17  and  C_36
REMARK   10  A    between atoms: O_18  and  C_19
REMARK   11  A    between atoms: C_19  and  C_21
REMARK   12  A    between atoms: C_21  and  C_22
REMARK   13  A    between atoms: C_22  and  C_23
REMARK   14  A    between atoms: C_23  and  C_24
REMARK   15  A    between atoms: C_24  and  C_25
REMARK   16  A    between atoms: C_25  and  C_26
REMARK   17  A    between atoms: C_26  and  C_27
REMARK   18  A    between atoms: C_27  and  C_28
REMARK   19  A    between atoms: C_28  and  C_29
REMARK   20  A    between atoms: C_29  and  C_30
REMARK   21  A    between atoms: C_30  and  C_31
REMARK   22  A    between atoms: C_31  and  C_32
REMARK   23  A    between atoms: C_32  and  C_33
REMARK   24  A    between atoms: C_33  and  C_34
REMARK   25  A    between atoms: C_34  and  C_35
REMARK   26  A    between atoms: C_36  and  C_38
REMARK                            x       y       z     vdW  Elec       q    Type
REMARK                         _______ _______ _______ _____ _____    ______ ____
ROOT
ATOM      1  C   LIG A   1      -4.497   3.508 127.125  0.00  0.00    +0.206 C 
ENDROOT
BRANCH   1   2
ATOM      2  C   LIG A   1      -3.020   3.956 127.396  0.00  0.00    -0.039 C 
ATOM      3  C   LIG A   1      -2.652   5.053 128.089  0.00  0.00    +0.011 C 
ATOM      4  C   LIG A   1      -1.935   3.144 126.731  0.00  0.00    +0.042 C 
ENDBRANCH   1   2
BRANCH   1   5
ATOM      5  O   LIG A   1      -5.066   3.159 128.438  0.00  0.00    -0.457 OA
BRANCH   5   6
ATOM      6  C   LIG A   1      -6.267   3.680 128.795  0.00  0.00    +0.308 C 
ATOM      7  O   LIG A   1      -6.811   4.596 128.124  0.00  0.00    -0.251 OA
BRANCH   6   8
ATOM      8  C   LIG A   1      -6.917   3.088 130.058  0.00  0.00    +0.120 C 
BRANCH   8   9
ATOM      9  C   LIG A   1      -8.342   2.554 129.831  0.00  0.00    +0.011 C 
BRANCH   9  10
ATOM     10  C   LIG A   1      -8.576   1.152 130.448  0.00  0.00    +0.000 C 
BRANCH  10  11
ATOM     11  C   LIG A   1      -9.002   1.087 131.945  0.00  0.00    +0.000 C 
BRANCH  11  12
ATOM     12  C   LIG A   1      -9.459   2.428 132.535  0.00  0.00    -0.000 C 
BRANCH  12  13
ATOM     13  C   LIG A   1      -8.421   3.236 133.351  0.00  0.00    -0.000 C 
BRANCH  13  14
ATOM     14  C   LIG A   1      -9.023   4.615 133.736  0.00  0.00    -0.000 C 
BRANCH  14  15
ATOM     15  C   LIG A   1      -9.783   5.330 132.606  0.00  0.00    -0.000 C 
BRANCH  15  16
ATOM     16  C   LIG A   1      -8.922   5.851 131.439  0.00  0.00    -0.000 C 
BRANCH  16  17
ATOM     17  C   LIG A   1      -9.629   6.032 130.080  0.00  0.00    -0.000 C 
BRANCH  17  18
ATOM     18  C   LIG A   1     -10.043   7.508 129.917  0.00  0.00    -0.000 C 
BRANCH  18  19
ATOM     19  C   LIG A   1     -11.540   7.783 129.722  0.00  0.00    -0.000 C 
BRANCH  19  20
ATOM     20  C   LIG A   1     -12.252   6.631 128.975  0.00  0.00    -0.000 C 
BRANCH  20  21
ATOM     21  C   LIG A   1     -12.822   7.070 127.619  0.00  0.00    -0.003 C 
ATOM     22  C   LIG A   1     -11.778   7.178 126.519  0.00  0.00    +0.004 C 
ENDBRANCH  20  21
ENDBRANCH  19  20
ENDBRANCH  18  19
ENDBRANCH  17  18
ENDBRANCH  16  17
ENDBRANCH  15  16
ENDBRANCH  14  15
ENDBRANCH  13  14
ENDBRANCH  12  13
ENDBRANCH  11  12
ENDBRANCH  10  11
ENDBRANCH   9  10
ENDBRANCH   8   9
ENDBRANCH   6   8
ENDBRANCH   5   6
ENDBRANCH   1   5
BRANCH   1  23
ATOM     23  C   LIG A   1      -4.712   2.487 125.874  0.00  0.00    +0.093 C 
BRANCH  23  34
ATOM     24  C   LIG A   1      -7.160   2.123 124.792  0.00  0.00    +0.138 A 
ATOM     25  C   LIG A   1      -8.392   1.192 124.324  0.00  0.00    +0.044 A 
ATOM     26  C   LIG A   1      -8.104  -0.149 124.337  0.00  0.00    +0.097 A 
ATOM     27  C   LIG A   1      -8.786  -0.964 123.375  0.00  0.00    +0.144 A 
ATOM     28  C   LIG A   1      -9.780  -0.460 122.491  0.00  0.00    +0.048 A 
ATOM     29  C   LIG A   1     -10.264   0.799 122.655  0.00  0.00    +0.004 A 
ATOM     30  C   LIG A   1      -9.660   1.536 123.655  0.00  0.00    +0.014 A 
ATOM     31  N   LIG A   1      -7.213  -0.563 125.378  0.00  0.00    -0.308 N 
ATOM     32  C   LIG A   1      -6.165   0.240 125.927  0.00  0.00    +0.258 A 
ATOM     33  O   LIG A   1      -5.434  -0.160 126.777  0.00  0.00    -0.267 OA
ATOM     34  C   LIG A   1      -6.044   1.667 125.421  0.00  0.00    +0.063 A 
ATOM     35  C   LIG A   1      -7.804  -1.471 126.350  0.00  0.00    +0.152 C 
BRANCH  24  36
ATOM     36  O   LIG A   1      -7.133   3.480 124.401  0.00  0.00    -0.494 OA
ATOM     37  C   LIG A   1      -6.654   3.484 123.098  0.00  0.00    +0.277 C 
ENDBRANCH  24  36
BRANCH  27  38
ATOM     38  O   LIG A   1      -8.550  -2.274 123.053  0.00  0.00    -0.493 OA
ATOM     39  C   LIG A   1      -9.440  -3.227 123.576  0.00  0.00    +0.277 C 
ENDBRANCH  27  38
ENDBRANCH  23  34
ENDBRANCH   1  23
TORSDOF 21
ENDMDL
MODEL 6
REMARK VINA RESULT:      -6.6      3.153      6.799
REMARK  Name = NuBBE_1954
REMARK  26 active torsions:
REMARK  status: ('A' for Active; 'I' for Inactive)
REMARK    1  A    between atoms: O_1  and  C_2
REMARK    2  A    between atoms: O_1  and  C_3
REMARK    3  A    between atoms: C_6  and  O_7
REMARK    4  A    between atoms: O_7  and  C_8
REMARK    5  A    between atoms: N_12  and  C_39
REMARK    6  A    between atoms: C_15  and  C_16
REMARK    7  A    between atoms: C_16  and  C_17
REMARK    8  A    between atoms: C_17  and  O_18
REMARK    9  A    between atoms: C_17  and  C_36
REMARK   10  A    between atoms: O_18  and  C_19
REMARK   11  A    between atoms: C_19  and  C_21
REMARK   12  A    between atoms: C_21  and  C_22
REMARK   13  A    between atoms: C_22  and  C_23
REMARK   14  A    between atoms: C_23  and  C_24
REMARK   15  A    between atoms: C_24  and  C_25
REMARK   16  A    between atoms: C_25  and  C_26
REMARK   17  A    between atoms: C_26  and  C_27
REMARK   18  A    between atoms: C_27  and  C_28
REMARK   19  A    between atoms: C_28  and  C_29
REMARK   20  A    between atoms: C_29  and  C_30
REMARK   21  A    between atoms: C_30  and  C_31
REMARK   22  A    between atoms: C_31  and  C_32
REMARK   23  A    between atoms: C_32  and  C_33
REMARK   24  A    between atoms: C_33  and  C_34
REMARK   25  A    between atoms: C_34  and  C_35
REMARK   26  A    between atoms: C_36  and  C_38
REMARK                            x       y       z     vdW  Elec       q    Type
REMARK                         _______ _______ _______ _____ _____    ______ ____
ROOT
ATOM      1  C   LIG A   1      -5.227   4.815 130.927  0.00  0.00    +0.206 C 
ENDROOT
BRANCH   1   2
ATOM      2  C   LIG A   1      -4.744   6.202 131.473  0.00  0.00    -0.039 C 
ATOM      3  C   LIG A   1      -4.282   6.432 132.720  0.00  0.00    +0.011 C 
ATOM      4  C   LIG A   1      -4.917   7.387 130.554  0.00  0.00    +0.042 C 
ENDBRANCH   1   2
BRANCH   1   5
ATOM      5  O   LIG A   1      -4.019   4.120 130.451  0.00  0.00    -0.457 OA
BRANCH   5   6
ATOM      6  C   LIG A   1      -4.047   2.771 130.308  0.00  0.00    +0.308 C 
ATOM      7  O   LIG A   1      -3.806   2.224 129.200  0.00  0.00    -0.251 OA
BRANCH   6   8
ATOM      8  C   LIG A   1      -4.388   1.960 131.571  0.00  0.00    +0.120 C 
BRANCH   8   9
ATOM      9  C   LIG A   1      -5.159   0.659 131.284  0.00  0.00    +0.011 C 
BRANCH   9  10
ATOM     10  C   LIG A   1      -4.270  -0.608 131.357  0.00  0.00    +0.000 C 
BRANCH  10  11
ATOM     11  C   LIG A   1      -3.887  -1.296 130.012  0.00  0.00    +0.000 C 
BRANCH  11  12
ATOM     12  C   LIG A   1      -3.692  -2.815 130.108  0.00  0.00    -0.000 C 
BRANCH  12  13
ATOM     13  C   LIG A   1      -4.821  -3.713 129.546  0.00  0.00    -0.000 C 
BRANCH  13  14
ATOM     14  C   LIG A   1      -5.846  -4.022 130.672  0.00  0.00    -0.000 C 
BRANCH  14  15
ATOM     15  C   LIG A   1      -7.057  -3.075 130.726  0.00  0.00    -0.000 C 
BRANCH  15  16
ATOM     16  C   LIG A   1      -7.606  -2.605 129.364  0.00  0.00    -0.000 C 
BRANCH  16  17
ATOM     17  C   LIG A   1      -8.588  -3.553 128.646  0.00  0.00    -0.000 C 
BRANCH  17  18
ATOM     18  C   LIG A   1      -8.649  -3.181 127.151  0.00  0.00    -0.000 C 
BRANCH  18  19
ATOM     19  C   LIG A   1      -7.380  -2.568 126.544  0.00  0.00    -0.000 C 
BRANCH  19  20
ATOM     20  C   LIG A   1      -7.266  -2.847 125.027  0.00  0.00    -0.000 C 
BRANCH  20  21
ATOM     21  C   LIG A   1      -8.370  -3.782 124.514  0.00  0.00    -0.003 C 
ATOM     22  C   LIG A   1      -9.350  -3.115 123.563  0.00  0.00    +0.004 C 
ENDBRANCH  20  21
ENDBRANCH  19  20
ENDBRANCH  18  19
ENDBRANCH  17  18
ENDBRANCH  16  17
ENDBRANCH  15  16
ENDBRANCH  14  15
ENDBRANCH  13  14
ENDBRANCH  12  13
ENDBRANCH  11  12
ENDBRANCH  10  11
ENDBRANCH   9  10
ENDBRANCH   8   9
ENDBRANCH   6   8
ENDBRANCH   5   6
ENDBRANCH   1   5
BRANCH   1  23
ATOM     23  C   LIG A   1      -6.547   4.847 129.974  0.00  0.00    +0.093 C 
BRANCH  23  34
ATOM     24  C   LIG A   1      -7.589   2.799 128.554  0.00  0.00    +0.138 A 
ATOM     25  C   LIG A   1      -7.934   2.051 127.165  0.00  0.00    +0.044 A 
ATOM     26  C   LIG A   1      -7.732   2.831 126.056  0.00  0.00    +0.097 A 
ATOM     27  C   LIG A   1      -8.577   2.576 124.926  0.00  0.00    +0.144 A 
ATOM     28  C   LIG A   1      -9.531   1.522 124.889  0.00  0.00    +0.048 A 
ATOM     29  C   LIG A   1      -9.548   0.582 125.869  0.00  0.00    +0.004 A 
ATOM     30  C   LIG A   1      -8.655   0.793 126.902  0.00  0.00    +0.014 A 
ATOM     31  N   LIG A   1      -6.635   3.746 126.154  0.00  0.00    -0.308 N 
ATOM     32  C   LIG A   1      -6.194   4.369 127.364  0.00  0.00    +0.258 A 
ATOM     33  O   LIG A   1      -5.291   5.143 127.390  0.00  0.00    -0.267 OA
ATOM     34  C   LIG A   1      -6.894   3.964 128.650  0.00  0.00    +0.063 A 
ATOM     35  C   LIG A   1      -5.552   3.491 125.217  0.00  0.00    +0.152 C 
BRANCH  24  36
ATOM     36  O   LIG A   1      -8.166   2.326 129.753  0.00  0.00    -0.494 OA
ATOM     37  C   LIG A   1      -9.427   2.903 129.815  0.00  0.00    +0.277 C 
ENDBRANCH  24  36
BRANCH  27  38
ATOM     38  O   LIG A   1      -8.711   3.317 123.782  0.00  0.00    -0.493 OA
ATOM     39  C   LIG A   1      -8.473   2.657 122.566  0.00  0.00    +0.277 C 
ENDBRANCH  27  38
ENDBRANCH  23  34
ENDBRANCH   1  23
TORSDOF 21
ENDMDL
MODEL 7
REMARK VINA RESULT:      -6.6      3.443      8.339
REMARK  Name = NuBBE_1954
REMARK  26 active torsions:
REMARK  status: ('A' for Active; 'I' for Inactive)
REMARK    1  A    between atoms: O_1  and  C_2
REMARK    2  A    between atoms: O_1  and  C_3
REMARK    3  A    between atoms: C_6  and  O_7
REMARK    4  A    between atoms: O_7  and  C_8
REMARK    5  A    between atoms: N_12  and  C_39
REMARK    6  A    between atoms: C_15  and  C_16
REMARK    7  A    between atoms: C_16  and  C_17
REMARK    8  A    between atoms: C_17  and  O_18
REMARK    9  A    between atoms: C_17  and  C_36
REMARK   10  A    between atoms: O_18  and  C_19
REMARK   11  A    between atoms: C_19  and  C_21
REMARK   12  A    between atoms: C_21  and  C_22
REMARK   13  A    between atoms: C_22  and  C_23
REMARK   14  A    between atoms: C_23  and  C_24
REMARK   15  A    between atoms: C_24  and  C_25
REMARK   16  A    between atoms: C_25  and  C_26
REMARK   17  A    between atoms: C_26  and  C_27
REMARK   18  A    between atoms: C_27  and  C_28
REMARK   19  A    between atoms: C_28  and  C_29
REMARK   20  A    between atoms: C_29  and  C_30
REMARK   21  A    between atoms: C_30  and  C_31
REMARK   22  A    between atoms: C_31  and  C_32
REMARK   23  A    between atoms: C_32  and  C_33
REMARK   24  A    between atoms: C_33  and  C_34
REMARK   25  A    between atoms: C_34  and  C_35
REMARK   26  A    between atoms: C_36  and  C_38
REMARK                            x       y       z     vdW  Elec       q    Type
REMARK                         _______ _______ _______ _____ _____    ______ ____
ROOT
ATOM      1  C   LIG A   1      -4.576   4.716 127.777  0.00  0.00    +0.206 C 
ENDROOT
BRANCH   1   2
ATOM      2  C   LIG A   1      -3.011   4.766 127.722  0.00  0.00    -0.039 C 
ATOM      3  C   LIG A   1      -2.217   3.818 127.182  0.00  0.00    +0.011 C 
ATOM      4  C   LIG A   1      -2.347   5.924 128.429  0.00  0.00    +0.042 C 
ENDBRANCH   1   2
BRANCH   1   5
ATOM      5  O   LIG A   1      -5.052   5.537 126.651  0.00  0.00    -0.457 OA
BRANCH   5   6
ATOM      6  C   LIG A   1      -5.878   4.978 125.731  0.00  0.00    +0.308 C 
ATOM      7  O   LIG A   1      -7.030   5.441 125.518  0.00  0.00    -0.251 OA
BRANCH   6   8
ATOM      8  C   LIG A   1      -5.327   3.758 124.972  0.00  0.00    +0.120 C 
BRANCH   8   9
ATOM      9  C   LIG A   1      -5.862   2.412 125.489  0.00  0.00    +0.011 C 
BRANCH   9  10
ATOM     10  C   LIG A   1      -7.256   2.047 124.919  0.00  0.00    +0.000 C 
BRANCH  10  11
ATOM     11  C   LIG A   1      -7.660   0.542 124.915  0.00  0.00    +0.000 C 
BRANCH  11  12
ATOM     12  C   LIG A   1      -6.873  -0.325 123.923  0.00  0.00    -0.000 C 
BRANCH  12  13
ATOM     13  C   LIG A   1      -5.998  -1.460 124.510  0.00  0.00    -0.000 C 
BRANCH  13  14
ATOM     14  C   LIG A   1      -6.282  -2.782 123.744  0.00  0.00    -0.000 C 
BRANCH  14  15
ATOM     15  C   LIG A   1      -7.226  -3.759 124.464  0.00  0.00    -0.000 C 
BRANCH  15  16
ATOM     16  C   LIG A   1      -8.728  -3.419 124.396  0.00  0.00    -0.000 C 
BRANCH  16  17
ATOM     17  C   LIG A   1      -9.372  -2.856 125.680  0.00  0.00    -0.000 C 
BRANCH  17  18
ATOM     18  C   LIG A   1      -8.657  -3.455 126.908  0.00  0.00    -0.000 C 
BRANCH  18  19
ATOM     19  C   LIG A   1      -8.144  -2.459 127.957  0.00  0.00    -0.000 C 
BRANCH  19  20
ATOM     20  C   LIG A   1      -6.599  -2.387 127.986  0.00  0.00    -0.000 C 
BRANCH  20  21
ATOM     21  C   LIG A   1      -6.078  -1.226 128.845  0.00  0.00    -0.003 C 
ATOM     22  C   LIG A   1      -6.572   0.140 128.397  0.00  0.00    +0.004 C 
ENDBRANCH  20  21
ENDBRANCH  19  20
ENDBRANCH  18  19
ENDBRANCH  17  18
ENDBRANCH  16  17
ENDBRANCH  15  16
ENDBRANCH  14  15
ENDBRANCH  13  14
ENDBRANCH  12  13
ENDBRANCH  11  12
ENDBRANCH  10  11
ENDBRANCH   9  10
ENDBRANCH   8   9
ENDBRANCH   6   8
ENDBRANCH   5   6
ENDBRANCH   1   5
BRANCH   1  23
ATOM     23  C   LIG A   1      -5.242   4.929 129.248  0.00  0.00    +0.093 C 
BRANCH  23  34
ATOM     24  C   LIG A   1      -7.138   3.286 130.251  0.00  0.00    +0.138 A 
ATOM     25  C   LIG A   1      -7.646   2.144 131.272  0.00  0.00    +0.044 A 
ATOM     26  C   LIG A   1      -6.632   1.543 131.972  0.00  0.00    +0.097 A 
ATOM     27  C   LIG A   1      -6.832   0.174 132.350  0.00  0.00    +0.144 A 
ATOM     28  C   LIG A   1      -8.041  -0.533 132.103  0.00  0.00    +0.048 A 
ATOM     29  C   LIG A   1      -9.141   0.130 131.659  0.00  0.00    +0.004 A 
ATOM     30  C   LIG A   1      -8.952   1.472 131.394  0.00  0.00    +0.014 A 
ATOM     31  N   LIG A   1      -5.536   2.402 132.304  0.00  0.00    -0.308 N 
ATOM     32  C   LIG A   1      -5.090   3.505 131.509  0.00  0.00    +0.258 A 
ATOM     33  O   LIG A   1      -4.157   4.176 131.817  0.00  0.00    -0.267 OA
ATOM     34  C   LIG A   1      -5.893   3.833 130.262  0.00  0.00    +0.063 A 
ATOM     35  C   LIG A   1      -5.349   2.617 133.731  0.00  0.00    +0.152 C 
BRANCH  24  36
ATOM     36  O   LIG A   1      -7.960   3.653 129.162  0.00  0.00    -0.494 OA
ATOM     37  C   LIG A   1      -8.808   4.639 129.648  0.00  0.00    +0.277 C 
ENDBRANCH  24  36
BRANCH  27  38
ATOM     38  O   LIG A   1      -5.923  -0.702 132.880  0.00  0.00    -0.493 OA
ATOM     39  C   LIG A   1      -6.022  -0.966 134.255  0.00  0.00    +0.277 C 
ENDBRANCH  27  38
ENDBRANCH  23  34
ENDBRANCH   1  23
TORSDOF 21
ENDMDL
MODEL 8
REMARK VINA RESULT:      -6.6      3.596      7.200
REMARK  Name = NuBBE_1954
REMARK  26 active torsions:
REMARK  status: ('A' for Active; 'I' for Inactive)
REMARK    1  A    between atoms: O_1  and  C_2
REMARK    2  A    between atoms: O_1  and  C_3
REMARK    3  A    between atoms: C_6  and  O_7
REMARK    4  A    between atoms: O_7  and  C_8
REMARK    5  A    between atoms: N_12  and  C_39
REMARK    6  A    between atoms: C_15  and  C_16
REMARK    7  A    between atoms: C_16  and  C_17
REMARK    8  A    between atoms: C_17  and  O_18
REMARK    9  A    between atoms: C_17  and  C_36
REMARK   10  A    between atoms: O_18  and  C_19
REMARK   11  A    between atoms: C_19  and  C_21
REMARK   12  A    between atoms: C_21  and  C_22
REMARK   13  A    between atoms: C_22  and  C_23
REMARK   14  A    between atoms: C_23  and  C_24
REMARK   15  A    between atoms: C_24  and  C_25
REMARK   16  A    between atoms: C_25  and  C_26
REMARK   17  A    between atoms: C_26  and  C_27
REMARK   18  A    between atoms: C_27  and  C_28
REMARK   19  A    between atoms: C_28  and  C_29
REMARK   20  A    between atoms: C_29  and  C_30
REMARK   21  A    between atoms: C_30  and  C_31
REMARK   22  A    between atoms: C_31  and  C_32
REMARK   23  A    between atoms: C_32  and  C_33
REMARK   24  A    between atoms: C_33  and  C_34
REMARK   25  A    between atoms: C_34  and  C_35
REMARK   26  A    between atoms: C_36  and  C_38
REMARK                            x       y       z     vdW  Elec       q    Type
REMARK                         _______ _______ _______ _____ _____    ______ ____
ROOT
ATOM      1  C   LIG A   1      -5.327  -0.597 130.771  0.00  0.00    +0.206 C 
ENDROOT
BRANCH   1   2
ATOM      2  C   LIG A   1      -4.997  -0.113 132.225  0.00  0.00    -0.039 C 
ATOM      3  C   LIG A   1      -5.728  -0.390 133.325  0.00  0.00    +0.011 C 
ATOM      4  C   LIG A   1      -3.826   0.828 132.374  0.00  0.00    +0.042 C 
ENDBRANCH   1   2
BRANCH   1   5
ATOM      5  O   LIG A   1      -4.061  -1.098 130.210  0.00  0.00    -0.457 OA
BRANCH   5   6
ATOM      6  C   LIG A   1      -3.949  -2.416 129.909  0.00  0.00    +0.308 C 
ATOM      7  O   LIG A   1      -2.950  -3.090 130.274  0.00  0.00    -0.251 OA
BRANCH   6   8
ATOM      8  C   LIG A   1      -5.107  -3.032 129.104  0.00  0.00    +0.120 C 
BRANCH   8   9
ATOM      9  C   LIG A   1      -6.065  -3.888 129.950  0.00  0.00    +0.011 C 
BRANCH   9  10
ATOM     10  C   LIG A   1      -7.546  -3.448 129.832  0.00  0.00    +0.000 C 
BRANCH  10  11
ATOM     11  C   LIG A   1      -7.969  -2.683 128.543  0.00  0.00    +0.000 C 
BRANCH  11  12
ATOM     12  C   LIG A   1      -8.667  -3.551 127.487  0.00  0.00    -0.000 C 
BRANCH  12  13
ATOM     13  C   LIG A   1      -9.162  -2.846 126.201  0.00  0.00    -0.000 C 
BRANCH  13  14
ATOM     14  C   LIG A   1      -8.687  -3.646 124.956  0.00  0.00    -0.000 C 
BRANCH  14  15
ATOM     15  C   LIG A   1      -9.311  -3.201 123.622  0.00  0.00    -0.000 C 
BRANCH  15  16
ATOM     16  C   LIG A   1      -8.632  -2.006 122.925  0.00  0.00    -0.000 C 
BRANCH  16  17
ATOM     17  C   LIG A   1      -7.094  -2.045 122.821  0.00  0.00    -0.000 C 
BRANCH  17  18
ATOM     18  C   LIG A   1      -6.500  -0.899 123.665  0.00  0.00    -0.000 C 
BRANCH  18  19
ATOM     19  C   LIG A   1      -5.769  -1.301 124.952  0.00  0.00    -0.000 C 
BRANCH  19  20
ATOM     20  C   LIG A   1      -6.269  -0.503 126.180  0.00  0.00    -0.000 C 
BRANCH  20  21
ATOM     21  C   LIG A   1      -7.387   0.486 125.826  0.00  0.00    -0.003 C 
ATOM     22  C   LIG A   1      -8.375   0.728 126.956  0.00  0.00    +0.004 C 
ENDBRANCH  20  21
ENDBRANCH  19  20
ENDBRANCH  18  19
ENDBRANCH  17  18
ENDBRANCH  16  17
ENDBRANCH  15  16
ENDBRANCH  14  15
ENDBRANCH  13  14
ENDBRANCH  12  13
ENDBRANCH  11  12
ENDBRANCH  10  11
ENDBRANCH   9  10
ENDBRANCH   8   9
ENDBRANCH   6   8
ENDBRANCH   5   6
ENDBRANCH   1   5
BRANCH   1  23
ATOM     23  C   LIG A   1      -6.245   0.409 129.878  0.00  0.00    +0.093 C 
BRANCH  23  34
ATOM     24  C   LIG A   1      -7.058   2.956 130.260  0.00  0.00    +0.138 A 
ATOM     25  C   LIG A   1      -6.860   4.554 130.143  0.00  0.00    +0.044 A 
ATOM     26  C   LIG A   1      -5.596   4.924 129.760  0.00  0.00    +0.097 A 
ATOM     27  C   LIG A   1      -5.118   6.184 130.249  0.00  0.00    +0.144 A 
ATOM     28  C   LIG A   1      -5.913   7.072 131.024  0.00  0.00    +0.048 A 
ATOM     29  C   LIG A   1      -7.243   6.840 131.177  0.00  0.00    +0.004 A 
ATOM     30  C   LIG A   1      -7.704   5.667 130.612  0.00  0.00    +0.014 A 
ATOM     31  N   LIG A   1      -4.957   4.027 128.846  0.00  0.00    -0.308 N 
ATOM     32  C   LIG A   1      -5.160   2.611 128.810  0.00  0.00    +0.258 A 
ATOM     33  O   LIG A   1      -4.585   1.904 128.046  0.00  0.00    -0.267 OA
ATOM     34  C   LIG A   1      -6.194   2.033 129.761  0.00  0.00    +0.063 A 
ATOM     35  C   LIG A   1      -4.682   4.596 127.535  0.00  0.00    +0.152 C 
BRANCH  24  36
ATOM     36  O   LIG A   1      -8.104   2.449 131.063  0.00  0.00    -0.494 OA
ATOM     37  C   LIG A   1      -9.243   2.502 130.272  0.00  0.00    +0.277 C 
ENDBRANCH  24  36
BRANCH  27  38
ATOM     38  O   LIG A   1      -3.850   6.697 130.174  0.00  0.00    -0.493 OA
ATOM     39  C   LIG A   1      -3.692   8.051 130.512  0.00  0.00    +0.277 C 
ENDBRANCH  27  38
ENDBRANCH  23  34
ENDBRANCH   1  23
TORSDOF 21
ENDMDL
MODEL 9
REMARK VINA RESULT:      -6.6      3.452      7.352
REMARK  Name = NuBBE_1954
REMARK  26 active torsions:
REMARK  status: ('A' for Active; 'I' for Inactive)
REMARK    1  A    between atoms: O_1  and  C_2
REMARK    2  A    between atoms: O_1  and  C_3
REMARK    3  A    between atoms: C_6  and  O_7
REMARK    4  A    between atoms: O_7  and  C_8
REMARK    5  A    between atoms: N_12  and  C_39
REMARK    6  A    between atoms: C_15  and  C_16
REMARK    7  A    between atoms: C_16  and  C_17
REMARK    8  A    between atoms: C_17  and  O_18
REMARK    9  A    between atoms: C_17  and  C_36
REMARK   10  A    between atoms: O_18  and  C_19
REMARK   11  A    between atoms: C_19  and  C_21
REMARK   12  A    between atoms: C_21  and  C_22
REMARK   13  A    between atoms: C_22  and  C_23
REMARK   14  A    between atoms: C_23  and  C_24
REMARK   15  A    between atoms: C_24  and  C_25
REMARK   16  A    between atoms: C_25  and  C_26
REMARK   17  A    between atoms: C_26  and  C_27
REMARK   18  A    between atoms: C_27  and  C_28
REMARK   19  A    between atoms: C_28  and  C_29
REMARK   20  A    between atoms: C_29  and  C_30
REMARK   21  A    between atoms: C_30  and  C_31
REMARK   22  A    between atoms: C_31  and  C_32
REMARK   23  A    between atoms: C_32  and  C_33
REMARK   24  A    between atoms: C_33  and  C_34
REMARK   25  A    between atoms: C_34  and  C_35
REMARK   26  A    between atoms: C_36  and  C_38
REMARK                            x       y       z     vdW  Elec       q    Type
REMARK                         _______ _______ _______ _____ _____    ______ ____
ROOT
ATOM      1  C   LIG A   1      -5.823  -1.176 131.461  0.00  0.00    +0.206 C 
ENDROOT
BRANCH   1   2
ATOM      2  C   LIG A   1      -6.820  -2.334 131.810  0.00  0.00    -0.039 C 
ATOM      3  C   LIG A   1      -7.646  -2.943 130.934  0.00  0.00    +0.011 C 
ATOM      4  C   LIG A   1      -6.931  -2.713 133.267  0.00  0.00    +0.042 C 
ENDBRANCH   1   2
BRANCH   1   5
ATOM      5  O   LIG A   1      -4.628  -1.401 132.291  0.00  0.00    -0.457 OA
BRANCH   5   6
ATOM      6  C   LIG A   1      -3.454  -1.715 131.687  0.00  0.00    +0.308 C 
ATOM      7  O   LIG A   1      -2.420  -1.974 132.357  0.00  0.00    -0.251 OA
BRANCH   6   8
ATOM      8  C   LIG A   1      -3.465  -1.734 130.148  0.00  0.00    +0.120 C 
BRANCH   8   9
ATOM      9  C   LIG A   1      -3.739  -3.124 129.547  0.00  0.00    +0.011 C 
BRANCH   9  10
ATOM     10  C   LIG A   1      -4.793  -3.103 128.412  0.00  0.00    +0.000 C 
BRANCH  10  11
ATOM     11  C   LIG A   1      -5.276  -1.711 127.904  0.00  0.00    +0.000 C 
BRANCH  11  12
ATOM     12  C   LIG A   1      -6.474  -1.763 126.947  0.00  0.00    -0.000 C 
BRANCH  12  13
ATOM     13  C   LIG A   1      -7.806  -2.321 127.505  0.00  0.00    -0.000 C 
BRANCH  13  14
ATOM     14  C   LIG A   1      -8.342  -3.429 126.557  0.00  0.00    -0.000 C 
BRANCH  14  15
ATOM     15  C   LIG A   1      -9.451  -2.977 125.592  0.00  0.00    -0.000 C 
BRANCH  15  16
ATOM     16  C   LIG A   1      -9.241  -3.339 124.108  0.00  0.00    -0.000 C 
BRANCH  16  17
ATOM     17  C   LIG A   1      -8.966  -2.169 123.141  0.00  0.00    -0.000 C 
BRANCH  17  18
ATOM     18  C   LIG A   1      -7.574  -1.579 123.443  0.00  0.00    -0.000 C 
BRANCH  18  19
ATOM     19  C   LIG A   1      -6.466  -1.876 122.425  0.00  0.00    -0.000 C 
BRANCH  19  20
ATOM     20  C   LIG A   1      -5.197  -2.454 123.095  0.00  0.00    -0.000 C 
BRANCH  20  21
ATOM     21  C   LIG A   1      -5.493  -3.696 123.947  0.00  0.00    -0.003 C 
ATOM     22  C   LIG A   1      -4.428  -4.776 123.851  0.00  0.00    +0.004 C 
ENDBRANCH  20  21
ENDBRANCH  19  20
ENDBRANCH  18  19
ENDBRANCH  17  18
ENDBRANCH  16  17
ENDBRANCH  15  16
ENDBRANCH  14  15
ENDBRANCH  13  14
ENDBRANCH  12  13
ENDBRANCH  11  12
ENDBRANCH  10  11
ENDBRANCH   9  10
ENDBRANCH   8   9
ENDBRANCH   6   8
ENDBRANCH   5   6
ENDBRANCH   1   5
BRANCH   1  23
ATOM     23  C   LIG A   1      -6.466   0.318 131.390  0.00  0.00    +0.093 C 
BRANCH  23  34
ATOM     24  C   LIG A   1      -5.153   2.676 131.276  0.00  0.00    +0.138 A 
ATOM     25  C   LIG A   1      -4.551   3.941 130.474  0.00  0.00    +0.044 A 
ATOM     26  C   LIG A   1      -4.562   3.783 129.112  0.00  0.00    +0.097 A 
ATOM     27  C   LIG A   1      -3.523   4.444 128.378  0.00  0.00    +0.144 A 
ATOM     28  C   LIG A   1      -2.561   5.298 128.986  0.00  0.00    +0.048 A 
ATOM     29  C   LIG A   1      -2.707   5.674 130.284  0.00  0.00    +0.004 A 
ATOM     30  C   LIG A   1      -3.774   5.101 130.946  0.00  0.00    +0.014 A 
ATOM     31  N   LIG A   1      -5.673   3.039 128.600  0.00  0.00    -0.308 N 
ATOM     32  C   LIG A   1      -6.335   1.976 129.292  0.00  0.00    +0.258 A 
ATOM     33  O   LIG A   1      -7.240   1.370 128.814  0.00  0.00    -0.267 OA
ATOM     34  C   LIG A   1      -5.872   1.673 130.707  0.00  0.00    +0.063 A 
ATOM     35  C   LIG A   1      -6.565   3.802 127.741  0.00  0.00    +0.152 C 
BRANCH  24  36
ATOM     36  O   LIG A   1      -4.795   2.484 132.629  0.00  0.00    -0.494 OA
ATOM     37  C   LIG A   1      -3.511   1.956 132.605  0.00  0.00    +0.277 C 
ENDBRANCH  24  36
BRANCH  27  38
ATOM     38  O   LIG A   1      -3.196   4.304 127.056  0.00  0.00    -0.493 OA
ATOM     39  C   LIG A   1      -2.656   3.069 126.662  0.00  0.00    +0.277 C 
ENDBRANCH  27  38
ENDBRANCH  23  34
ENDBRANCH   1  23
TORSDOF 21
ENDMDL
