MODEL 1
REMARK VINA RESULT:      -7.9      0.000      0.000
REMARK  Name = NuBBE_1764
REMARK  10 active torsions:
REMARK  status: ('A' for Active; 'I' for Inactive)
REMARK    1  A    between atoms: C_1  and  O_2
REMARK    2  A    between atoms: O_2  and  C_3
REMARK    3  A    between atoms: C_4  and  C_6
REMARK    4  A    between atoms: C_15  and  C_17
REMARK    5  A    between atoms: C_18  and  C_19
REMARK    6  A    between atoms: C_19  and  C_20
REMARK    7  A    between atoms: C_23  and  O_25
REMARK    8  A    between atoms: O_25  and  C_26
REMARK    9  A    between atoms: C_27  and  O_29
REMARK   10  A    between atoms: C_30  and  O_32
REMARK                            x       y       z     vdW  Elec       q    Type
REMARK                         _______ _______ _______ _____ _____    ______ ____
ROOT
ATOM      1  C   LIG A   1      -7.545  -0.096 125.840  0.00  0.00    +0.130 C 
ATOM      2  C   LIG A   1      -7.709   0.343 124.335  0.00  0.00    +0.060 C 
ATOM      3  C   LIG A   1      -7.217  -0.923 123.556  0.00  0.00    +0.005 C 
ATOM      4  C   LIG A   1      -8.348  -1.525 122.714  0.00  0.00    +0.009 C 
ATOM      5  C   LIG A   1      -6.525  -1.874 124.621  0.00  0.00    +0.009 C 
ATOM      6  C   LIG A   1      -7.475  -2.990 125.171  0.00  0.00    +0.044 C 
ATOM      7  C   LIG A   1      -8.260  -2.567 126.435  0.00  0.00    +0.150 C 
ATOM      8  C   LIG A   1      -8.682  -1.079 126.349  0.00  0.00    +0.178 C 
ATOM      9  C   LIG A   1      -6.216  -0.899 125.788  0.00  0.00    +0.156 C 
ENDROOT
BRANCH   2  10
ATOM     10  C   LIG A   1      -7.011   1.610 123.780  0.00  0.00    -0.037 A 
ATOM     11  C   LIG A   1      -6.587   2.618 124.689  0.00  0.00    +0.008 A 
ATOM     12  C   LIG A   1      -5.951   3.793 124.255  0.00  0.00    +0.050 A 
ATOM     13  C   LIG A   1      -5.728   3.942 122.907  0.00  0.00    +0.166 A 
ATOM     14  O   LIG A   1      -5.129   4.999 122.297  0.00  0.00    -0.453 OA
ATOM     15  C   LIG A   1      -5.188   4.584 120.915  0.00  0.00    +0.466 C 
ATOM     16  O   LIG A   1      -5.790   3.288 120.730  0.00  0.00    -0.453 OA
ATOM     17  C   LIG A   1      -6.107   2.975 122.015  0.00  0.00    +0.167 A 
ATOM     18  C   LIG A   1      -6.738   1.817 122.419  0.00  0.00    +0.053 A 
ENDBRANCH   2  10
BRANCH   1  20
ATOM     19  C   LIG A   1      -7.977   0.704 128.078  0.00  0.00    +0.195 C 
ATOM     20  O   LIG A   1      -7.445   0.989 126.783  0.00  0.00    -0.371 OA
ENDBRANCH   1  20
BRANCH   7  21
ATOM     21  O   LIG A   1      -7.403  -2.849 127.558  0.00  0.00    -0.377 OA
ATOM     22  C   LIG A   1      -8.035  -3.000 128.820  0.00  0.00    +0.194 C 
ENDBRANCH   7  21
BRANCH   8  23
ATOM     23  O   LIG A   1      -9.892  -0.961 125.592  0.00  0.00    -0.386 OA
ATOM     24  H   LIG A   1      -9.693  -0.419 124.807  0.00  0.00    +0.210 HD
ENDBRANCH   8  23
BRANCH   9  25
ATOM     25  O   LIG A   1      -5.080  -0.079 125.541  0.00  0.00    -0.388 OA
ATOM     26  H   LIG A   1      -4.844  -0.249 124.609  0.00  0.00    +0.210 HD
ENDBRANCH   9  25
BRANCH   5  27
ATOM     27  C   LIG A   1      -5.221  -2.482 124.034  0.00  0.00    +0.036 C 
BRANCH  27  28
ATOM     28  C   LIG A   1      -5.198  -3.997 123.935  0.00  0.00    -0.034 C 
ATOM     29  C   LIG A   1      -4.152  -4.708 123.502  0.00  0.00    +0.004 C 
ENDBRANCH  27  28
ENDBRANCH   5  27
TORSDOF 7
ENDMDL
MODEL 2
REMARK VINA RESULT:      -7.7      2.108      3.046
REMARK  Name = NuBBE_1764
REMARK  10 active torsions:
REMARK  status: ('A' for Active; 'I' for Inactive)
REMARK    1  A    between atoms: C_1  and  O_2
REMARK    2  A    between atoms: O_2  and  C_3
REMARK    3  A    between atoms: C_4  and  C_6
REMARK    4  A    between atoms: C_15  and  C_17
REMARK    5  A    between atoms: C_18  and  C_19
REMARK    6  A    between atoms: C_19  and  C_20
REMARK    7  A    between atoms: C_23  and  O_25
REMARK    8  A    between atoms: O_25  and  C_26
REMARK    9  A    between atoms: C_27  and  O_29
REMARK   10  A    between atoms: C_30  and  O_32
REMARK                            x       y       z     vdW  Elec       q    Type
REMARK                         _______ _______ _______ _____ _____    ______ ____
ROOT
ATOM      1  C   LIG A   1      -7.251   1.480 124.818  0.00  0.00    +0.130 C 
ATOM      2  C   LIG A   1      -8.293   2.240 123.911  0.00  0.00    +0.060 C 
ATOM      3  C   LIG A   1      -9.337   1.120 123.583  0.00  0.00    +0.005 C 
ATOM      4  C   LIG A   1     -10.718   1.472 124.151  0.00  0.00    +0.009 C 
ATOM      5  C   LIG A   1      -8.694  -0.254 124.045  0.00  0.00    +0.009 C 
ATOM      6  C   LIG A   1      -9.152  -0.707 125.472  0.00  0.00    +0.044 C 
ATOM      7  C   LIG A   1      -8.239  -0.189 126.609  0.00  0.00    +0.150 C 
ATOM      8  C   LIG A   1      -7.747   1.249 126.308  0.00  0.00    +0.178 C 
ATOM      9  C   LIG A   1      -7.184   0.093 124.122  0.00  0.00    +0.156 C 
ENDROOT
BRANCH   2  10
ATOM     10  C   LIG A   1      -7.861   2.959 122.609  0.00  0.00    -0.037 A 
ATOM     11  C   LIG A   1      -8.821   3.156 121.577  0.00  0.00    +0.008 A 
ATOM     12  C   LIG A   1      -8.496   3.796 120.370  0.00  0.00    +0.050 A 
ATOM     13  C   LIG A   1      -7.210   4.254 120.210  0.00  0.00    +0.166 A 
ATOM     14  O   LIG A   1      -6.707   4.896 119.123  0.00  0.00    -0.453 OA
ATOM     15  C   LIG A   1      -5.342   5.112 119.543  0.00  0.00    +0.466 C 
ATOM     16  O   LIG A   1      -5.066   4.624 120.869  0.00  0.00    -0.453 OA
ATOM     17  C   LIG A   1      -6.275   4.095 121.198  0.00  0.00    +0.167 A 
ATOM     18  C   LIG A   1      -6.570   3.465 122.388  0.00  0.00    +0.053 A 
ENDBRANCH   2  10
BRANCH   1  20
ATOM     19  C   LIG A   1      -5.255   1.891 126.114  0.00  0.00    +0.195 C 
ATOM     20  O   LIG A   1      -5.943   2.082 124.877  0.00  0.00    -0.371 OA
ENDBRANCH   1  20
BRANCH   7  21
ATOM     21  O   LIG A   1      -7.166  -1.141 126.733  0.00  0.00    -0.377 OA
ATOM     22  C   LIG A   1      -6.500  -1.191 127.986  0.00  0.00    +0.194 C 
ENDBRANCH   7  21
BRANCH   8  23
ATOM     23  O   LIG A   1      -8.742   2.197 126.711  0.00  0.00    -0.386 OA
ATOM     24  H   LIG A   1      -9.020   1.961 127.614  0.00  0.00    +0.210 HD
ENDBRANCH   8  23
BRANCH   9  25
ATOM     25  O   LIG A   1      -6.560   0.142 122.844  0.00  0.00    -0.388 OA
ATOM     26  H   LIG A   1      -6.984   0.892 122.385  0.00  0.00    +0.210 HD
ENDBRANCH   9  25
BRANCH   5  27
ATOM     27  C   LIG A   1      -8.966  -1.360 122.988  0.00  0.00    +0.036 C 
BRANCH  27  28
ATOM     28  C   LIG A   1      -8.685  -2.779 123.446  0.00  0.00    -0.034 C 
ATOM     29  C   LIG A   1      -9.628  -3.696 123.683  0.00  0.00    +0.004 C 
ENDBRANCH  27  28
ENDBRANCH   5  27
TORSDOF 7
ENDMDL
MODEL 3
REMARK VINA RESULT:      -7.4      6.085      8.935
REMARK  Name = NuBBE_1764
REMARK  10 active torsions:
REMARK  status: ('A' for Active; 'I' for Inactive)
REMARK    1  A    between atoms: C_1  and  O_2
REMARK    2  A    between atoms: O_2  and  C_3
REMARK    3  A    between atoms: C_4  and  C_6
REMARK    4  A    between atoms: C_15  and  C_17
REMARK    5  A    between atoms: C_18  and  C_19
REMARK    6  A    between atoms: C_19  and  C_20
REMARK    7  A    between atoms: C_23  and  O_25
REMARK    8  A    between atoms: O_25  and  C_26
REMARK    9  A    between atoms: C_27  and  O_29
REMARK   10  A    between atoms: C_30  and  O_32
REMARK                            x       y       z     vdW  Elec       q    Type
REMARK                         _______ _______ _______ _____ _____    ______ ____
ROOT
ATOM      1  C   LIG A   1      -7.990   4.724 129.293  0.00  0.00    +0.130 C 
ATOM      2  C   LIG A   1      -8.398   5.848 130.320  0.00  0.00    +0.060 C 
ATOM      3  C   LIG A   1      -8.284   5.109 131.696  0.00  0.00    +0.005 C 
ATOM      4  C   LIG A   1      -7.207   5.753 132.578  0.00  0.00    +0.009 C 
ATOM      5  C   LIG A   1      -8.124   3.564 131.373  0.00  0.00    +0.009 C 
ATOM      6  C   LIG A   1      -6.636   3.079 131.365  0.00  0.00    +0.044 C 
ATOM      7  C   LIG A   1      -5.960   3.181 129.977  0.00  0.00    +0.150 C 
ATOM      8  C   LIG A   1      -6.427   4.453 129.227  0.00  0.00    +0.178 C 
ATOM      9  C   LIG A   1      -8.660   3.470 129.920  0.00  0.00    +0.156 C 
ENDROOT
BRANCH   2  10
ATOM     10  C   LIG A   1      -9.761   6.577 130.223  0.00  0.00    -0.037 A 
ATOM     11  C   LIG A   1     -10.711   6.407 131.269  0.00  0.00    +0.008 A 
ATOM     12  C   LIG A   1     -11.967   7.036 131.243  0.00  0.00    +0.050 A 
ATOM     13  C   LIG A   1     -12.258   7.849 130.174  0.00  0.00    +0.166 A 
ATOM     14  O   LIG A   1     -13.411   8.540 129.971  0.00  0.00    -0.453 OA
ATOM     15  C   LIG A   1     -13.122   9.185 128.711  0.00  0.00    +0.466 C 
ATOM     16  O   LIG A   1     -11.806   8.891 128.204  0.00  0.00    -0.453 OA
ATOM     17  C   LIG A   1     -11.351   8.044 129.167  0.00  0.00    +0.167 A 
ATOM     18  C   LIG A   1     -10.115   7.433 129.168  0.00  0.00    +0.053 A 
ENDBRANCH   2  10
BRANCH   1  20
ATOM     19  C   LIG A   1      -7.738   4.208 126.947  0.00  0.00    +0.195 C 
ATOM     20  O   LIG A   1      -8.459   4.930 127.947  0.00  0.00    -0.371 OA
ENDBRANCH   1  20
BRANCH   7  21
ATOM     21  O   LIG A   1      -6.281   1.962 129.280  0.00  0.00    -0.377 OA
ATOM     22  C   LIG A   1      -5.868   0.749 129.892  0.00  0.00    +0.194 C 
ENDBRANCH   7  21
BRANCH   8  23
ATOM     23  O   LIG A   1      -5.654   5.580 129.655  0.00  0.00    -0.386 OA
ATOM     24  H   LIG A   1      -4.856   5.236 130.094  0.00  0.00    +0.210 HD
ENDBRANCH   8  23
BRANCH   9  25
ATOM     25  O   LIG A   1     -10.080   3.504 129.848  0.00  0.00    -0.388 OA
ATOM     26  H   LIG A   1     -10.315   2.845 129.168  0.00  0.00    +0.210 HD
ENDBRANCH   9  25
BRANCH   5  27
ATOM     27  C   LIG A   1      -8.987   2.717 132.348  0.00  0.00    +0.036 C 
BRANCH  27  28
ATOM     28  C   LIG A   1      -8.614   1.248 132.439  0.00  0.00    -0.034 C 
ATOM     29  C   LIG A   1      -9.171   0.282 131.702  0.00  0.00    +0.004 C 
ENDBRANCH  27  28
ENDBRANCH   5  27
TORSDOF 7
ENDMDL
MODEL 4
REMARK VINA RESULT:      -7.4      8.136      9.837
REMARK  Name = NuBBE_1764
REMARK  10 active torsions:
REMARK  status: ('A' for Active; 'I' for Inactive)
REMARK    1  A    between atoms: C_1  and  O_2
REMARK    2  A    between atoms: O_2  and  C_3
REMARK    3  A    between atoms: C_4  and  C_6
REMARK    4  A    between atoms: C_15  and  C_17
REMARK    5  A    between atoms: C_18  and  C_19
REMARK    6  A    between atoms: C_19  and  C_20
REMARK    7  A    between atoms: C_23  and  O_25
REMARK    8  A    between atoms: O_25  and  C_26
REMARK    9  A    between atoms: C_27  and  O_29
REMARK   10  A    between atoms: C_30  and  O_32
REMARK                            x       y       z     vdW  Elec       q    Type
REMARK                         _______ _______ _______ _____ _____    ______ ____
ROOT
ATOM      1  C   LIG A   1      -6.204   5.429 131.661  0.00  0.00    +0.130 C 
ATOM      2  C   LIG A   1      -7.499   5.938 132.402  0.00  0.00    +0.060 C 
ATOM      3  C   LIG A   1      -7.851   4.732 133.337  0.00  0.00    +0.005 C 
ATOM      4  C   LIG A   1      -7.766   5.138 134.814  0.00  0.00    +0.009 C 
ATOM      5  C   LIG A   1      -6.950   3.514 132.869  0.00  0.00    +0.009 C 
ATOM      6  C   LIG A   1      -5.638   3.351 133.708  0.00  0.00    +0.044 C 
ATOM      7  C   LIG A   1      -4.434   4.134 133.131  0.00  0.00    +0.150 C 
ATOM      8  C   LIG A   1      -4.890   5.495 132.549  0.00  0.00    +0.178 C 
ATOM      9  C   LIG A   1      -6.544   3.931 131.431  0.00  0.00    +0.156 C 
ENDROOT
BRANCH   2  10
ATOM     10  C   LIG A   1      -8.758   6.384 131.618  0.00  0.00    -0.037 A 
ATOM     11  C   LIG A   1     -10.043   6.029 132.114  0.00  0.00    +0.008 A 
ATOM     12  C   LIG A   1     -11.225   6.398 131.452  0.00  0.00    +0.050 A 
ATOM     13  C   LIG A   1     -11.113   7.140 130.300  0.00  0.00    +0.166 A 
ATOM     14  O   LIG A   1     -12.133   7.591 129.524  0.00  0.00    -0.453 OA
ATOM     15  C   LIG A   1     -11.401   8.283 128.488  0.00  0.00    +0.466 C 
ATOM     16  O   LIG A   1      -9.973   8.254 128.679  0.00  0.00    -0.453 OA
ATOM     17  C   LIG A   1      -9.887   7.512 129.815  0.00  0.00    +0.167 A 
ATOM     18  C   LIG A   1      -8.714   7.156 130.446  0.00  0.00    +0.053 A 
ENDBRANCH   2  10
BRANCH   1  20
ATOM     19  C   LIG A   1      -4.543   6.095 130.039  0.00  0.00    +0.195 C 
ATOM     20  O   LIG A   1      -5.923   6.084 130.409  0.00  0.00    -0.371 OA
ENDBRANCH   1  20
BRANCH   7  21
ATOM     21  O   LIG A   1      -3.824   3.274 132.150  0.00  0.00    -0.377 OA
ATOM     22  C   LIG A   1      -3.523   1.949 132.563  0.00  0.00    +0.194 C 
ENDBRANCH   7  21
BRANCH   8  23
ATOM     23  O   LIG A   1      -4.983   6.465 133.600  0.00  0.00    -0.386 OA
ATOM     24  H   LIG A   1      -5.696   6.180 134.198  0.00  0.00    +0.210 HD
ENDBRANCH   8  23
BRANCH   9  25
ATOM     25  O   LIG A   1      -7.584   3.736 130.482  0.00  0.00    -0.388 OA
ATOM     26  H   LIG A   1      -7.167   3.245 129.748  0.00  0.00    +0.210 HD
ENDBRANCH   9  25
BRANCH   5  27
ATOM     27  C   LIG A   1      -7.780   2.200 132.862  0.00  0.00    +0.036 C 
BRANCH  27  28
ATOM     28  C   LIG A   1      -9.287   2.383 132.882  0.00  0.00    -0.034 C 
ATOM     29  C   LIG A   1     -10.117   1.903 131.950  0.00  0.00    +0.004 C 
ENDBRANCH  27  28
ENDBRANCH   5  27
TORSDOF 7
ENDMDL
MODEL 5
REMARK VINA RESULT:      -7.4      8.038     10.260
REMARK  Name = NuBBE_1764
REMARK  10 active torsions:
REMARK  status: ('A' for Active; 'I' for Inactive)
REMARK    1  A    between atoms: C_1  and  O_2
REMARK    2  A    between atoms: O_2  and  C_3
REMARK    3  A    between atoms: C_4  and  C_6
REMARK    4  A    between atoms: C_15  and  C_17
REMARK    5  A    between atoms: C_18  and  C_19
REMARK    6  A    between atoms: C_19  and  C_20
REMARK    7  A    between atoms: C_23  and  O_25
REMARK    8  A    between atoms: O_25  and  C_26
REMARK    9  A    between atoms: C_27  and  O_29
REMARK   10  A    between atoms: C_30  and  O_32
REMARK                            x       y       z     vdW  Elec       q    Type
REMARK                         _______ _______ _______ _____ _____    ______ ____
ROOT
ATOM      1  C   LIG A   1      -8.369   3.169 132.105  0.00  0.00    +0.130 C 
ATOM      2  C   LIG A   1      -8.396   4.667 131.613  0.00  0.00    +0.060 C 
ATOM      3  C   LIG A   1      -7.686   5.422 132.786  0.00  0.00    +0.005 C 
ATOM      4  C   LIG A   1      -6.387   6.084 132.308  0.00  0.00    +0.009 C 
ATOM      5  C   LIG A   1      -7.573   4.394 133.989  0.00  0.00    +0.009 C 
ATOM      6  C   LIG A   1      -6.188   3.668 134.060  0.00  0.00    +0.044 C 
ATOM      7  C   LIG A   1      -6.142   2.345 133.258  0.00  0.00    +0.150 C 
ATOM      8  C   LIG A   1      -6.955   2.468 131.945  0.00  0.00    +0.178 C 
ATOM      9  C   LIG A   1      -8.645   3.334 133.625  0.00  0.00    +0.156 C 
ENDROOT
BRANCH   2  10
ATOM     10  C   LIG A   1      -9.725   5.377 131.254  0.00  0.00    -0.037 A 
ATOM     11  C   LIG A   1     -10.419   6.096 132.267  0.00  0.00    +0.008 A 
ATOM     12  C   LIG A   1     -11.630   6.760 132.012  0.00  0.00    +0.050 A 
ATOM     13  C   LIG A   1     -12.132   6.715 130.733  0.00  0.00    +0.166 A 
ATOM     14  O   LIG A   1     -13.280   7.293 130.292  0.00  0.00    -0.453 OA
ATOM     15  C   LIG A   1     -13.265   6.899 128.902  0.00  0.00    +0.466 C 
ATOM     16  O   LIG A   1     -12.107   6.125 128.538  0.00  0.00    -0.453 OA
ATOM     17  C   LIG A   1     -11.470   6.048 129.737  0.00  0.00    +0.167 A 
ATOM     18  C   LIG A   1     -10.284   5.384 129.966  0.00  0.00    +0.053 A 
ENDBRANCH   2  10
BRANCH   1  20
ATOM     19  C   LIG A   1      -9.258   0.936 131.869  0.00  0.00    +0.195 C 
ATOM     20  O   LIG A   1      -9.357   2.312 131.500  0.00  0.00    -0.371 OA
ENDBRANCH   1  20
BRANCH   7  21
ATOM     21  O   LIG A   1      -6.640   1.320 134.139  0.00  0.00    -0.377 OA
ATOM     22  C   LIG A   1      -6.212  -0.009 133.877  0.00  0.00    +0.194 C 
ENDBRANCH   7  21
BRANCH   8  23
ATOM     23  O   LIG A   1      -6.148   3.078 130.931  0.00  0.00    -0.386 OA
ATOM     24  H   LIG A   1      -6.739   3.612 130.371  0.00  0.00    +0.210 HD
ENDBRANCH   8  23
BRANCH   9  25
ATOM     25  O   LIG A   1      -9.971   3.766 133.905  0.00  0.00    -0.388 OA
ATOM     26  H   LIG A   1      -9.976   4.719 133.693  0.00  0.00    +0.210 HD
ENDBRANCH   9  25
BRANCH   5  27
ATOM     27  C   LIG A   1      -7.909   5.098 135.333  0.00  0.00    +0.036 C 
BRANCH  27  28
ATOM     28  C   LIG A   1      -6.718   5.402 136.224  0.00  0.00    -0.034 C 
ATOM     29  C   LIG A   1      -6.304   6.634 136.536  0.00  0.00    +0.004 C 
ENDBRANCH  27  28
ENDBRANCH   5  27
TORSDOF 7
ENDMDL
MODEL 6
REMARK VINA RESULT:      -7.3      2.356      5.351
REMARK  Name = NuBBE_1764
REMARK  10 active torsions:
REMARK  status: ('A' for Active; 'I' for Inactive)
REMARK    1  A    between atoms: C_1  and  O_2
REMARK    2  A    between atoms: O_2  and  C_3
REMARK    3  A    between atoms: C_4  and  C_6
REMARK    4  A    between atoms: C_15  and  C_17
REMARK    5  A    between atoms: C_18  and  C_19
REMARK    6  A    between atoms: C_19  and  C_20
REMARK    7  A    between atoms: C_23  and  O_25
REMARK    8  A    between atoms: O_25  and  C_26
REMARK    9  A    between atoms: C_27  and  O_29
REMARK   10  A    between atoms: C_30  and  O_32
REMARK                            x       y       z     vdW  Elec       q    Type
REMARK                         _______ _______ _______ _____ _____    ______ ____
ROOT
ATOM      1  C   LIG A   1      -7.558  -0.185 124.732  0.00  0.00    +0.130 C 
ATOM      2  C   LIG A   1      -6.386  -0.964 125.444  0.00  0.00    +0.060 C 
ATOM      3  C   LIG A   1      -6.968  -2.413 125.569  0.00  0.00    +0.005 C 
ATOM      4  C   LIG A   1      -6.129  -3.414 124.764  0.00  0.00    +0.009 C 
ATOM      5  C   LIG A   1      -8.511  -2.316 125.216  0.00  0.00    +0.009 C 
ATOM      6  C   LIG A   1      -8.835  -2.673 123.727  0.00  0.00    +0.044 C 
ATOM      7  C   LIG A   1      -8.802  -1.451 122.778  0.00  0.00    +0.150 C 
ATOM      8  C   LIG A   1      -7.667  -0.474 123.175  0.00  0.00    +0.178 C 
ATOM      9  C   LIG A   1      -8.806  -0.806 125.417  0.00  0.00    +0.156 C 
ENDROOT
BRANCH   2  10
ATOM     10  C   LIG A   1      -5.818  -0.503 126.809  0.00  0.00    -0.037 A 
ATOM     11  C   LIG A   1      -5.620  -1.467 127.836  0.00  0.00    +0.008 A 
ATOM     12  C   LIG A   1      -5.113  -1.117 129.098  0.00  0.00    +0.050 A 
ATOM     13  C   LIG A   1      -4.788   0.200 129.319  0.00  0.00    +0.166 A 
ATOM     14  O   LIG A   1      -4.286   0.731 130.465  0.00  0.00    -0.453 OA
ATOM     15  C   LIG A   1      -4.161   2.120 130.088  0.00  0.00    +0.466 C 
ATOM     16  O   LIG A   1      -4.562   2.385 128.731  0.00  0.00    -0.453 OA
ATOM     17  C   LIG A   1      -4.950   1.142 128.337  0.00  0.00    +0.167 A 
ATOM     18  C   LIG A   1      -5.452   0.822 127.094  0.00  0.00    +0.053 A 
ENDBRANCH   2  10
BRANCH   1  20
ATOM     19  C   LIG A   1      -7.076   1.982 123.783  0.00  0.00    +0.195 C 
ATOM     20  O   LIG A   1      -7.537   1.244 124.915  0.00  0.00    -0.371 OA
ENDBRANCH   1  20
BRANCH   7  21
ATOM     21  O   LIG A   1     -10.111  -0.854 122.839  0.00  0.00    -0.377 OA
ATOM     22  C   LIG A   1     -10.227   0.480 122.367  0.00  0.00    +0.194 C 
ENDBRANCH   7  21
BRANCH   8  23
ATOM     23  O   LIG A   1      -6.427  -0.914 122.608  0.00  0.00    -0.386 OA
ATOM     24  H   LIG A   1      -6.239  -1.799 122.970  0.00  0.00    +0.210 HD
ENDBRANCH   8  23
BRANCH   9  25
ATOM     25  O   LIG A   1      -8.929  -0.441 126.785  0.00  0.00    -0.388 OA
ATOM     26  H   LIG A   1      -9.870  -0.208 126.901  0.00  0.00    +0.210 HD
ENDBRANCH   9  25
BRANCH   5  27
ATOM     27  C   LIG A   1      -9.344  -3.188 126.197  0.00  0.00    +0.036 C 
BRANCH  27  28
ATOM     28  C   LIG A   1      -8.557  -3.829 127.326  0.00  0.00    -0.034 C 
ATOM     29  C   LIG A   1      -8.675  -3.490 128.614  0.00  0.00    +0.004 C 
ENDBRANCH  27  28
ENDBRANCH   5  27
TORSDOF 7
ENDMDL
MODEL 7
REMARK VINA RESULT:      -7.0      2.734      3.643
REMARK  Name = NuBBE_1764
REMARK  10 active torsions:
REMARK  status: ('A' for Active; 'I' for Inactive)
REMARK    1  A    between atoms: C_1  and  O_2
REMARK    2  A    between atoms: O_2  and  C_3
REMARK    3  A    between atoms: C_4  and  C_6
REMARK    4  A    between atoms: C_15  and  C_17
REMARK    5  A    between atoms: C_18  and  C_19
REMARK    6  A    between atoms: C_19  and  C_20
REMARK    7  A    between atoms: C_23  and  O_25
REMARK    8  A    between atoms: O_25  and  C_26
REMARK    9  A    between atoms: C_27  and  O_29
REMARK   10  A    between atoms: C_30  and  O_32
REMARK                            x       y       z     vdW  Elec       q    Type
REMARK                         _______ _______ _______ _____ _____    ______ ____
ROOT
ATOM      1  C   LIG A   1      -7.405   0.968 126.949  0.00  0.00    +0.130 C 
ATOM      2  C   LIG A   1      -6.681   1.982 125.982  0.00  0.00    +0.060 C 
ATOM      3  C   LIG A   1      -6.244   1.063 124.792  0.00  0.00    +0.005 C 
ATOM      4  C   LIG A   1      -6.932   1.487 123.489  0.00  0.00    +0.009 C 
ATOM      5  C   LIG A   1      -6.458  -0.435 125.269  0.00  0.00    +0.009 C 
ATOM      6  C   LIG A   1      -7.822  -1.047 124.805  0.00  0.00    +0.044 C 
ATOM      7  C   LIG A   1      -8.974  -0.828 125.816  0.00  0.00    +0.150 C 
ATOM      8  C   LIG A   1      -8.867   0.568 126.479  0.00  0.00    +0.178 C 
ATOM      9  C   LIG A   1      -6.505  -0.291 126.813  0.00  0.00    +0.156 C 
ENDROOT
BRANCH   2  10
ATOM     10  C   LIG A   1      -5.481   2.838 126.459  0.00  0.00    -0.037 A 
ATOM     11  C   LIG A   1      -4.160   2.366 126.223  0.00  0.00    +0.008 A 
ATOM     12  C   LIG A   1      -3.027   3.089 126.630  0.00  0.00    +0.050 A 
ATOM     13  C   LIG A   1      -3.225   4.295 127.259  0.00  0.00    +0.166 A 
ATOM     14  O   LIG A   1      -2.263   5.136 127.722  0.00  0.00    -0.453 OA
ATOM     15  C   LIG A   1      -3.072   6.201 128.267  0.00  0.00    +0.466 C 
ATOM     16  O   LIG A   1      -4.487   5.991 128.096  0.00  0.00    -0.453 OA
ATOM     17  C   LIG A   1      -4.487   4.780 127.477  0.00  0.00    +0.167 A 
ATOM     18  C   LIG A   1      -5.613   4.084 127.091  0.00  0.00    +0.053 A 
ENDBRANCH   2  10
BRANCH   1  20
ATOM     19  C   LIG A   1      -7.887   0.368 129.238  0.00  0.00    +0.195 C 
ATOM     20  O   LIG A   1      -7.484   1.389 128.324  0.00  0.00    -0.371 OA
ENDBRANCH   1  20
BRANCH   7  21
ATOM     21  O   LIG A   1      -8.895  -1.912 126.761  0.00  0.00    -0.377 OA
ATOM     22  C   LIG A   1      -9.001  -3.226 126.235  0.00  0.00    +0.194 C 
ENDBRANCH   7  21
BRANCH   8  23
ATOM     23  O   LIG A   1      -9.463   1.556 125.629  0.00  0.00    -0.386 OA
ATOM     24  H   LIG A   1      -9.516   1.176 124.734  0.00  0.00    +0.210 HD
ENDBRANCH   8  23
BRANCH   9  25
ATOM     25  O   LIG A   1      -5.218  -0.119 127.394  0.00  0.00    -0.388 OA
ATOM     26  H   LIG A   1      -4.773  -0.981 127.282  0.00  0.00    +0.210 HD
ENDBRANCH   9  25
BRANCH   5  27
ATOM     27  C   LIG A   1      -5.262  -1.320 124.821  0.00  0.00    +0.036 C 
BRANCH  27  28
ATOM     28  C   LIG A   1      -5.636  -2.668 124.231  0.00  0.00    -0.034 C 
ATOM     29  C   LIG A   1      -4.781  -3.477 123.597  0.00  0.00    +0.004 C 
ENDBRANCH  27  28
ENDBRANCH   5  27
TORSDOF 7
ENDMDL
MODEL 8
REMARK VINA RESULT:      -6.9      2.508      6.941
REMARK  Name = NuBBE_1764
REMARK  10 active torsions:
REMARK  status: ('A' for Active; 'I' for Inactive)
REMARK    1  A    between atoms: C_1  and  O_2
REMARK    2  A    between atoms: O_2  and  C_3
REMARK    3  A    between atoms: C_4  and  C_6
REMARK    4  A    between atoms: C_15  and  C_17
REMARK    5  A    between atoms: C_18  and  C_19
REMARK    6  A    between atoms: C_19  and  C_20
REMARK    7  A    between atoms: C_23  and  O_25
REMARK    8  A    between atoms: O_25  and  C_26
REMARK    9  A    between atoms: C_27  and  O_29
REMARK   10  A    between atoms: C_30  and  O_32
REMARK                            x       y       z     vdW  Elec       q    Type
REMARK                         _______ _______ _______ _____ _____    ______ ____
ROOT
ATOM      1  C   LIG A   1      -7.014   2.060 125.318  0.00  0.00    +0.130 C 
ATOM      2  C   LIG A   1      -7.631   1.843 126.753  0.00  0.00    +0.060 C 
ATOM      3  C   LIG A   1      -6.727   2.752 127.652  0.00  0.00    +0.005 C 
ATOM      4  C   LIG A   1      -7.548   3.874 128.300  0.00  0.00    +0.009 C 
ATOM      5  C   LIG A   1      -5.486   3.184 126.764  0.00  0.00    +0.009 C 
ATOM      6  C   LIG A   1      -5.658   4.588 126.094  0.00  0.00    +0.044 C 
ATOM      7  C   LIG A   1      -6.317   4.529 124.695  0.00  0.00    +0.150 C 
ATOM      8  C   LIG A   1      -7.419   3.441 124.649  0.00  0.00    +0.178 C 
ATOM      9  C   LIG A   1      -5.494   2.117 125.637  0.00  0.00    +0.156 C 
ENDROOT
BRANCH   2  10
ATOM     10  C   LIG A   1      -7.749   0.430 127.378  0.00  0.00    -0.037 A 
ATOM     11  C   LIG A   1      -7.309   0.228 128.715  0.00  0.00    +0.008 A 
ATOM     12  C   LIG A   1      -7.383  -1.027 129.342  0.00  0.00    +0.050 A 
ATOM     13  C   LIG A   1      -7.918  -2.072 128.628  0.00  0.00    +0.166 A 
ATOM     14  O   LIG A   1      -8.076  -3.352 129.059  0.00  0.00    -0.453 OA
ATOM     15  C   LIG A   1      -8.670  -3.960 127.891  0.00  0.00    +0.466 C 
ATOM     16  O   LIG A   1      -8.878  -3.035 126.806  0.00  0.00    -0.453 OA
ATOM     17  C   LIG A   1      -8.368  -1.896 127.347  0.00  0.00    +0.167 A 
ATOM     18  C   LIG A   1      -8.299  -0.675 126.710  0.00  0.00    +0.053 A 
ENDBRANCH   2  10
BRANCH   1  20
ATOM     19  C   LIG A   1      -8.016   1.434 123.212  0.00  0.00    +0.195 C 
ATOM     20  O   LIG A   1      -7.294   1.012 124.370  0.00  0.00    -0.371 OA
ENDBRANCH   1  20
BRANCH   7  21
ATOM     21  O   LIG A   1      -5.250   4.295 123.755  0.00  0.00    -0.377 OA
ATOM     22  C   LIG A   1      -5.622   4.147 122.392  0.00  0.00    +0.194 C 
ENDBRANCH   7  21
BRANCH   8  23
ATOM     23  O   LIG A   1      -8.643   3.969 125.173  0.00  0.00    -0.386 OA
ATOM     24  H   LIG A   1      -9.373   3.466 124.770  0.00  0.00    +0.210 HD
ENDBRANCH   8  23
BRANCH   9  25
ATOM     25  O   LIG A   1      -4.966   0.865 126.054  0.00  0.00    -0.388 OA
ATOM     26  H   LIG A   1      -4.824   0.363 125.229  0.00  0.00    +0.210 HD
ENDBRANCH   9  25
BRANCH   5  27
ATOM     27  C   LIG A   1      -4.176   3.114 127.597  0.00  0.00    +0.036 C 
BRANCH  27  28
ATOM     28  C   LIG A   1      -2.961   3.755 126.952  0.00  0.00    -0.034 C 
ATOM     29  C   LIG A   1      -1.860   3.088 126.588  0.00  0.00    +0.004 C 
ENDBRANCH  27  28
ENDBRANCH   5  27
TORSDOF 7
ENDMDL
MODEL 9
REMARK VINA RESULT:      -6.8      5.848      8.745
REMARK  Name = NuBBE_1764
REMARK  10 active torsions:
REMARK  status: ('A' for Active; 'I' for Inactive)
REMARK    1  A    between atoms: C_1  and  O_2
REMARK    2  A    between atoms: O_2  and  C_3
REMARK    3  A    between atoms: C_4  and  C_6
REMARK    4  A    between atoms: C_15  and  C_17
REMARK    5  A    between atoms: C_18  and  C_19
REMARK    6  A    between atoms: C_19  and  C_20
REMARK    7  A    between atoms: C_23  and  O_25
REMARK    8  A    between atoms: O_25  and  C_26
REMARK    9  A    between atoms: C_27  and  O_29
REMARK   10  A    between atoms: C_30  and  O_32
REMARK                            x       y       z     vdW  Elec       q    Type
REMARK                         _______ _______ _______ _____ _____    ______ ____
ROOT
ATOM      1  C   LIG A   1      -9.517   5.555 129.710  0.00  0.00    +0.130 C 
ATOM      2  C   LIG A   1      -8.537   4.323 129.800  0.00  0.00    +0.060 C 
ATOM      3  C   LIG A   1      -8.199   4.269 131.328  0.00  0.00    +0.005 C 
ATOM      4  C   LIG A   1      -8.691   2.957 131.954  0.00  0.00    +0.009 C 
ATOM      5  C   LIG A   1      -8.738   5.619 131.963  0.00  0.00    +0.009 C 
ATOM      6  C   LIG A   1     -10.156   5.481 132.611  0.00  0.00    +0.044 C 
ATOM      7  C   LIG A   1     -11.316   5.776 131.630  0.00  0.00    +0.150 C 
ATOM      8  C   LIG A   1     -10.989   5.242 130.213  0.00  0.00    +0.178 C 
ATOM      9  C   LIG A   1      -8.872   6.541 130.723  0.00  0.00    +0.156 C 
ENDROOT
BRANCH   2  10
ATOM     10  C   LIG A   1      -7.233   4.263 128.967  0.00  0.00    -0.037 A 
ATOM     11  C   LIG A   1      -5.982   4.378 129.634  0.00  0.00    +0.008 A 
ATOM     12  C   LIG A   1      -4.761   4.336 128.941  0.00  0.00    +0.050 A 
ATOM     13  C   LIG A   1      -4.801   4.160 127.578  0.00  0.00    +0.166 A 
ATOM     14  O   LIG A   1      -3.734   4.091 126.738  0.00  0.00    -0.453 OA
ATOM     15  C   LIG A   1      -4.400   3.908 125.470  0.00  0.00    +0.466 C 
ATOM     16  O   LIG A   1      -5.835   3.844 125.579  0.00  0.00    -0.453 OA
ATOM     17  C   LIG A   1      -5.993   4.025 126.917  0.00  0.00    +0.167 A 
ATOM     18  C   LIG A   1      -7.202   4.070 127.577  0.00  0.00    +0.053 A 
ENDBRANCH   2  10
BRANCH   1  20
ATOM     19  C   LIG A   1     -10.604   7.186 128.298  0.00  0.00    +0.195 C 
ATOM     20  O   LIG A   1      -9.616   6.160 128.406  0.00  0.00    -0.371 OA
ENDBRANCH   1  20
BRANCH   7  21
ATOM     21  O   LIG A   1     -11.522   7.201 131.664  0.00  0.00    -0.377 OA
ATOM     22  C   LIG A   1     -12.827   7.664 131.347  0.00  0.00    +0.194 C 
ENDBRANCH   7  21
BRANCH   8  23
ATOM     23  O   LIG A   1     -11.314   3.848 130.134  0.00  0.00    -0.386 OA
ATOM     24  H   LIG A   1     -10.498   3.373 129.894  0.00  0.00    +0.210 HD
ENDBRANCH   8  23
BRANCH   9  25
ATOM     25  O   LIG A   1      -7.624   7.058 130.277  0.00  0.00    -0.388 OA
ATOM     26  H   LIG A   1      -7.012   6.919 131.025  0.00  0.00    +0.210 HD
ENDBRANCH   9  25
BRANCH   5  27
ATOM     27  C   LIG A   1      -7.708   6.186 132.979  0.00  0.00    +0.036 C 
BRANCH  27  28
ATOM     28  C   LIG A   1      -6.381   5.451 133.039  0.00  0.00    -0.034 C 
ATOM     29  C   LIG A   1      -5.607   5.379 134.126  0.00  0.00    +0.004 C 
ENDBRANCH  27  28
ENDBRANCH   5  27
TORSDOF 7
ENDMDL
