MODEL 1
REMARK VINA RESULT:      -5.4      0.000      0.000
REMARK  Name = NuBBE_1156
REMARK  15 active torsions:
REMARK  status: ('A' for Active; 'I' for Inactive)
REMARK    1  A    between atoms: C_2  and  O_3
REMARK    2  A    between atoms: C_2  and  C_5
REMARK    3  A    between atoms: O_3  and  C_4
REMARK    4  A    between atoms: C_5  and  C_6
REMARK    5  A    between atoms: C_6  and  C_7
REMARK    6  A    between atoms: C_7  and  C_8
REMARK    7  A    between atoms: C_8  and  C_9
REMARK    8  A    between atoms: C_9  and  C_10
REMARK    9  A    between atoms: C_10  and  C_11
REMARK   10  A    between atoms: C_11  and  C_12
REMARK   11  A    between atoms: C_12  and  C_13
REMARK   12  A    between atoms: C_13  and  C_14
REMARK   13  A    between atoms: C_14  and  C_15
REMARK   14  A    between atoms: C_15  and  C_16
REMARK   15  A    between atoms: C_16  and  C_17
REMARK                            x       y       z     vdW  Elec       q    Type
REMARK                         _______ _______ _______ _____ _____    ______ ____
ROOT
ATOM      1  C   LIG A   1      -7.859  -3.532 124.200  0.00  0.00    -0.000 C 
ENDROOT
BRANCH   1   2
ATOM      2  C   LIG A   1      -9.168  -2.816 124.547  0.00  0.00    -0.000 C 
BRANCH   2   3
ATOM      3  C   LIG A   1      -9.621  -2.978 126.003  0.00  0.00    -0.000 C 
BRANCH   3   4
ATOM      4  C   LIG A   1      -8.616  -3.779 126.847  0.00  0.00    +0.000 C 
BRANCH   4   5
ATOM      5  C   LIG A   1      -8.722  -3.503 128.354  0.00  0.00    +0.000 C 
BRANCH   5   6
ATOM      6  C   LIG A   1      -7.496  -2.810 128.958  0.00  0.00    +0.011 C 
BRANCH   6   7
ATOM      7  C   LIG A   1      -7.074  -3.413 130.299  0.00  0.00    +0.120 C 
BRANCH   7   9
ATOM      8  O   LIG A   1      -5.578  -5.316 130.755  0.00  0.00    -0.251 OA
ATOM      9  C   LIG A   1      -5.794  -4.225 130.228  0.00  0.00    +0.307 C 
BRANCH   9  10
ATOM     10  O   LIG A   1      -4.940  -3.540 129.403  0.00  0.00    -0.468 OA
ATOM     11  C   LIG A   1      -3.764  -3.030 130.034  0.00  0.00    +0.280 C 
ENDBRANCH   9  10
ENDBRANCH   7   9
ENDBRANCH   6   7
ENDBRANCH   5   6
ENDBRANCH   4   5
ENDBRANCH   3   4
ENDBRANCH   2   3
ENDBRANCH   1   2
BRANCH   1  12
ATOM     12  C   LIG A   1      -6.758  -2.640 123.605  0.00  0.00    -0.000 C 
BRANCH  12  13
ATOM     13  C   LIG A   1      -5.428  -2.734 124.368  0.00  0.00    +0.000 C 
BRANCH  13  14
ATOM     14  C   LIG A   1      -5.563  -2.305 125.831  0.00  0.00    +0.000 C 
BRANCH  14  15
ATOM     15  C   LIG A   1      -5.541  -0.777 126.027  0.00  0.00    +0.005 C 
BRANCH  15  16
ATOM     16  C   LIG A   1      -6.847  -0.133 126.529  0.00  0.00    +0.035 C 
BRANCH  16  17
ATOM     17  C   LIG A   1      -7.759   0.471 125.484  0.00  0.00    -0.047 A 
ATOM     18  C   LIG A   1      -7.232   0.888 124.251  0.00  0.00    +0.003 A 
ATOM     19  C   LIG A   1      -8.058   1.444 123.270  0.00  0.00    +0.000 A 
ATOM     20  C   LIG A   1      -9.422   1.594 123.508  0.00  0.00    +0.000 A 
ATOM     21  C   LIG A   1      -9.951   1.223 124.740  0.00  0.00    +0.000 A 
ATOM     22  C   LIG A   1      -9.122   0.688 125.728  0.00  0.00    +0.003 A 
ENDBRANCH  16  17
ENDBRANCH  15  16
ENDBRANCH  14  15
ENDBRANCH  13  14
ENDBRANCH  12  13
ENDBRANCH   1  12
TORSDOF 14
ENDMDL
MODEL 2
REMARK VINA RESULT:      -5.2      2.723      6.823
REMARK  Name = NuBBE_1156
REMARK  15 active torsions:
REMARK  status: ('A' for Active; 'I' for Inactive)
REMARK    1  A    between atoms: C_2  and  O_3
REMARK    2  A    between atoms: C_2  and  C_5
REMARK    3  A    between atoms: O_3  and  C_4
REMARK    4  A    between atoms: C_5  and  C_6
REMARK    5  A    between atoms: C_6  and  C_7
REMARK    6  A    between atoms: C_7  and  C_8
REMARK    7  A    between atoms: C_8  and  C_9
REMARK    8  A    between atoms: C_9  and  C_10
REMARK    9  A    between atoms: C_10  and  C_11
REMARK   10  A    between atoms: C_11  and  C_12
REMARK   11  A    between atoms: C_12  and  C_13
REMARK   12  A    between atoms: C_13  and  C_14
REMARK   13  A    between atoms: C_14  and  C_15
REMARK   14  A    between atoms: C_15  and  C_16
REMARK   15  A    between atoms: C_16  and  C_17
REMARK                            x       y       z     vdW  Elec       q    Type
REMARK                         _______ _______ _______ _____ _____    ______ ____
ROOT
ATOM      1  C   LIG A   1      -8.948  -3.110 123.941  0.00  0.00    -0.000 C 
ENDROOT
BRANCH   1   2
ATOM      2  C   LIG A   1      -7.946  -2.059 123.455  0.00  0.00    -0.000 C 
BRANCH   2   3
ATOM      3  C   LIG A   1      -6.478  -2.494 123.518  0.00  0.00    -0.000 C 
BRANCH   3   4
ATOM      4  C   LIG A   1      -5.636  -1.598 124.441  0.00  0.00    +0.000 C 
BRANCH   4   5
ATOM      5  C   LIG A   1      -6.265  -1.379 125.825  0.00  0.00    +0.000 C 
BRANCH   5   6
ATOM      6  C   LIG A   1      -6.720   0.059 126.093  0.00  0.00    +0.011 C 
BRANCH   6   7
ATOM      7  C   LIG A   1      -8.066   0.131 126.816  0.00  0.00    +0.120 C 
BRANCH   7   9
ATOM      8  O   LIG A   1     -10.138   0.057 125.486  0.00  0.00    -0.251 OA
ATOM      9  C   LIG A   1      -9.191   0.683 125.960  0.00  0.00    +0.307 C 
BRANCH   9  10
ATOM     10  O   LIG A   1      -8.988   2.037 125.871  0.00  0.00    -0.468 OA
ATOM     11  C   LIG A   1      -9.003   2.567 124.545  0.00  0.00    +0.280 C 
ENDBRANCH   9  10
ENDBRANCH   7   9
ENDBRANCH   6   7
ENDBRANCH   5   6
ENDBRANCH   4   5
ENDBRANCH   3   4
ENDBRANCH   2   3
ENDBRANCH   1   2
BRANCH   1  12
ATOM     12  C   LIG A   1      -8.577  -3.817 125.253  0.00  0.00    -0.000 C 
BRANCH  12  13
ATOM     13  C   LIG A   1      -9.345  -3.275 126.468  0.00  0.00    +0.000 C 
BRANCH  13  14
ATOM     14  C   LIG A   1      -8.981  -4.006 127.763  0.00  0.00    +0.000 C 
BRANCH  14  15
ATOM     15  C   LIG A   1      -8.393  -3.081 128.845  0.00  0.00    +0.005 C 
BRANCH  15  16
ATOM     16  C   LIG A   1      -6.891  -3.245 129.143  0.00  0.00    +0.035 C 
BRANCH  16  17
ATOM     17  C   LIG A   1      -6.514  -3.702 130.536  0.00  0.00    -0.047 A 
ATOM     18  C   LIG A   1      -7.058  -3.053 131.656  0.00  0.00    +0.003 A 
ATOM     19  C   LIG A   1      -6.727  -3.463 132.951  0.00  0.00    +0.000 A 
ATOM     20  C   LIG A   1      -5.847  -4.525 133.144  0.00  0.00    +0.000 A 
ATOM     21  C   LIG A   1      -5.269  -5.150 132.044  0.00  0.00    +0.000 A 
ATOM     22  C   LIG A   1      -5.583  -4.727 130.751  0.00  0.00    +0.003 A 
ENDBRANCH  16  17
ENDBRANCH  15  16
ENDBRANCH  14  15
ENDBRANCH  13  14
ENDBRANCH  12  13
ENDBRANCH   1  12
TORSDOF 14
ENDMDL
MODEL 3
REMARK VINA RESULT:      -5.2      2.599      4.418
REMARK  Name = NuBBE_1156
REMARK  15 active torsions:
REMARK  status: ('A' for Active; 'I' for Inactive)
REMARK    1  A    between atoms: C_2  and  O_3
REMARK    2  A    between atoms: C_2  and  C_5
REMARK    3  A    between atoms: O_3  and  C_4
REMARK    4  A    between atoms: C_5  and  C_6
REMARK    5  A    between atoms: C_6  and  C_7
REMARK    6  A    between atoms: C_7  and  C_8
REMARK    7  A    between atoms: C_8  and  C_9
REMARK    8  A    between atoms: C_9  and  C_10
REMARK    9  A    between atoms: C_10  and  C_11
REMARK   10  A    between atoms: C_11  and  C_12
REMARK   11  A    between atoms: C_12  and  C_13
REMARK   12  A    between atoms: C_13  and  C_14
REMARK   13  A    between atoms: C_14  and  C_15
REMARK   14  A    between atoms: C_15  and  C_16
REMARK   15  A    between atoms: C_16  and  C_17
REMARK                            x       y       z     vdW  Elec       q    Type
REMARK                         _______ _______ _______ _____ _____    ______ ____
ROOT
ATOM      1  C   LIG A   1      -6.360  -0.942 124.061  0.00  0.00    -0.000 C 
ENDROOT
BRANCH   1   2
ATOM      2  C   LIG A   1      -7.094  -1.809 123.033  0.00  0.00    -0.000 C 
BRANCH   2   3
ATOM      3  C   LIG A   1      -8.621  -1.683 123.061  0.00  0.00    -0.000 C 
BRANCH   3   4
ATOM      4  C   LIG A   1      -9.319  -3.030 123.309  0.00  0.00    +0.000 C 
BRANCH   4   5
ATOM      5  C   LIG A   1      -8.919  -3.694 124.636  0.00  0.00    +0.000 C 
BRANCH   5   6
ATOM      6  C   LIG A   1      -9.086  -2.799 125.868  0.00  0.00    +0.011 C 
BRANCH   6   7
ATOM      7  C   LIG A   1      -8.926  -3.563 127.183  0.00  0.00    +0.120 C 
BRANCH   7   9
ATOM      8  O   LIG A   1      -7.422  -3.483 129.132  0.00  0.00    -0.251 OA
ATOM      9  C   LIG A   1      -7.875  -2.976 128.106  0.00  0.00    +0.307 C 
BRANCH   9  10
ATOM     10  O   LIG A   1      -7.472  -1.793 127.541  0.00  0.00    -0.468 OA
ATOM     11  C   LIG A   1      -6.067  -1.544 127.588  0.00  0.00    +0.280 C 
ENDBRANCH   9  10
ENDBRANCH   7   9
ENDBRANCH   6   7
ENDBRANCH   5   6
ENDBRANCH   4   5
ENDBRANCH   3   4
ENDBRANCH   2   3
ENDBRANCH   1   2
BRANCH   1  12
ATOM     12  C   LIG A   1      -6.814   0.524 124.131  0.00  0.00    -0.000 C 
BRANCH  12  13
ATOM     13  C   LIG A   1      -7.910   0.766 125.180  0.00  0.00    +0.000 C 
BRANCH  13  14
ATOM     14  C   LIG A   1      -9.021   1.683 124.662  0.00  0.00    +0.000 C 
BRANCH  14  15
ATOM     15  C   LIG A   1      -8.499   2.873 123.835  0.00  0.00    +0.005 C 
BRANCH  15  16
ATOM     16  C   LIG A   1      -8.735   2.805 122.315  0.00  0.00    +0.035 C 
BRANCH  16  17
ATOM     17  C   LIG A   1      -7.703   3.469 121.430  0.00  0.00    -0.047 A 
ATOM     18  C   LIG A   1      -6.391   3.647 121.897  0.00  0.00    +0.003 A 
ATOM     19  C   LIG A   1      -5.421   4.253 121.094  0.00  0.00    +0.000 A 
ATOM     20  C   LIG A   1      -5.749   4.693 119.814  0.00  0.00    +0.000 A 
ATOM     21  C   LIG A   1      -7.056   4.560 119.353  0.00  0.00    +0.000 A 
ATOM     22  C   LIG A   1      -8.030   3.973 120.164  0.00  0.00    +0.003 A 
ENDBRANCH  16  17
ENDBRANCH  15  16
ENDBRANCH  14  15
ENDBRANCH  13  14
ENDBRANCH  12  13
ENDBRANCH   1  12
TORSDOF 14
ENDMDL
MODEL 4
REMARK VINA RESULT:      -5.1      2.713      6.870
REMARK  Name = NuBBE_1156
REMARK  15 active torsions:
REMARK  status: ('A' for Active; 'I' for Inactive)
REMARK    1  A    between atoms: C_2  and  O_3
REMARK    2  A    between atoms: C_2  and  C_5
REMARK    3  A    between atoms: O_3  and  C_4
REMARK    4  A    between atoms: C_5  and  C_6
REMARK    5  A    between atoms: C_6  and  C_7
REMARK    6  A    between atoms: C_7  and  C_8
REMARK    7  A    between atoms: C_8  and  C_9
REMARK    8  A    between atoms: C_9  and  C_10
REMARK    9  A    between atoms: C_10  and  C_11
REMARK   10  A    between atoms: C_11  and  C_12
REMARK   11  A    between atoms: C_12  and  C_13
REMARK   12  A    between atoms: C_13  and  C_14
REMARK   13  A    between atoms: C_14  and  C_15
REMARK   14  A    between atoms: C_15  and  C_16
REMARK   15  A    between atoms: C_16  and  C_17
REMARK                            x       y       z     vdW  Elec       q    Type
REMARK                         _______ _______ _______ _____ _____    ______ ____
ROOT
ATOM      1  C   LIG A   1      -8.844  -3.777 127.896  0.00  0.00    -0.000 C 
ENDROOT
BRANCH   1   2
ATOM      2  C   LIG A   1      -8.336  -3.118 126.610  0.00  0.00    -0.000 C 
BRANCH   2   3
ATOM      3  C   LIG A   1      -9.415  -2.864 125.550  0.00  0.00    -0.000 C 
BRANCH   3   4
ATOM      4  C   LIG A   1      -9.089  -3.534 124.206  0.00  0.00    +0.000 C 
BRANCH   4   5
ATOM      5  C   LIG A   1      -8.895  -2.538 123.053  0.00  0.00    +0.000 C 
BRANCH   5   6
ATOM      6  C   LIG A   1      -7.806  -1.490 123.298  0.00  0.00    +0.011 C 
BRANCH   6   7
ATOM      7  C   LIG A   1      -6.456  -1.886 122.696  0.00  0.00    +0.120 C 
BRANCH   7   9
ATOM      8  O   LIG A   1      -5.462  -2.296 124.912  0.00  0.00    -0.251 OA
ATOM      9  C   LIG A   1      -5.497  -2.499 123.699  0.00  0.00    +0.307 C 
BRANCH   9  10
ATOM     10  O   LIG A   1      -4.712  -3.383 123.002  0.00  0.00    -0.468 OA
ATOM     11  C   LIG A   1      -4.356  -4.570 123.712  0.00  0.00    +0.280 C 
ENDBRANCH   9  10
ENDBRANCH   7   9
ENDBRANCH   6   7
ENDBRANCH   5   6
ENDBRANCH   4   5
ENDBRANCH   3   4
ENDBRANCH   2   3
ENDBRANCH   1   2
BRANCH   1  12
ATOM     12  C   LIG A   1      -8.223  -3.248 129.198  0.00  0.00    -0.000 C 
BRANCH  12  13
ATOM     13  C   LIG A   1      -7.739  -1.795 129.087  0.00  0.00    +0.000 C 
BRANCH  13  14
ATOM     14  C   LIG A   1      -6.245  -1.652 129.390  0.00  0.00    +0.000 C 
BRANCH  14  15
ATOM     15  C   LIG A   1      -5.345  -2.438 128.419  0.00  0.00    +0.005 C 
BRANCH  15  16
ATOM     16  C   LIG A   1      -4.229  -3.288 129.057  0.00  0.00    +0.035 C 
BRANCH  16  17
ATOM     17  C   LIG A   1      -4.464  -3.780 130.468  0.00  0.00    -0.047 A 
ATOM     18  C   LIG A   1      -3.779  -3.185 131.540  0.00  0.00    +0.003 A 
ATOM     19  C   LIG A   1      -3.986  -3.621 132.852  0.00  0.00    +0.000 A 
ATOM     20  C   LIG A   1      -4.877  -4.659 133.111  0.00  0.00    +0.000 A 
ATOM     21  C   LIG A   1      -5.532  -5.285 132.055  0.00  0.00    +0.000 A 
ATOM     22  C   LIG A   1      -5.309  -4.864 130.742  0.00  0.00    +0.003 A 
ENDBRANCH  16  17
ENDBRANCH  15  16
ENDBRANCH  14  15
ENDBRANCH  13  14
ENDBRANCH  12  13
ENDBRANCH   1  12
TORSDOF 14
ENDMDL
MODEL 5
REMARK VINA RESULT:      -5.1      2.776      6.798
REMARK  Name = NuBBE_1156
REMARK  15 active torsions:
REMARK  status: ('A' for Active; 'I' for Inactive)
REMARK    1  A    between atoms: C_2  and  O_3
REMARK    2  A    between atoms: C_2  and  C_5
REMARK    3  A    between atoms: O_3  and  C_4
REMARK    4  A    between atoms: C_5  and  C_6
REMARK    5  A    between atoms: C_6  and  C_7
REMARK    6  A    between atoms: C_7  and  C_8
REMARK    7  A    between atoms: C_8  and  C_9
REMARK    8  A    between atoms: C_9  and  C_10
REMARK    9  A    between atoms: C_10  and  C_11
REMARK   10  A    between atoms: C_11  and  C_12
REMARK   11  A    between atoms: C_12  and  C_13
REMARK   12  A    between atoms: C_13  and  C_14
REMARK   13  A    between atoms: C_14  and  C_15
REMARK   14  A    between atoms: C_15  and  C_16
REMARK   15  A    between atoms: C_16  and  C_17
REMARK                            x       y       z     vdW  Elec       q    Type
REMARK                         _______ _______ _______ _____ _____    ______ ____
ROOT
ATOM      1  C   LIG A   1      -5.725  -1.006 127.258  0.00  0.00    -0.000 C 
ENDROOT
BRANCH   1   2
ATOM      2  C   LIG A   1      -5.538  -2.069 126.171  0.00  0.00    -0.000 C 
BRANCH   2   3
ATOM      3  C   LIG A   1      -5.688  -1.552 124.736  0.00  0.00    -0.000 C 
BRANCH   3   4
ATOM      4  C   LIG A   1      -6.010  -2.675 123.737  0.00  0.00    +0.000 C 
BRANCH   4   5
ATOM      5  C   LIG A   1      -7.014  -3.706 124.272  0.00  0.00    +0.000 C 
BRANCH   5   6
ATOM      6  C   LIG A   1      -8.482  -3.354 124.014  0.00  0.00    +0.011 C 
BRANCH   6   7
ATOM      7  C   LIG A   1      -8.666  -2.415 122.820  0.00  0.00    +0.120 C 
BRANCH   7   9
ATOM      8  O   LIG A   1     -10.162  -0.507 122.388  0.00  0.00    -0.251 OA
ATOM      9  C   LIG A   1      -9.444  -1.154 123.149  0.00  0.00    +0.307 C 
BRANCH   9  10
ATOM     10  O   LIG A   1      -9.247  -0.908 124.484  0.00  0.00    -0.468 OA
ATOM     11  C   LIG A   1      -8.932   0.446 124.812  0.00  0.00    +0.280 C 
ENDBRANCH   9  10
ENDBRANCH   7   9
ENDBRANCH   6   7
ENDBRANCH   5   6
ENDBRANCH   4   5
ENDBRANCH   3   4
ENDBRANCH   2   3
ENDBRANCH   1   2
BRANCH   1  12
ATOM     12  C   LIG A   1      -7.120  -0.957 127.900  0.00  0.00    -0.000 C 
BRANCH  12  13
ATOM     13  C   LIG A   1      -7.994  -2.165 127.532  0.00  0.00    +0.000 C 
BRANCH  13  14
ATOM     14  C   LIG A   1      -8.532  -2.894 128.767  0.00  0.00    +0.000 C 
BRANCH  14  15
ATOM     15  C   LIG A   1      -7.574  -3.972 129.308  0.00  0.00    +0.005 C 
BRANCH  15  16
ATOM     16  C   LIG A   1      -6.765  -3.600 130.564  0.00  0.00    +0.035 C 
BRANCH  16  17
ATOM     17  C   LIG A   1      -5.359  -3.086 130.347  0.00  0.00    -0.047 A 
ATOM     18  C   LIG A   1      -4.984  -1.835 130.862  0.00  0.00    +0.003 A 
ATOM     19  C   LIG A   1      -3.688  -1.344 130.677  0.00  0.00    +0.000 A 
ATOM     20  C   LIG A   1      -2.750  -2.094 129.972  0.00  0.00    +0.000 A 
ATOM     21  C   LIG A   1      -3.120  -3.318 129.421  0.00  0.00    +0.000 A 
ATOM     22  C   LIG A   1      -4.420  -3.798 129.588  0.00  0.00    +0.003 A 
ENDBRANCH  16  17
ENDBRANCH  15  16
ENDBRANCH  14  15
ENDBRANCH  13  14
ENDBRANCH  12  13
ENDBRANCH   1  12
TORSDOF 14
ENDMDL
MODEL 6
REMARK VINA RESULT:      -5.0      1.799      3.237
REMARK  Name = NuBBE_1156
REMARK  15 active torsions:
REMARK  status: ('A' for Active; 'I' for Inactive)
REMARK    1  A    between atoms: C_2  and  O_3
REMARK    2  A    between atoms: C_2  and  C_5
REMARK    3  A    between atoms: O_3  and  C_4
REMARK    4  A    between atoms: C_5  and  C_6
REMARK    5  A    between atoms: C_6  and  C_7
REMARK    6  A    between atoms: C_7  and  C_8
REMARK    7  A    between atoms: C_8  and  C_9
REMARK    8  A    between atoms: C_9  and  C_10
REMARK    9  A    between atoms: C_10  and  C_11
REMARK   10  A    between atoms: C_11  and  C_12
REMARK   11  A    between atoms: C_12  and  C_13
REMARK   12  A    between atoms: C_13  and  C_14
REMARK   13  A    between atoms: C_14  and  C_15
REMARK   14  A    between atoms: C_15  and  C_16
REMARK   15  A    between atoms: C_16  and  C_17
REMARK                            x       y       z     vdW  Elec       q    Type
REMARK                         _______ _______ _______ _____ _____    ______ ____
ROOT
ATOM      1  C   LIG A   1      -9.335  -3.171 126.129  0.00  0.00    -0.000 C 
ENDROOT
BRANCH   1   2
ATOM      2  C   LIG A   1      -9.121  -3.885 127.467  0.00  0.00    -0.000 C 
BRANCH   2   3
ATOM      3  C   LIG A   1      -7.887  -3.423 128.251  0.00  0.00    -0.000 C 
BRANCH   3   4
ATOM      4  C   LIG A   1      -8.220  -3.038 129.701  0.00  0.00    +0.000 C 
BRANCH   4   5
ATOM      5  C   LIG A   1      -7.051  -3.245 130.676  0.00  0.00    +0.000 C 
BRANCH   5   6
ATOM      6  C   LIG A   1      -6.036  -4.302 130.233  0.00  0.00    +0.011 C 
BRANCH   6   7
ATOM      7  C   LIG A   1      -4.637  -3.725 130.009  0.00  0.00    +0.120 C 
BRANCH   7   9
ATOM      8  O   LIG A   1      -3.812  -4.303 132.256  0.00  0.00    -0.251 OA
ATOM      9  C   LIG A   1      -3.838  -3.547 131.286  0.00  0.00    +0.307 C 
BRANCH   9  10
ATOM     10  O   LIG A   1      -3.091  -2.408 131.126  0.00  0.00    -0.468 OA
ATOM     11  C   LIG A   1      -3.467  -1.313 131.961  0.00  0.00    +0.280 C 
ENDBRANCH   9  10
ENDBRANCH   7   9
ENDBRANCH   6   7
ENDBRANCH   5   6
ENDBRANCH   4   5
ENDBRANCH   3   4
ENDBRANCH   2   3
ENDBRANCH   1   2
BRANCH   1  12
ATOM     12  C   LIG A   1      -8.590  -3.779 124.931  0.00  0.00    -0.000 C 
BRANCH  12  13
ATOM     13  C   LIG A   1      -8.627  -2.886 123.682  0.00  0.00    +0.000 C 
BRANCH  13  14
ATOM     14  C   LIG A   1      -7.242  -2.353 123.305  0.00  0.00    +0.000 C 
BRANCH  14  15
ATOM     15  C   LIG A   1      -6.160  -2.654 124.359  0.00  0.00    +0.005 C 
BRANCH  15  16
ATOM     16  C   LIG A   1      -5.448  -1.435 124.975  0.00  0.00    +0.035 C 
BRANCH  16  17
ATOM     17  C   LIG A   1      -6.059  -0.844 126.227  0.00  0.00    -0.047 A 
ATOM     18  C   LIG A   1      -7.320  -0.229 126.167  0.00  0.00    +0.003 A 
ATOM     19  C   LIG A   1      -7.904   0.318 127.313  0.00  0.00    +0.000 A 
ATOM     20  C   LIG A   1      -7.236   0.261 128.533  0.00  0.00    +0.000 A 
ATOM     21  C   LIG A   1      -5.968  -0.309 128.599  0.00  0.00    +0.000 A 
ATOM     22  C   LIG A   1      -5.375  -0.837 127.450  0.00  0.00    +0.003 A 
ENDBRANCH  16  17
ENDBRANCH  15  16
ENDBRANCH  14  15
ENDBRANCH  13  14
ENDBRANCH  12  13
ENDBRANCH   1  12
TORSDOF 14
ENDMDL
MODEL 7
REMARK VINA RESULT:      -5.0      2.501      5.609
REMARK  Name = NuBBE_1156
REMARK  15 active torsions:
REMARK  status: ('A' for Active; 'I' for Inactive)
REMARK    1  A    between atoms: C_2  and  O_3
REMARK    2  A    between atoms: C_2  and  C_5
REMARK    3  A    between atoms: O_3  and  C_4
REMARK    4  A    between atoms: C_5  and  C_6
REMARK    5  A    between atoms: C_6  and  C_7
REMARK    6  A    between atoms: C_7  and  C_8
REMARK    7  A    between atoms: C_8  and  C_9
REMARK    8  A    between atoms: C_9  and  C_10
REMARK    9  A    between atoms: C_10  and  C_11
REMARK   10  A    between atoms: C_11  and  C_12
REMARK   11  A    between atoms: C_12  and  C_13
REMARK   12  A    between atoms: C_13  and  C_14
REMARK   13  A    between atoms: C_14  and  C_15
REMARK   14  A    between atoms: C_15  and  C_16
REMARK   15  A    between atoms: C_16  and  C_17
REMARK                            x       y       z     vdW  Elec       q    Type
REMARK                         _______ _______ _______ _____ _____    ______ ____
ROOT
ATOM      1  C   LIG A   1      -7.163  -2.867 131.122  0.00  0.00    -0.000 C 
ENDROOT
BRANCH   1   2
ATOM      2  C   LIG A   1      -5.635  -2.902 131.024  0.00  0.00    -0.000 C 
BRANCH   2   3
ATOM      3  C   LIG A   1      -5.085  -3.717 129.849  0.00  0.00    -0.000 C 
BRANCH   3   4
ATOM      4  C   LIG A   1      -4.280  -2.858 128.861  0.00  0.00    +0.000 C 
BRANCH   4   5
ATOM      5  C   LIG A   1      -5.080  -2.436 127.619  0.00  0.00    +0.000 C 
BRANCH   5   6
ATOM      6  C   LIG A   1      -5.488  -0.960 127.599  0.00  0.00    +0.011 C 
BRANCH   6   7
ATOM      7  C   LIG A   1      -6.021  -0.509 126.238  0.00  0.00    +0.120 C 
BRANCH   7   9
ATOM      8  O   LIG A   1      -4.699   1.568 126.303  0.00  0.00    -0.251 OA
ATOM      9  C   LIG A   1      -5.657   0.921 125.882  0.00  0.00    +0.307 C 
BRANCH   9  10
ATOM     10  O   LIG A   1      -6.567   1.335 124.944  0.00  0.00    -0.468 OA
ATOM     11  C   LIG A   1      -7.924   0.985 125.218  0.00  0.00    +0.280 C 
ENDBRANCH   9  10
ENDBRANCH   7   9
ENDBRANCH   6   7
ENDBRANCH   5   6
ENDBRANCH   4   5
ENDBRANCH   3   4
ENDBRANCH   2   3
ENDBRANCH   1   2
BRANCH   1  12
ATOM     12  C   LIG A   1      -7.891  -2.346 129.873  0.00  0.00    -0.000 C 
BRANCH  12  13
ATOM     13  C   LIG A   1      -8.810  -3.396 129.230  0.00  0.00    +0.000 C 
BRANCH  13  14
ATOM     14  C   LIG A   1      -8.252  -3.930 127.908  0.00  0.00    +0.000 C 
BRANCH  14  15
ATOM     15  C   LIG A   1      -8.735  -3.143 126.676  0.00  0.00    +0.005 C 
BRANCH  15  16
ATOM     16  C   LIG A   1      -8.556  -3.834 125.311  0.00  0.00    +0.035 C 
BRANCH  16  17
ATOM     17  C   LIG A   1      -7.528  -3.241 124.372  0.00  0.00    -0.047 A 
ATOM     18  C   LIG A   1      -7.920  -2.290 123.415  0.00  0.00    +0.003 A 
ATOM     19  C   LIG A   1      -6.985  -1.726 122.542  0.00  0.00    +0.000 A 
ATOM     20  C   LIG A   1      -5.648  -2.106 122.610  0.00  0.00    +0.000 A 
ATOM     21  C   LIG A   1      -5.252  -3.076 123.526  0.00  0.00    +0.000 A 
ATOM     22  C   LIG A   1      -6.189  -3.656 124.383  0.00  0.00    +0.003 A 
ENDBRANCH  16  17
ENDBRANCH  15  16
ENDBRANCH  14  15
ENDBRANCH  13  14
ENDBRANCH  12  13
ENDBRANCH   1  12
TORSDOF 14
ENDMDL
MODEL 8
REMARK VINA RESULT:      -5.0      3.801      6.755
REMARK  Name = NuBBE_1156
REMARK  15 active torsions:
REMARK  status: ('A' for Active; 'I' for Inactive)
REMARK    1  A    between atoms: C_2  and  O_3
REMARK    2  A    between atoms: C_2  and  C_5
REMARK    3  A    between atoms: O_3  and  C_4
REMARK    4  A    between atoms: C_5  and  C_6
REMARK    5  A    between atoms: C_6  and  C_7
REMARK    6  A    between atoms: C_7  and  C_8
REMARK    7  A    between atoms: C_8  and  C_9
REMARK    8  A    between atoms: C_9  and  C_10
REMARK    9  A    between atoms: C_10  and  C_11
REMARK   10  A    between atoms: C_11  and  C_12
REMARK   11  A    between atoms: C_12  and  C_13
REMARK   12  A    between atoms: C_13  and  C_14
REMARK   13  A    between atoms: C_14  and  C_15
REMARK   14  A    between atoms: C_15  and  C_16
REMARK   15  A    between atoms: C_16  and  C_17
REMARK                            x       y       z     vdW  Elec       q    Type
REMARK                         _______ _______ _______ _____ _____    ______ ____
ROOT
ATOM      1  C   LIG A   1      -6.912  -1.131 128.592  0.00  0.00    -0.000 C 
ENDROOT
BRANCH   1   2
ATOM      2  C   LIG A   1      -5.681  -1.467 127.744  0.00  0.00    -0.000 C 
BRANCH   2   3
ATOM      3  C   LIG A   1      -5.417  -0.499 126.585  0.00  0.00    -0.000 C 
BRANCH   3   4
ATOM      4  C   LIG A   1      -5.434   0.972 127.031  0.00  0.00    +0.000 C 
BRANCH   4   5
ATOM      5  C   LIG A   1      -5.143   1.963 125.894  0.00  0.00    +0.000 C 
BRANCH   5   6
ATOM      6  C   LIG A   1      -6.345   2.813 125.472  0.00  0.00    +0.011 C 
BRANCH   6   7
ATOM      7  C   LIG A   1      -6.686   2.663 123.988  0.00  0.00    +0.120 C 
BRANCH   7   9
ATOM      8  O   LIG A   1      -5.592   4.804 123.454  0.00  0.00    -0.251 OA
ATOM      9  C   LIG A   1      -6.040   3.713 123.104  0.00  0.00    +0.307 C 
BRANCH   9  10
ATOM     10  O   LIG A   1      -5.988   3.184 121.839  0.00  0.00    -0.468 OA
ATOM     11  C   LIG A   1      -5.431   4.043 120.843  0.00  0.00    +0.280 C 
ENDBRANCH   9  10
ENDBRANCH   7   9
ENDBRANCH   6   7
ENDBRANCH   5   6
ENDBRANCH   4   5
ENDBRANCH   3   4
ENDBRANCH   2   3
ENDBRANCH   1   2
BRANCH   1  12
ATOM     12  C   LIG A   1      -7.150  -2.048 129.801  0.00  0.00    -0.000 C 
BRANCH  12  13
ATOM     13  C   LIG A   1      -7.531  -3.482 129.405  0.00  0.00    +0.000 C 
BRANCH  13  14
ATOM     14  C   LIG A   1      -8.870  -3.546 128.663  0.00  0.00    +0.000 C 
BRANCH  14  15
ATOM     15  C   LIG A   1      -8.732  -3.953 127.184  0.00  0.00    +0.005 C 
BRANCH  15  16
ATOM     16  C   LIG A   1      -9.244  -2.938 126.145  0.00  0.00    +0.035 C 
BRANCH  16  17
ATOM     17  C   LIG A   1      -8.256  -2.469 125.100  0.00  0.00    -0.047 A 
ATOM     18  C   LIG A   1      -8.452  -1.236 124.456  0.00  0.00    +0.003 A 
ATOM     19  C   LIG A   1      -7.548  -0.783 123.491  0.00  0.00    +0.000 A 
ATOM     20  C   LIG A   1      -6.439  -1.554 123.154  0.00  0.00    +0.000 A 
ATOM     21  C   LIG A   1      -6.255  -2.796 123.754  0.00  0.00    +0.000 A 
ATOM     22  C   LIG A   1      -7.169  -3.259 124.703  0.00  0.00    +0.003 A 
ENDBRANCH  16  17
ENDBRANCH  15  16
ENDBRANCH  14  15
ENDBRANCH  13  14
ENDBRANCH  12  13
ENDBRANCH   1  12
TORSDOF 14
ENDMDL
MODEL 9
REMARK VINA RESULT:      -5.0      3.413      6.507
REMARK  Name = NuBBE_1156
REMARK  15 active torsions:
REMARK  status: ('A' for Active; 'I' for Inactive)
REMARK    1  A    between atoms: C_2  and  O_3
REMARK    2  A    between atoms: C_2  and  C_5
REMARK    3  A    between atoms: O_3  and  C_4
REMARK    4  A    between atoms: C_5  and  C_6
REMARK    5  A    between atoms: C_6  and  C_7
REMARK    6  A    between atoms: C_7  and  C_8
REMARK    7  A    between atoms: C_8  and  C_9
REMARK    8  A    between atoms: C_9  and  C_10
REMARK    9  A    between atoms: C_10  and  C_11
REMARK   10  A    between atoms: C_11  and  C_12
REMARK   11  A    between atoms: C_12  and  C_13
REMARK   12  A    between atoms: C_13  and  C_14
REMARK   13  A    between atoms: C_14  and  C_15
REMARK   14  A    between atoms: C_15  and  C_16
REMARK   15  A    between atoms: C_16  and  C_17
REMARK                            x       y       z     vdW  Elec       q    Type
REMARK                         _______ _______ _______ _____ _____    ______ ____
ROOT
ATOM      1  C   LIG A   1      -5.498  -0.923 126.390  0.00  0.00    -0.000 C 
ENDROOT
BRANCH   1   2
ATOM      2  C   LIG A   1      -5.885   0.326 125.594  0.00  0.00    -0.000 C 
BRANCH   2   3
ATOM      3  C   LIG A   1      -7.363   0.720 125.697  0.00  0.00    -0.000 C 
BRANCH   3   4
ATOM      4  C   LIG A   1      -7.848   1.513 124.473  0.00  0.00    +0.000 C 
BRANCH   4   5
ATOM      5  C   LIG A   1      -6.723   1.883 123.494  0.00  0.00    +0.000 C 
BRANCH   5   6
ATOM      6  C   LIG A   1      -6.733   3.347 123.043  0.00  0.00    +0.011 C 
BRANCH   6   7
ATOM      7  C   LIG A   1      -5.634   4.180 123.706  0.00  0.00    +0.120 C 
BRANCH   7   9
ATOM      8  O   LIG A   1      -6.780   5.576 125.381  0.00  0.00    -0.251 OA
ATOM      9  C   LIG A   1      -5.996   4.672 125.096  0.00  0.00    +0.307 C 
BRANCH   9  10
ATOM     10  O   LIG A   1      -5.327   3.868 125.983  0.00  0.00    -0.468 OA
ATOM     11  C   LIG A   1      -4.177   4.457 126.590  0.00  0.00    +0.280 C 
ENDBRANCH   9  10
ENDBRANCH   7   9
ENDBRANCH   6   7
ENDBRANCH   5   6
ENDBRANCH   4   5
ENDBRANCH   3   4
ENDBRANCH   2   3
ENDBRANCH   1   2
BRANCH   1  12
ATOM     12  C   LIG A   1      -6.282  -1.145 127.693  0.00  0.00    -0.000 C 
BRANCH  12  13
ATOM     13  C   LIG A   1      -7.188  -2.384 127.647  0.00  0.00    +0.000 C 
BRANCH  13  14
ATOM     14  C   LIG A   1      -8.534  -2.100 126.976  0.00  0.00    +0.000 C 
BRANCH  14  15
ATOM     15  C   LIG A   1      -9.134  -3.325 126.261  0.00  0.00    +0.005 C 
BRANCH  15  16
ATOM     16  C   LIG A   1      -8.176  -4.129 125.362  0.00  0.00    +0.035 C 
BRANCH  16  17
ATOM     17  C   LIG A   1      -7.393  -3.353 124.326  0.00  0.00    -0.047 A 
ATOM     18  C   LIG A   1      -8.059  -2.464 123.467  0.00  0.00    +0.003 A 
ATOM     19  C   LIG A   1      -7.354  -1.733 122.507  0.00  0.00    +0.000 A 
ATOM     20  C   LIG A   1      -5.975  -1.881 122.390  0.00  0.00    +0.000 A 
ATOM     21  C   LIG A   1      -5.307  -2.788 123.207  0.00  0.00    +0.000 A 
ATOM     22  C   LIG A   1      -6.014  -3.535 124.152  0.00  0.00    +0.003 A 
ENDBRANCH  16  17
ENDBRANCH  15  16
ENDBRANCH  14  15
ENDBRANCH  13  14
ENDBRANCH  12  13
ENDBRANCH   1  12
TORSDOF 14
ENDMDL
