MODEL 1
REMARK VINA RESULT:      -7.2      0.000      0.000
REMARK  Name = NuBBE_1286
REMARK  3 active torsions:
REMARK  status: ('A' for Active; 'I' for Inactive)
REMARK    1  A    between atoms: C_1  and  C_2
REMARK    2  A    between atoms: C_2  and  C_4
REMARK    3  A    between atoms: N_15  and  C_16
REMARK                            x       y       z     vdW  Elec       q    Type
REMARK                         _______ _______ _______ _____ _____    ______ ____
ROOT
ATOM      1  C   LIG A   1     -12.916   6.465 129.003  0.00  0.00    +0.060 C 
ATOM      2  C   LIG A   1     -11.954   6.888 130.147  0.00  0.00    +0.123 C 
ATOM      3  O   LIG A   1     -11.560   5.787 131.077  0.00  0.00    -0.481 OA
ATOM      4  C   LIG A   1     -12.749   7.884 131.008  0.00  0.00    +0.060 C 
ATOM      5  C   LIG A   1     -10.773   7.609 129.466  0.00  0.00    +0.020 C 
ATOM      6  C   LIG A   1      -9.538   7.430 129.963  0.00  0.00    +0.016 C 
ATOM      7  C   LIG A   1      -9.283   6.055 130.377  0.00  0.00    +0.082 A 
ATOM      8  C   LIG A   1     -10.193   5.501 131.193  0.00  0.00    +0.143 A 
ATOM      9  C   LIG A   1      -9.615   4.369 131.963  0.00  0.00    +0.041 A 
ATOM     10  C   LIG A   1      -9.405   4.409 133.353  0.00  0.00    +0.013 A 
ATOM     11  C   LIG A   1      -8.502   3.517 133.969  0.00  0.00    +0.001 A 
ATOM     12  C   LIG A   1      -7.851   2.537 133.222  0.00  0.00    +0.002 A 
ATOM     13  C   LIG A   1      -8.056   2.474 131.848  0.00  0.00    +0.026 A 
ATOM     14  C   LIG A   1      -8.861   3.438 131.219  0.00  0.00    +0.055 A 
ATOM     15  N   LIG A   1      -8.729   3.695 129.831  0.00  0.00    -0.310 N 
ATOM     16  C   LIG A   1      -8.452   2.636 128.882  0.00  0.00    +0.152 C 
ATOM     17  C   LIG A   1      -8.918   4.991 129.359  0.00  0.00    +0.262 A 
ATOM     18  O   LIG A   1      -8.831   5.288 128.151  0.00  0.00    -0.267 OA
ENDROOT
TORSDOF 0
ENDMDL
MODEL 2
REMARK VINA RESULT:      -7.0      7.368      9.690
REMARK  Name = NuBBE_1286
REMARK  3 active torsions:
REMARK  status: ('A' for Active; 'I' for Inactive)
REMARK    1  A    between atoms: C_1  and  C_2
REMARK    2  A    between atoms: C_2  and  C_4
REMARK    3  A    between atoms: N_15  and  C_16
REMARK                            x       y       z     vdW  Elec       q    Type
REMARK                         _______ _______ _______ _____ _____    ______ ____
ROOT
ATOM      1  C   LIG A   1      -9.299  -2.922 125.694  0.00  0.00    +0.060 C 
ATOM      2  C   LIG A   1      -8.547  -2.435 124.425  0.00  0.00    +0.123 C 
ATOM      3  O   LIG A   1      -8.512  -0.953 124.245  0.00  0.00    -0.481 OA
ATOM      4  C   LIG A   1      -9.355  -2.974 123.233  0.00  0.00    +0.060 C 
ATOM      5  C   LIG A   1      -7.161  -3.110 124.468  0.00  0.00    +0.020 C 
ATOM      6  C   LIG A   1      -6.093  -2.414 124.044  0.00  0.00    +0.016 C 
ATOM      7  C   LIG A   1      -6.125  -1.014 124.454  0.00  0.00    +0.082 A 
ATOM      8  C   LIG A   1      -7.254  -0.341 124.181  0.00  0.00    +0.143 A 
ATOM      9  C   LIG A   1      -7.013   1.125 124.131  0.00  0.00    +0.041 A 
ATOM     10  C   LIG A   1      -7.092   1.880 122.947  0.00  0.00    +0.013 A 
ATOM     11  C   LIG A   1      -6.471   3.144 122.858  0.00  0.00    +0.001 A 
ATOM     12  C   LIG A   1      -5.823   3.696 123.961  0.00  0.00    +0.002 A 
ATOM     13  C   LIG A   1      -5.745   2.969 125.144  0.00  0.00    +0.026 A 
ATOM     14  C   LIG A   1      -6.258   1.663 125.194  0.00  0.00    +0.055 A 
ATOM     15  N   LIG A   1      -5.807   0.746 126.178  0.00  0.00    -0.310 N 
ATOM     16  C   LIG A   1      -5.490   1.169 127.526  0.00  0.00    +0.152 C 
ATOM     17  C   LIG A   1      -5.710  -0.604 125.854  0.00  0.00    +0.262 A 
ATOM     18  O   LIG A   1      -5.333  -1.469 126.670  0.00  0.00    -0.267 OA
ENDROOT
TORSDOF 0
ENDMDL
MODEL 3
REMARK VINA RESULT:      -7.0      7.269      9.440
REMARK  Name = NuBBE_1286
REMARK  3 active torsions:
REMARK  status: ('A' for Active; 'I' for Inactive)
REMARK    1  A    between atoms: C_1  and  C_2
REMARK    2  A    between atoms: C_2  and  C_4
REMARK    3  A    between atoms: N_15  and  C_16
REMARK                            x       y       z     vdW  Elec       q    Type
REMARK                         _______ _______ _______ _____ _____    ______ ____
ROOT
ATOM      1  C   LIG A   1      -8.262   3.454 124.362  0.00  0.00    +0.060 C 
ATOM      2  C   LIG A   1      -8.237   2.386 123.234  0.00  0.00    +0.123 C 
ATOM      3  O   LIG A   1      -7.143   1.375 123.349  0.00  0.00    -0.481 OA
ATOM      4  C   LIG A   1      -7.943   3.160 121.938  0.00  0.00    +0.060 C 
ATOM      5  C   LIG A   1      -9.659   1.792 123.179  0.00  0.00    +0.020 C 
ATOM      6  C   LIG A   1      -9.798   0.479 122.929  0.00  0.00    +0.016 C 
ATOM      7  C   LIG A   1      -8.798  -0.340 123.605  0.00  0.00    +0.082 A 
ATOM      8  C   LIG A   1      -7.518   0.028 123.440  0.00  0.00    +0.143 A 
ATOM      9  C   LIG A   1      -6.590  -1.107 123.686  0.00  0.00    +0.041 A 
ATOM     10  C   LIG A   1      -5.827  -1.712 122.672  0.00  0.00    +0.013 A 
ATOM     11  C   LIG A   1      -5.295  -3.007 122.849  0.00  0.00    +0.001 A 
ATOM     12  C   LIG A   1      -5.462  -3.684 124.056  0.00  0.00    +0.002 A 
ATOM     13  C   LIG A   1      -6.203  -3.095 125.075  0.00  0.00    +0.026 A 
ATOM     14  C   LIG A   1      -6.832  -1.860 124.853  0.00  0.00    +0.055 A 
ATOM     15  N   LIG A   1      -7.936  -1.458 125.649  0.00  0.00    -0.310 N 
ATOM     16  C   LIG A   1      -8.009  -1.766 127.062  0.00  0.00    +0.152 C 
ATOM     17  C   LIG A   1      -8.953  -0.706 125.068  0.00  0.00    +0.262 A 
ATOM     18  O   LIG A   1      -9.946  -0.307 125.709  0.00  0.00    -0.267 OA
ENDROOT
TORSDOF 0
ENDMDL
MODEL 4
REMARK VINA RESULT:      -6.8      7.108      9.606
REMARK  Name = NuBBE_1286
REMARK  3 active torsions:
REMARK  status: ('A' for Active; 'I' for Inactive)
REMARK    1  A    between atoms: C_1  and  C_2
REMARK    2  A    between atoms: C_2  and  C_4
REMARK    3  A    between atoms: N_15  and  C_16
REMARK                            x       y       z     vdW  Elec       q    Type
REMARK                         _______ _______ _______ _____ _____    ______ ____
ROOT
ATOM      1  C   LIG A   1      -6.025  -2.754 128.677  0.00  0.00    +0.060 C 
ATOM      2  C   LIG A   1      -7.519  -2.384 128.463  0.00  0.00    +0.123 C 
ATOM      3  O   LIG A   1      -7.752  -1.159 127.641  0.00  0.00    -0.481 OA
ATOM      4  C   LIG A   1      -8.067  -2.049 129.860  0.00  0.00    +0.060 C 
ATOM      5  C   LIG A   1      -8.200  -3.658 127.924  0.00  0.00    +0.020 C 
ATOM      6  C   LIG A   1      -9.159  -3.530 126.993  0.00  0.00    +0.016 C 
ATOM      7  C   LIG A   1      -8.856  -2.509 125.997  0.00  0.00    +0.082 A 
ATOM      8  C   LIG A   1      -8.507  -1.302 126.470  0.00  0.00    +0.143 A 
ATOM      9  C   LIG A   1      -8.739  -0.236 125.462  0.00  0.00    +0.041 A 
ATOM     10  C   LIG A   1      -9.725   0.757 125.602  0.00  0.00    +0.013 A 
ATOM     11  C   LIG A   1     -10.186   1.476 124.479  0.00  0.00    +0.001 A 
ATOM     12  C   LIG A   1      -9.629   1.261 123.220  0.00  0.00    +0.002 A 
ATOM     13  C   LIG A   1      -8.643   0.292 123.064  0.00  0.00    +0.026 A 
ATOM     14  C   LIG A   1      -8.271  -0.505 124.159  0.00  0.00    +0.055 A 
ATOM     15  N   LIG A   1      -7.648  -1.763 123.958  0.00  0.00    -0.310 N 
ATOM     16  C   LIG A   1      -6.699  -1.981 122.885  0.00  0.00    +0.152 C 
ATOM     17  C   LIG A   1      -7.916  -2.804 124.843  0.00  0.00    +0.262 A 
ATOM     18  O   LIG A   1      -7.395  -3.932 124.736  0.00  0.00    -0.267 OA
ENDROOT
TORSDOF 0
ENDMDL
MODEL 5
REMARK VINA RESULT:      -6.8      6.961      8.886
REMARK  Name = NuBBE_1286
REMARK  3 active torsions:
REMARK  status: ('A' for Active; 'I' for Inactive)
REMARK    1  A    between atoms: C_1  and  C_2
REMARK    2  A    between atoms: C_2  and  C_4
REMARK    3  A    between atoms: N_15  and  C_16
REMARK                            x       y       z     vdW  Elec       q    Type
REMARK                         _______ _______ _______ _____ _____    ______ ____
ROOT
ATOM      1  C   LIG A   1      -6.230   3.488 122.981  0.00  0.00    +0.060 C 
ATOM      2  C   LIG A   1      -7.623   2.800 122.973  0.00  0.00    +0.123 C 
ATOM      3  O   LIG A   1      -7.593   1.323 122.754  0.00  0.00    -0.481 OA
ATOM      4  C   LIG A   1      -8.364   3.379 121.756  0.00  0.00    +0.060 C 
ATOM      5  C   LIG A   1      -8.324   3.244 124.273  0.00  0.00    +0.020 C 
ATOM      6  C   LIG A   1      -9.095   2.357 124.922  0.00  0.00    +0.016 C 
ATOM      7  C   LIG A   1      -8.530   1.012 124.939  0.00  0.00    +0.082 A 
ATOM      8  C   LIG A   1      -8.151   0.512 123.752  0.00  0.00    +0.143 A 
ATOM      9  C   LIG A   1      -8.105  -0.972 123.777  0.00  0.00    +0.041 A 
ATOM     10  C   LIG A   1      -8.999  -1.784 123.057  0.00  0.00    +0.013 A 
ATOM     11  C   LIG A   1      -9.192  -3.135 123.417  0.00  0.00    +0.001 A 
ATOM     12  C   LIG A   1      -8.454  -3.707 124.451  0.00  0.00    +0.002 A 
ATOM     13  C   LIG A   1      -7.555  -2.923 125.166  0.00  0.00    +0.026 A 
ATOM     14  C   LIG A   1      -7.452  -1.551 124.886  0.00  0.00    +0.055 A 
ATOM     15  N   LIG A   1      -6.929  -0.654 125.852  0.00  0.00    -0.310 N 
ATOM     16  C   LIG A   1      -5.839  -1.028 126.728  0.00  0.00    +0.152 C 
ATOM     17  C   LIG A   1      -7.442   0.638 125.928  0.00  0.00    +0.262 A 
ATOM     18  O   LIG A   1      -7.023   1.484 126.742  0.00  0.00    -0.267 OA
ENDROOT
TORSDOF 0
ENDMDL
MODEL 6
REMARK VINA RESULT:      -6.6      7.056      9.528
REMARK  Name = NuBBE_1286
REMARK  3 active torsions:
REMARK  status: ('A' for Active; 'I' for Inactive)
REMARK    1  A    between atoms: C_1  and  C_2
REMARK    2  A    between atoms: C_2  and  C_4
REMARK    3  A    between atoms: N_15  and  C_16
REMARK                            x       y       z     vdW  Elec       q    Type
REMARK                         _______ _______ _______ _____ _____    ______ ____
ROOT
ATOM      1  C   LIG A   1      -7.340  -0.799 130.188  0.00  0.00    +0.060 C 
ATOM      2  C   LIG A   1      -7.147  -2.046 129.282  0.00  0.00    +0.123 C 
ATOM      3  O   LIG A   1      -8.110  -2.151 128.144  0.00  0.00    -0.481 OA
ATOM      4  C   LIG A   1      -7.440  -3.259 130.179  0.00  0.00    +0.060 C 
ATOM      5  C   LIG A   1      -5.662  -2.045 128.868  0.00  0.00    +0.020 C 
ATOM      6  C   LIG A   1      -5.340  -2.439 127.625  0.00  0.00    +0.016 C 
ATOM      7  C   LIG A   1      -6.275  -1.958 126.614  0.00  0.00    +0.082 A 
ATOM      8  C   LIG A   1      -7.577  -2.190 126.850  0.00  0.00    +0.143 A 
ATOM      9  C   LIG A   1      -8.369  -2.167 125.593  0.00  0.00    +0.041 A 
ATOM     10  C   LIG A   1      -8.973  -3.310 125.041  0.00  0.00    +0.013 A 
ATOM     11  C   LIG A   1      -9.349  -3.338 123.681  0.00  0.00    +0.001 A 
ATOM     12  C   LIG A   1      -9.188  -2.212 122.876  0.00  0.00    +0.002 A 
ATOM     13  C   LIG A   1      -8.604  -1.068 123.409  0.00  0.00    +0.026 A 
ATOM     14  C   LIG A   1      -8.121  -1.081 124.727  0.00  0.00    +0.055 A 
ATOM     15  N   LIG A   1      -7.138  -0.148 125.146  0.00  0.00    -0.310 N 
ATOM     16  C   LIG A   1      -7.131   1.218 124.667  0.00  0.00    +0.152 C 
ATOM     17  C   LIG A   1      -6.184  -0.541 126.080  0.00  0.00    +0.262 A 
ATOM     18  O   LIG A   1      -5.298   0.228 126.505  0.00  0.00    -0.267 OA
ENDROOT
TORSDOF 0
ENDMDL
MODEL 7
REMARK VINA RESULT:      -6.6      7.122      9.463
REMARK  Name = NuBBE_1286
REMARK  3 active torsions:
REMARK  status: ('A' for Active; 'I' for Inactive)
REMARK    1  A    between atoms: C_1  and  C_2
REMARK    2  A    between atoms: C_2  and  C_4
REMARK    3  A    between atoms: N_15  and  C_16
REMARK                            x       y       z     vdW  Elec       q    Type
REMARK                         _______ _______ _______ _____ _____    ______ ____
ROOT
ATOM      1  C   LIG A   1     -10.506   1.232 124.587  0.00  0.00    +0.060 C 
ATOM      2  C   LIG A   1      -9.474   0.839 123.494  0.00  0.00    +0.123 C 
ATOM      3  O   LIG A   1      -8.818   1.992 122.807  0.00  0.00    -0.481 OA
ATOM      4  C   LIG A   1     -10.282   0.119 122.402  0.00  0.00    +0.060 C 
ATOM      5  C   LIG A   1      -8.499  -0.149 124.164  0.00  0.00    +0.020 C 
ATOM      6  C   LIG A   1      -7.198  -0.092 123.835  0.00  0.00    +0.016 C 
ATOM      7  C   LIG A   1      -6.706   1.272 123.685  0.00  0.00    +0.082 A 
ATOM      8  C   LIG A   1      -7.421   2.077 122.882  0.00  0.00    +0.143 A 
ATOM      9  C   LIG A   1      -6.601   3.207 122.375  0.00  0.00    +0.041 A 
ATOM     10  C   LIG A   1      -6.223   3.343 121.028  0.00  0.00    +0.013 A 
ATOM     11  C   LIG A   1      -5.135   4.166 120.666  0.00  0.00    +0.001 A 
ATOM     12  C   LIG A   1      -4.456   4.909 121.629  0.00  0.00    +0.002 A 
ATOM     13  C   LIG A   1      -4.824   4.797 122.965  0.00  0.00    +0.026 A 
ATOM     14  C   LIG A   1      -5.826   3.888 123.338  0.00  0.00    +0.055 A 
ATOM     15  N   LIG A   1      -5.908   3.409 124.671  0.00  0.00    -0.310 N 
ATOM     16  C   LIG A   1      -5.611   4.258 125.805  0.00  0.00    +0.152 C 
ATOM     17  C   LIG A   1      -6.332   2.102 124.898  0.00  0.00    +0.262 A 
ATOM     18  O   LIG A   1      -6.440   1.618 126.042  0.00  0.00    -0.267 OA
ENDROOT
TORSDOF 0
ENDMDL
MODEL 8
REMARK VINA RESULT:      -6.5      1.775      2.118
REMARK  Name = NuBBE_1286
REMARK  3 active torsions:
REMARK  status: ('A' for Active; 'I' for Inactive)
REMARK    1  A    between atoms: C_1  and  C_2
REMARK    2  A    between atoms: C_2  and  C_4
REMARK    3  A    between atoms: N_15  and  C_16
REMARK                            x       y       z     vdW  Elec       q    Type
REMARK                         _______ _______ _______ _____ _____    ______ ____
ROOT
ATOM      1  C   LIG A   1     -10.483   7.042 128.115  0.00  0.00    +0.060 C 
ATOM      2  C   LIG A   1     -10.517   6.548 129.588  0.00  0.00    +0.123 C 
ATOM      3  O   LIG A   1     -10.626   5.067 129.751  0.00  0.00    -0.481 OA
ATOM      4  C   LIG A   1     -11.811   7.122 130.187  0.00  0.00    +0.060 C 
ATOM      5  C   LIG A   1      -9.292   7.182 130.277  0.00  0.00    +0.020 C 
ATOM      6  C   LIG A   1      -8.623   6.460 131.191  0.00  0.00    +0.016 C 
ATOM      7  C   LIG A   1      -8.479   5.057 130.817  0.00  0.00    +0.082 A 
ATOM      8  C   LIG A   1      -9.604   4.419 130.457  0.00  0.00    +0.143 A 
ATOM      9  C   LIG A   1      -9.469   2.948 130.616  0.00  0.00    +0.041 A 
ATOM     10  C   LIG A   1     -10.176   2.208 131.580  0.00  0.00    +0.013 A 
ATOM     11  C   LIG A   1      -9.731   0.928 131.973  0.00  0.00    +0.001 A 
ATOM     12  C   LIG A   1      -8.620   0.346 131.366  0.00  0.00    +0.002 A 
ATOM     13  C   LIG A   1      -7.915   1.058 130.401  0.00  0.00    +0.026 A 
ATOM     14  C   LIG A   1      -8.288   2.377 130.099  0.00  0.00    +0.055 A 
ATOM     15  N   LIG A   1      -7.362   3.270 129.501  0.00  0.00    -0.310 N 
ATOM     16  C   LIG A   1      -6.402   2.824 128.512  0.00  0.00    +0.152 C 
ATOM     17  C   LIG A   1      -7.408   4.621 129.835  0.00  0.00    +0.262 A 
ATOM     18  O   LIG A   1      -6.635   5.465 129.340  0.00  0.00    -0.267 OA
ENDROOT
TORSDOF 0
ENDMDL
MODEL 9
REMARK VINA RESULT:      -6.3      5.862      8.546
REMARK  Name = NuBBE_1286
REMARK  3 active torsions:
REMARK  status: ('A' for Active; 'I' for Inactive)
REMARK    1  A    between atoms: C_1  and  C_2
REMARK    2  A    between atoms: C_2  and  C_4
REMARK    3  A    between atoms: N_15  and  C_16
REMARK                            x       y       z     vdW  Elec       q    Type
REMARK                         _______ _______ _______ _____ _____    ______ ____
ROOT
ATOM      1  C   LIG A   1      -7.715   4.385 126.635  0.00  0.00    +0.060 C 
ATOM      2  C   LIG A   1      -6.565   3.608 125.937  0.00  0.00    +0.123 C 
ATOM      3  O   LIG A   1      -6.730   2.123 125.918  0.00  0.00    -0.481 OA
ATOM      4  C   LIG A   1      -5.312   3.870 126.788  0.00  0.00    +0.060 C 
ATOM      5  C   LIG A   1      -6.399   4.254 124.546  0.00  0.00    +0.020 C 
ATOM      6  C   LIG A   1      -6.107   3.463 123.501  0.00  0.00    +0.016 C 
ATOM      7  C   LIG A   1      -6.830   2.196 123.524  0.00  0.00    +0.082 A 
ATOM      8  C   LIG A   1      -6.762   1.495 124.666  0.00  0.00    +0.143 A 
ATOM      9  C   LIG A   1      -7.043   0.054 124.436  0.00  0.00    +0.041 A 
ATOM     10  C   LIG A   1      -6.070  -0.952 124.567  0.00  0.00    +0.013 A 
ATOM     11  C   LIG A   1      -6.251  -2.212 123.957  0.00  0.00    +0.001 A 
ATOM     12  C   LIG A   1      -7.426  -2.504 123.268  0.00  0.00    +0.002 A 
ATOM     13  C   LIG A   1      -8.406  -1.526 123.140  0.00  0.00    +0.026 A 
ATOM     14  C   LIG A   1      -8.173  -0.236 123.643  0.00  0.00    +0.055 A 
ATOM     15  N   LIG A   1      -8.900   0.876 123.147  0.00  0.00    -0.310 N 
ATOM     16  C   LIG A   1     -10.297   0.770 122.779  0.00  0.00    +0.152 C 
ATOM     17  C   LIG A   1      -8.270   2.114 123.056  0.00  0.00    +0.262 A 
ATOM     18  O   LIG A   1      -8.850   3.137 122.642  0.00  0.00    -0.267 OA
ENDROOT
TORSDOF 0
ENDMDL
