MODEL 1
REMARK VINA RESULT:      -7.9      0.000      0.000
REMARK  Name = NuBBE_1314
REMARK  3 active torsions:
REMARK  status: ('A' for Active; 'I' for Inactive)
REMARK    1  A    between atoms: C_3  and  O_4
REMARK    2  A    between atoms: O_4  and  C_5
REMARK    3  A    between atoms: C_6  and  C_7
REMARK                            x       y       z     vdW  Elec       q    Type
REMARK                         _______ _______ _______ _____ _____    ______ ____
ROOT
ATOM      1  O   LIG A   1      -9.016   2.365 125.238  0.00  0.00    -0.283 OA
ATOM      2  C   LIG A   1      -7.923   2.824 124.932  0.00  0.00    +0.235 A 
ATOM      3  C   LIG A   1      -6.825   3.070 125.918  0.00  0.00    +0.210 A 
ATOM      4  C   LIG A   1      -5.671   3.576 125.437  0.00  0.00    +0.181 A 
ATOM      5  O   LIG A   1      -5.408   3.880 124.117  0.00  0.00    -0.450 OA
ATOM      6  C   LIG A   1      -7.649   3.168 123.524  0.00  0.00    +0.069 A 
ATOM      7  C   LIG A   1      -6.397   3.689 123.189  0.00  0.00    +0.150 A 
ATOM      8  C   LIG A   1      -6.147   4.033 121.846  0.00  0.00    +0.063 A 
ATOM      9  C   LIG A   1      -5.053   4.577 121.119  0.00  0.00    +0.053 A 
ATOM     10  C   LIG A   1      -5.464   4.673 119.809  0.00  0.00    +0.196 A 
ATOM     11  O   LIG A   1      -6.737   4.221 119.674  0.00  0.00    -0.463 OA
ATOM     12  C   LIG A   1      -7.155   3.833 120.910  0.00  0.00    +0.138 A 
ATOM     13  C   LIG A   1      -8.410   3.309 121.209  0.00  0.00    +0.048 A 
ATOM     14  C   LIG A   1      -8.642   2.978 122.549  0.00  0.00    +0.019 A 
ENDROOT
BRANCH   4  15
ATOM     15  C   LIG A   1      -4.526   3.856 126.316  0.00  0.00    +0.021 A 
ATOM     16  C   LIG A   1      -4.429   5.083 126.984  0.00  0.00    +0.012 A 
ATOM     17  C   LIG A   1      -3.332   5.349 127.807  0.00  0.00    +0.001 A 
ATOM     18  C   LIG A   1      -2.328   4.395 127.965  0.00  0.00    +0.000 A 
ATOM     19  C   LIG A   1      -2.419   3.171 127.302  0.00  0.00    +0.001 A 
ATOM     20  C   LIG A   1      -3.514   2.901 126.479  0.00  0.00    +0.012 A 
ENDBRANCH   4  15
BRANCH   3  21
ATOM     21  O   LIG A   1      -6.970   2.838 127.280  0.00  0.00    -0.488 OA
ATOM     22  C   LIG A   1      -7.741   3.784 128.011  0.00  0.00    +0.277 C 
ENDBRANCH   3  21
TORSDOF 2
ENDMDL
MODEL 2
REMARK VINA RESULT:      -7.8      3.075      6.270
REMARK  Name = NuBBE_1314
REMARK  3 active torsions:
REMARK  status: ('A' for Active; 'I' for Inactive)
REMARK    1  A    between atoms: C_3  and  O_4
REMARK    2  A    between atoms: O_4  and  C_5
REMARK    3  A    between atoms: C_6  and  C_7
REMARK                            x       y       z     vdW  Elec       q    Type
REMARK                         _______ _______ _______ _____ _____    ______ ____
ROOT
ATOM      1  O   LIG A   1      -7.400   2.467 126.865  0.00  0.00    -0.283 OA
ATOM      2  C   LIG A   1      -7.593   2.033 125.736  0.00  0.00    +0.235 A 
ATOM      3  C   LIG A   1      -7.440   2.858 124.497  0.00  0.00    +0.210 A 
ATOM      4  C   LIG A   1      -7.680   2.246 123.320  0.00  0.00    +0.181 A 
ATOM      5  O   LIG A   1      -8.047   0.925 123.153  0.00  0.00    -0.450 OA
ATOM      6  C   LIG A   1      -8.004   0.628 125.560  0.00  0.00    +0.069 A 
ATOM      7  C   LIG A   1      -8.218   0.146 124.266  0.00  0.00    +0.150 A 
ATOM      8  C   LIG A   1      -8.629  -1.192 124.104  0.00  0.00    +0.063 A 
ATOM      9  C   LIG A   1      -8.948  -2.035 123.005  0.00  0.00    +0.053 A 
ATOM     10  C   LIG A   1      -9.287  -3.258 123.537  0.00  0.00    +0.196 A 
ATOM     11  O   LIG A   1      -9.196  -3.231 124.891  0.00  0.00    -0.463 OA
ATOM     12  C   LIG A   1      -8.797  -1.977 125.238  0.00  0.00    +0.138 A 
ATOM     13  C   LIG A   1      -8.586  -1.530 126.540  0.00  0.00    +0.048 A 
ATOM     14  C   LIG A   1      -8.183  -0.197 126.681  0.00  0.00    +0.019 A 
ENDROOT
BRANCH   4  15
ATOM     15  C   LIG A   1      -7.559   2.959 122.040  0.00  0.00    +0.021 A 
ATOM     16  C   LIG A   1      -8.704   3.387 121.356  0.00  0.00    +0.012 A 
ATOM     17  C   LIG A   1      -8.585   4.053 120.133  0.00  0.00    +0.001 A 
ATOM     18  C   LIG A   1      -7.324   4.294 119.589  0.00  0.00    +0.000 A 
ATOM     19  C   LIG A   1      -6.180   3.871 120.266  0.00  0.00    +0.001 A 
ATOM     20  C   LIG A   1      -6.296   3.205 121.487  0.00  0.00    +0.012 A 
ENDBRANCH   4  15
BRANCH   3  21
ATOM     21  O   LIG A   1      -7.108   4.206 124.526  0.00  0.00    -0.488 OA
ATOM     22  C   LIG A   1      -5.754   4.525 124.823  0.00  0.00    +0.277 C 
ENDBRANCH   3  21
TORSDOF 2
ENDMDL
MODEL 3
REMARK VINA RESULT:      -7.5      6.528      8.039
REMARK  Name = NuBBE_1314
REMARK  3 active torsions:
REMARK  status: ('A' for Active; 'I' for Inactive)
REMARK    1  A    between atoms: C_3  and  O_4
REMARK    2  A    between atoms: O_4  and  C_5
REMARK    3  A    between atoms: C_6  and  C_7
REMARK                            x       y       z     vdW  Elec       q    Type
REMARK                         _______ _______ _______ _____ _____    ______ ____
ROOT
ATOM      1  O   LIG A   1      -8.991   5.004 133.644  0.00  0.00    -0.283 OA
ATOM      2  C   LIG A   1      -8.647   5.570 132.614  0.00  0.00    +0.235 A 
ATOM      3  C   LIG A   1      -7.225   5.650 132.152  0.00  0.00    +0.210 A 
ATOM      4  C   LIG A   1      -6.994   6.301 130.994  0.00  0.00    +0.181 A 
ATOM      5  O   LIG A   1      -7.948   6.895 130.193  0.00  0.00    -0.450 OA
ATOM      6  C   LIG A   1      -9.664   6.221 131.769  0.00  0.00    +0.069 A 
ATOM      7  C   LIG A   1      -9.257   6.860 130.596  0.00  0.00    +0.150 A 
ATOM      8  C   LIG A   1     -10.231   7.497 129.801  0.00  0.00    +0.063 A 
ATOM      9  C   LIG A   1     -10.233   8.236 128.587  0.00  0.00    +0.053 A 
ATOM     10  C   LIG A   1     -11.541   8.591 128.349  0.00  0.00    +0.196 A 
ATOM     11  O   LIG A   1     -12.350   8.120 129.331  0.00  0.00    -0.463 OA
ATOM     12  C   LIG A   1     -11.557   7.455 130.216  0.00  0.00    +0.138 A 
ATOM     13  C   LIG A   1     -11.997   6.821 131.375  0.00  0.00    +0.048 A 
ATOM     14  C   LIG A   1     -11.015   6.199 132.153  0.00  0.00    +0.019 A 
ENDROOT
BRANCH   4  15
ATOM     15  C   LIG A   1      -5.637   6.439 130.445  0.00  0.00    +0.021 A 
ATOM     16  C   LIG A   1      -4.919   7.629 130.620  0.00  0.00    +0.012 A 
ATOM     17  C   LIG A   1      -3.635   7.761 130.085  0.00  0.00    +0.001 A 
ATOM     18  C   LIG A   1      -3.064   6.708 129.373  0.00  0.00    +0.000 A 
ATOM     19  C   LIG A   1      -3.773   5.520 129.195  0.00  0.00    +0.001 A 
ATOM     20  C   LIG A   1      -5.056   5.385 129.728  0.00  0.00    +0.012 A 
ENDBRANCH   4  15
BRANCH   3  21
ATOM     21  O   LIG A   1      -6.166   5.124 132.879  0.00  0.00    -0.488 OA
ATOM     22  C   LIG A   1      -5.735   5.870 134.011  0.00  0.00    +0.277 C 
ENDBRANCH   3  21
TORSDOF 2
ENDMDL
MODEL 4
REMARK VINA RESULT:      -7.0      4.368      7.179
REMARK  Name = NuBBE_1314
REMARK  3 active torsions:
REMARK  status: ('A' for Active; 'I' for Inactive)
REMARK    1  A    between atoms: C_3  and  O_4
REMARK    2  A    between atoms: O_4  and  C_5
REMARK    3  A    between atoms: C_6  and  C_7
REMARK                            x       y       z     vdW  Elec       q    Type
REMARK                         _______ _______ _______ _____ _____    ______ ____
ROOT
ATOM      1  O   LIG A   1      -9.506  -2.170 123.966  0.00  0.00    -0.283 OA
ATOM      2  C   LIG A   1      -8.938  -1.470 124.794  0.00  0.00    +0.235 A 
ATOM      3  C   LIG A   1      -8.468  -0.076 124.514  0.00  0.00    +0.210 A 
ATOM      4  C   LIG A   1      -7.860   0.579 125.524  0.00  0.00    +0.181 A 
ATOM      5  O   LIG A   1      -7.639   0.086 126.794  0.00  0.00    -0.450 OA
ATOM      6  C   LIG A   1      -8.684  -2.005 126.144  0.00  0.00    +0.069 A 
ATOM      7  C   LIG A   1      -8.036  -1.194 127.079  0.00  0.00    +0.150 A 
ATOM      8  C   LIG A   1      -7.780  -1.717 128.363  0.00  0.00    +0.063 A 
ATOM      9  C   LIG A   1      -7.162  -1.242 129.552  0.00  0.00    +0.053 A 
ATOM     10  C   LIG A   1      -7.234  -2.270 130.465  0.00  0.00    +0.196 A 
ATOM     11  O   LIG A   1      -7.857  -3.348 129.922  0.00  0.00    -0.463 OA
ATOM     12  C   LIG A   1      -8.188  -3.014 128.645  0.00  0.00    +0.138 A 
ATOM     13  C   LIG A   1      -8.842  -3.846 127.739  0.00  0.00    +0.048 A 
ATOM     14  C   LIG A   1      -9.084  -3.311 126.468  0.00  0.00    +0.019 A 
ENDROOT
BRANCH   4  15
ATOM     15  C   LIG A   1      -7.359   1.952 125.362  0.00  0.00    +0.021 A 
ATOM     16  C   LIG A   1      -6.018   2.183 125.031  0.00  0.00    +0.012 A 
ATOM     17  C   LIG A   1      -5.544   3.490 124.891  0.00  0.00    +0.001 A 
ATOM     18  C   LIG A   1      -6.405   4.570 125.081  0.00  0.00    +0.000 A 
ATOM     19  C   LIG A   1      -7.742   4.346 125.411  0.00  0.00    +0.001 A 
ATOM     20  C   LIG A   1      -8.219   3.042 125.551  0.00  0.00    +0.012 A 
ENDBRANCH   4  15
BRANCH   3  21
ATOM     21  O   LIG A   1      -8.598   0.527 123.270  0.00  0.00    -0.488 OA
ATOM     22  C   LIG A   1      -9.895   0.992 122.918  0.00  0.00    +0.277 C 
ENDBRANCH   3  21
TORSDOF 2
ENDMDL
MODEL 5
REMARK VINA RESULT:      -7.0      5.985      8.302
REMARK  Name = NuBBE_1314
REMARK  3 active torsions:
REMARK  status: ('A' for Active; 'I' for Inactive)
REMARK    1  A    between atoms: C_3  and  O_4
REMARK    2  A    between atoms: O_4  and  C_5
REMARK    3  A    between atoms: C_6  and  C_7
REMARK                            x       y       z     vdW  Elec       q    Type
REMARK                         _______ _______ _______ _____ _____    ______ ____
ROOT
ATOM      1  O   LIG A   1      -8.612   5.249 127.284  0.00  0.00    -0.283 OA
ATOM      2  C   LIG A   1      -9.079   5.642 128.345  0.00  0.00    +0.235 A 
ATOM      3  C   LIG A   1      -8.625   5.144 129.682  0.00  0.00    +0.210 A 
ATOM      4  C   LIG A   1      -9.226   5.670 130.767  0.00  0.00    +0.181 A 
ATOM      5  O   LIG A   1     -10.216   6.632 130.760  0.00  0.00    -0.450 OA
ATOM      6  C   LIG A   1     -10.151   6.654 128.335  0.00  0.00    +0.069 A 
ATOM      7  C   LIG A   1     -10.672   7.095 129.555  0.00  0.00    +0.150 A 
ATOM      8  C   LIG A   1     -11.709   8.049 129.539  0.00  0.00    +0.063 A 
ATOM      9  C   LIG A   1     -12.488   8.724 130.518  0.00  0.00    +0.053 A 
ATOM     10  C   LIG A   1     -13.354   9.543 129.830  0.00  0.00    +0.196 A 
ATOM     11  O   LIG A   1     -13.162   9.424 128.491  0.00  0.00    -0.463 OA
ATOM     12  C   LIG A   1     -12.164   8.516 128.312  0.00  0.00    +0.138 A 
ATOM     13  C   LIG A   1     -11.661   8.103 127.080  0.00  0.00    +0.048 A 
ATOM     14  C   LIG A   1     -10.636   7.152 127.116  0.00  0.00    +0.019 A 
ENDROOT
BRANCH   4  15
ATOM     15  C   LIG A   1      -8.858   5.256 132.130  0.00  0.00    +0.021 A 
ATOM     16  C   LIG A   1      -7.864   5.944 132.836  0.00  0.00    +0.012 A 
ATOM     17  C   LIG A   1      -7.510   5.538 134.125  0.00  0.00    +0.001 A 
ATOM     18  C   LIG A   1      -8.144   4.444 134.713  0.00  0.00    +0.000 A 
ATOM     19  C   LIG A   1      -9.134   3.755 134.014  0.00  0.00    +0.001 A 
ATOM     20  C   LIG A   1      -9.492   4.158 132.726  0.00  0.00    +0.012 A 
ENDBRANCH   4  15
BRANCH   3  21
ATOM     21  O   LIG A   1      -7.661   4.155 129.829  0.00  0.00    -0.488 OA
ATOM     22  C   LIG A   1      -8.066   2.821 129.551  0.00  0.00    +0.277 C 
ENDBRANCH   3  21
TORSDOF 2
ENDMDL
MODEL 6
REMARK VINA RESULT:      -7.0      6.057      6.945
REMARK  Name = NuBBE_1314
REMARK  3 active torsions:
REMARK  status: ('A' for Active; 'I' for Inactive)
REMARK    1  A    between atoms: C_3  and  O_4
REMARK    2  A    between atoms: O_4  and  C_5
REMARK    3  A    between atoms: C_6  and  C_7
REMARK                            x       y       z     vdW  Elec       q    Type
REMARK                         _______ _______ _______ _____ _____    ______ ____
ROOT
ATOM      1  O   LIG A   1      -9.682  -4.028 128.078  0.00  0.00    -0.283 OA
ATOM      2  C   LIG A   1      -8.626  -3.528 127.712  0.00  0.00    +0.235 A 
ATOM      3  C   LIG A   1      -7.489  -3.228 128.638  0.00  0.00    +0.210 A 
ATOM      4  C   LIG A   1      -6.384  -2.680 128.094  0.00  0.00    +0.181 A 
ATOM      5  O   LIG A   1      -6.202  -2.377 126.759  0.00  0.00    -0.450 OA
ATOM      6  C   LIG A   1      -8.440  -3.185 126.290  0.00  0.00    +0.069 A 
ATOM      7  C   LIG A   1      -7.229  -2.617 125.886  0.00  0.00    +0.150 A 
ATOM      8  C   LIG A   1      -7.064  -2.275 124.529  0.00  0.00    +0.063 A 
ATOM      9  C   LIG A   1      -6.033  -1.693 123.743  0.00  0.00    +0.053 A 
ATOM     10  C   LIG A   1      -6.515  -1.626 122.455  0.00  0.00    +0.196 A 
ATOM     11  O   LIG A   1      -7.774  -2.130 122.391  0.00  0.00    -0.463 OA
ATOM     12  C   LIG A   1      -8.111  -2.524 123.649  0.00  0.00    +0.138 A 
ATOM     13  C   LIG A   1      -9.326  -3.096 124.018  0.00  0.00    +0.048 A 
ATOM     14  C   LIG A   1      -9.473  -3.424 125.370  0.00  0.00    +0.019 A 
ENDROOT
BRANCH   4  15
ATOM     15  C   LIG A   1      -5.207  -2.346 128.909  0.00  0.00    +0.021 A 
ATOM     16  C   LIG A   1      -4.188  -3.288 129.103  0.00  0.00    +0.012 A 
ATOM     17  C   LIG A   1      -3.078  -2.970 129.890  0.00  0.00    +0.001 A 
ATOM     18  C   LIG A   1      -2.980  -1.713 130.485  0.00  0.00    +0.000 A 
ATOM     19  C   LIG A   1      -3.991  -0.771 130.296  0.00  0.00    +0.001 A 
ATOM     20  C   LIG A   1      -5.102  -1.085 129.511  0.00  0.00    +0.012 A 
ENDBRANCH   4  15
BRANCH   3  21
ATOM     21  O   LIG A   1      -7.553  -3.453 130.007  0.00  0.00    -0.488 OA
ATOM     22  C   LIG A   1      -8.054  -2.390 130.807  0.00  0.00    +0.277 C 
ENDBRANCH   3  21
TORSDOF 2
ENDMDL
MODEL 7
REMARK VINA RESULT:      -7.0      3.404      6.072
REMARK  Name = NuBBE_1314
REMARK  3 active torsions:
REMARK  status: ('A' for Active; 'I' for Inactive)
REMARK    1  A    between atoms: C_3  and  O_4
REMARK    2  A    between atoms: O_4  and  C_5
REMARK    3  A    between atoms: C_6  and  C_7
REMARK                            x       y       z     vdW  Elec       q    Type
REMARK                         _______ _______ _______ _____ _____    ______ ____
ROOT
ATOM      1  O   LIG A   1      -9.155   3.070 123.161  0.00  0.00    -0.283 OA
ATOM      2  C   LIG A   1      -8.438   2.315 123.805  0.00  0.00    +0.235 A 
ATOM      3  C   LIG A   1      -8.759   0.872 124.040  0.00  0.00    +0.210 A 
ATOM      4  C   LIG A   1      -7.875   0.158 124.764  0.00  0.00    +0.181 A 
ATOM      5  O   LIG A   1      -6.696   0.633 125.302  0.00  0.00    -0.450 OA
ATOM      6  C   LIG A   1      -7.189   2.829 124.397  0.00  0.00    +0.069 A 
ATOM      7  C   LIG A   1      -6.380   1.954 125.126  0.00  0.00    +0.150 A 
ATOM      8  C   LIG A   1      -5.197   2.455 125.705  0.00  0.00    +0.063 A 
ATOM      9  C   LIG A   1      -4.144   1.921 126.497  0.00  0.00    +0.053 A 
ATOM     10  C   LIG A   1      -3.273   2.959 126.739  0.00  0.00    +0.196 A 
ATOM     11  O   LIG A   1      -3.713   4.099 126.147  0.00  0.00    -0.463 OA
ATOM     12  C   LIG A   1      -4.882   3.796 125.519  0.00  0.00    +0.138 A 
ATOM     13  C   LIG A   1      -5.663   4.691 124.792  0.00  0.00    +0.048 A 
ATOM     14  C   LIG A   1      -6.836   4.177 124.229  0.00  0.00    +0.019 A 
ENDROOT
BRANCH   4  15
ATOM     15  C   LIG A   1      -8.088  -1.268 125.055  0.00  0.00    +0.021 A 
ATOM     16  C   LIG A   1      -8.778  -1.660 126.210  0.00  0.00    +0.012 A 
ATOM     17  C   LIG A   1      -8.966  -3.016 126.489  0.00  0.00    +0.001 A 
ATOM     18  C   LIG A   1      -8.467  -3.984 125.620  0.00  0.00    +0.000 A 
ATOM     19  C   LIG A   1      -7.779  -3.600 124.469  0.00  0.00    +0.001 A 
ATOM     20  C   LIG A   1      -7.589  -2.247 124.186  0.00  0.00    +0.012 A 
ENDBRANCH   4  15
BRANCH   3  21
ATOM     21  O   LIG A   1      -9.927   0.276 123.582  0.00  0.00    -0.488 OA
ATOM     22  C   LIG A   1      -9.963  -0.089 122.208  0.00  0.00    +0.277 C 
ENDBRANCH   3  21
TORSDOF 2
ENDMDL
MODEL 8
REMARK VINA RESULT:      -7.0      4.662      6.190
REMARK  Name = NuBBE_1314
REMARK  3 active torsions:
REMARK  status: ('A' for Active; 'I' for Inactive)
REMARK    1  A    between atoms: C_3  and  O_4
REMARK    2  A    between atoms: O_4  and  C_5
REMARK    3  A    between atoms: C_6  and  C_7
REMARK                            x       y       z     vdW  Elec       q    Type
REMARK                         _______ _______ _______ _____ _____    ______ ____
ROOT
ATOM      1  O   LIG A   1      -9.544  -1.860 123.500  0.00  0.00    -0.283 OA
ATOM      2  C   LIG A   1      -9.001  -1.363 124.478  0.00  0.00    +0.235 A 
ATOM      3  C   LIG A   1      -8.427  -2.167 125.603  0.00  0.00    +0.210 A 
ATOM      4  C   LIG A   1      -7.854  -1.484 126.614  0.00  0.00    +0.181 A 
ATOM      5  O   LIG A   1      -7.741  -0.111 126.704  0.00  0.00    -0.450 OA
ATOM      6  C   LIG A   1      -8.898   0.105 124.583  0.00  0.00    +0.069 A 
ATOM      7  C   LIG A   1      -8.274   0.658 125.703  0.00  0.00    +0.150 A 
ATOM      8  C   LIG A   1      -8.194   2.061 125.807  0.00  0.00    +0.063 A 
ATOM      9  C   LIG A   1      -7.670   2.986 126.751  0.00  0.00    +0.053 A 
ATOM     10  C   LIG A   1      -7.925   4.242 126.249  0.00  0.00    +0.196 A 
ATOM     11  O   LIG A   1      -8.569   4.158 125.057  0.00  0.00    -0.463 OA
ATOM     12  C   LIG A   1      -8.735   2.834 124.787  0.00  0.00    +0.138 A 
ATOM     13  C   LIG A   1      -9.357   2.315 123.654  0.00  0.00    +0.048 A 
ATOM     14  C   LIG A   1      -9.430   0.920 123.571  0.00  0.00    +0.019 A 
ENDROOT
BRANCH   4  15
ATOM     15  C   LIG A   1      -7.258  -2.171 127.769  0.00  0.00    +0.021 A 
ATOM     16  C   LIG A   1      -8.074  -2.705 128.775  0.00  0.00    +0.012 A 
ATOM     17  C   LIG A   1      -7.502  -3.346 129.877  0.00  0.00    +0.001 A 
ATOM     18  C   LIG A   1      -6.117  -3.455 129.981  0.00  0.00    +0.000 A 
ATOM     19  C   LIG A   1      -5.299  -2.925 128.983  0.00  0.00    +0.001 A 
ATOM     20  C   LIG A   1      -5.866  -2.285 127.880  0.00  0.00    +0.012 A 
ENDBRANCH   4  15
BRANCH   3  21
ATOM     21  O   LIG A   1      -8.503  -3.553 125.653  0.00  0.00    -0.488 OA
ATOM     22  C   LIG A   1      -7.722  -4.270 124.705  0.00  0.00    +0.277 C 
ENDBRANCH   3  21
TORSDOF 2
ENDMDL
MODEL 9
REMARK VINA RESULT:      -6.7      5.189      8.809
REMARK  Name = NuBBE_1314
REMARK  3 active torsions:
REMARK  status: ('A' for Active; 'I' for Inactive)
REMARK    1  A    between atoms: C_3  and  O_4
REMARK    2  A    between atoms: O_4  and  C_5
REMARK    3  A    between atoms: C_6  and  C_7
REMARK                            x       y       z     vdW  Elec       q    Type
REMARK                         _______ _______ _______ _____ _____    ______ ____
ROOT
ATOM      1  O   LIG A   1      -8.637   2.344 128.113  0.00  0.00    -0.283 OA
ATOM      2  C   LIG A   1      -8.285   1.175 128.209  0.00  0.00    +0.235 A 
ATOM      3  C   LIG A   1      -7.946   0.315 127.032  0.00  0.00    +0.210 A 
ATOM      4  C   LIG A   1      -7.568  -0.953 127.289  0.00  0.00    +0.181 A 
ATOM      5  O   LIG A   1      -7.458  -1.529 128.538  0.00  0.00    -0.450 OA
ATOM      6  C   LIG A   1      -8.186   0.555 129.543  0.00  0.00    +0.069 A 
ATOM      7  C   LIG A   1      -7.780  -0.779 129.638  0.00  0.00    +0.150 A 
ATOM      8  C   LIG A   1      -7.705  -1.372 130.914  0.00  0.00    +0.063 A 
ATOM      9  C   LIG A   1      -7.360  -2.653 131.424  0.00  0.00    +0.053 A 
ATOM     10  C   LIG A   1      -7.499  -2.579 132.791  0.00  0.00    +0.196 A 
ATOM     11  O   LIG A   1      -7.905  -1.337 133.163  0.00  0.00    -0.463 OA
ATOM     12  C   LIG A   1      -8.032  -0.603 132.024  0.00  0.00    +0.138 A 
ATOM     13  C   LIG A   1      -8.432   0.730 131.965  0.00  0.00    +0.048 A 
ATOM     14  C   LIG A   1      -8.505   1.300 130.689  0.00  0.00    +0.019 A 
ENDROOT
BRANCH   4  15
ATOM     15  C   LIG A   1      -7.212  -1.886 126.209  0.00  0.00    +0.021 A 
ATOM     16  C   LIG A   1      -8.165  -2.778 125.700  0.00  0.00    +0.012 A 
ATOM     17  C   LIG A   1      -7.818  -3.671 124.683  0.00  0.00    +0.001 A 
ATOM     18  C   LIG A   1      -6.521  -3.679 124.172  0.00  0.00    +0.000 A 
ATOM     19  C   LIG A   1      -5.568  -2.794 124.675  0.00  0.00    +0.001 A 
ATOM     20  C   LIG A   1      -5.911  -1.899 125.691  0.00  0.00    +0.012 A 
ENDBRANCH   4  15
BRANCH   3  21
ATOM     21  O   LIG A   1      -8.047   0.760 125.720  0.00  0.00    -0.488 OA
ATOM     22  C   LIG A   1      -9.353   0.801 125.158  0.00  0.00    +0.277 C 
ENDBRANCH   3  21
TORSDOF 2
ENDMDL
