MODEL 1
REMARK VINA RESULT:      -6.5      0.000      0.000
REMARK  Name = NuBBE_1878
REMARK  14 active torsions:
REMARK  status: ('A' for Active; 'I' for Inactive)
REMARK    1  A    between atoms: C_4  and  O_30
REMARK    2  A    between atoms: C_5  and  O_6
REMARK    3  A    between atoms: O_6  and  C_7
REMARK    4  A    between atoms: C_8  and  O_28
REMARK    5  A    between atoms: C_12  and  C_13
REMARK    6  A    between atoms: C_16  and  O_23
REMARK    7  A    between atoms: C_17  and  O_18
REMARK    8  A    between atoms: O_18  and  C_19
REMARK    9  A    between atoms: C_20  and  O_21
REMARK   10  A    between atoms: O_21  and  C_22
REMARK   11  A    between atoms: O_23  and  C_24
REMARK   12  A    between atoms: C_25  and  O_26
REMARK   13  A    between atoms: O_26  and  C_27
REMARK   14  A    between atoms: O_28  and  C_29
REMARK                            x       y       z     vdW  Elec       q    Type
REMARK                         _______ _______ _______ _____ _____    ______ ____
ROOT
ATOM      1  O   LIG A   1      -7.448  -1.760 128.801  0.00  0.00    -0.283 OA
ATOM      2  C   LIG A   1      -7.809  -0.600 128.435  0.00  0.00    +0.238 A 
ATOM      3  C   LIG A   1      -8.185  -0.466 127.057  0.00  0.00    +0.113 A 
ATOM      4  C   LIG A   1      -8.087  -1.519 126.119  0.00  0.00    +0.177 A 
ATOM      5  C   LIG A   1      -8.357  -1.271 124.773  0.00  0.00    +0.204 A 
ATOM      6  C   LIG A   1      -8.776   0.025 124.375  0.00  0.00    +0.169 A 
ATOM      7  C   LIG A   1      -8.918   1.033 125.334  0.00  0.00    +0.096 A 
ATOM      8  C   LIG A   1      -8.634   0.791 126.669  0.00  0.00    +0.147 A 
ATOM      9  O   LIG A   1      -8.831   1.809 127.543  0.00  0.00    -0.451 OA
ATOM     10  C   LIG A   1      -8.412   1.722 128.866  0.00  0.00    +0.184 A 
ATOM     11  C   LIG A   1      -7.848   0.555 129.352  0.00  0.00    +0.211 A 
ENDROOT
BRANCH  10  12
ATOM     12  C   LIG A   1      -8.755   3.002 129.645  0.00  0.00    +0.067 A 
ATOM     13  C   LIG A   1     -10.035   3.139 130.196  0.00  0.00    +0.019 A 
ATOM     14  C   LIG A   1     -10.476   4.320 130.791  0.00  0.00    +0.050 A 
ATOM     15  C   LIG A   1      -9.679   5.466 130.819  0.00  0.00    +0.165 A 
ATOM     16  C   LIG A   1      -8.357   5.393 130.365  0.00  0.00    +0.204 A 
ATOM     17  C   LIG A   1      -7.878   4.151 129.810  0.00  0.00    +0.176 A 
BRANCH  16  18
ATOM     18  O   LIG A   1      -7.606   6.530 130.160  0.00  0.00    -0.488 OA
ATOM     19  C   LIG A   1      -6.701   7.002 131.164  0.00  0.00    +0.277 C 
ENDBRANCH  16  18
BRANCH  17  20
ATOM     20  O   LIG A   1      -6.568   3.974 129.389  0.00  0.00    -0.491 OA
ATOM     21  C   LIG A   1      -5.580   3.561 130.330  0.00  0.00    +0.277 C 
ENDBRANCH  17  20
BRANCH  15  22
ATOM     22  O   LIG A   1     -10.347   6.551 131.309  0.00  0.00    -0.491 OA
ATOM     23  C   LIG A   1     -11.747   6.439 131.521  0.00  0.00    +0.277 C 
ENDBRANCH  15  22
ENDBRANCH  10  12
BRANCH   5  24
ATOM     24  O   LIG A   1      -8.230  -2.193 123.758  0.00  0.00    -0.488 OA
ATOM     25  C   LIG A   1      -9.316  -3.094 123.564  0.00  0.00    +0.277 C 
ENDBRANCH   5  24
BRANCH  11  26
ATOM     26  O   LIG A   1      -7.333   0.480 130.636  0.00  0.00    -0.488 OA
ATOM     27  C   LIG A   1      -8.190   0.029 131.692  0.00  0.00    +0.277 C 
ENDBRANCH  11  26
BRANCH   6  28
ATOM     28  O   LIG A   1      -8.956   0.243 123.034  0.00  0.00    -0.491 OA
ATOM     29  C   LIG A   1     -10.253   0.644 122.604  0.00  0.00    +0.277 C 
ENDBRANCH   6  28
BRANCH   4  30
ATOM     30  O   LIG A   1      -7.674  -2.756 126.537  0.00  0.00    -0.503 OA
ATOM     31  H   LIG A   1      -7.279  -3.237 125.783  0.00  0.00    +0.292 HD
ENDBRANCH   4  30
TORSDOF 8
ENDMDL
MODEL 2
REMARK VINA RESULT:      -6.3      2.881      4.935
REMARK  Name = NuBBE_1878
REMARK  14 active torsions:
REMARK  status: ('A' for Active; 'I' for Inactive)
REMARK    1  A    between atoms: C_4  and  O_30
REMARK    2  A    between atoms: C_5  and  O_6
REMARK    3  A    between atoms: O_6  and  C_7
REMARK    4  A    between atoms: C_8  and  O_28
REMARK    5  A    between atoms: C_12  and  C_13
REMARK    6  A    between atoms: C_16  and  O_23
REMARK    7  A    between atoms: C_17  and  O_18
REMARK    8  A    between atoms: O_18  and  C_19
REMARK    9  A    between atoms: C_20  and  O_21
REMARK   10  A    between atoms: O_21  and  C_22
REMARK   11  A    between atoms: O_23  and  C_24
REMARK   12  A    between atoms: C_25  and  O_26
REMARK   13  A    between atoms: O_26  and  C_27
REMARK   14  A    between atoms: O_28  and  C_29
REMARK                            x       y       z     vdW  Elec       q    Type
REMARK                         _______ _______ _______ _____ _____    ______ ____
ROOT
ATOM      1  O   LIG A   1      -9.681   2.034 124.598  0.00  0.00    -0.283 OA
ATOM      2  C   LIG A   1      -8.536   1.768 125.076  0.00  0.00    +0.238 A 
ATOM      3  C   LIG A   1      -7.955   0.525 124.655  0.00  0.00    +0.113 A 
ATOM      4  C   LIG A   1      -8.625  -0.407 123.832  0.00  0.00    +0.177 A 
ATOM      5  C   LIG A   1      -8.036  -1.644 123.570  0.00  0.00    +0.204 A 
ATOM      6  C   LIG A   1      -6.749  -1.927 124.095  0.00  0.00    +0.169 A 
ATOM      7  C   LIG A   1      -6.085  -0.963 124.860  0.00  0.00    +0.096 A 
ATOM      8  C   LIG A   1      -6.676   0.260 125.133  0.00  0.00    +0.147 A 
ATOM      9  O   LIG A   1      -5.954   1.155 125.852  0.00  0.00    -0.451 OA
ATOM     10  C   LIG A   1      -6.521   2.334 126.325  0.00  0.00    +0.184 A 
ATOM     11  C   LIG A   1      -7.827   2.666 126.007  0.00  0.00    +0.211 A 
ENDROOT
BRANCH  10  12
ATOM     12  C   LIG A   1      -5.495   3.173 127.103  0.00  0.00    +0.067 A 
ATOM     13  C   LIG A   1      -4.577   3.955 126.392  0.00  0.00    +0.019 A 
ATOM     14  C   LIG A   1      -3.526   4.631 127.009  0.00  0.00    +0.050 A 
ATOM     15  C   LIG A   1      -3.289   4.518 128.380  0.00  0.00    +0.165 A 
ATOM     16  C   LIG A   1      -4.206   3.824 129.179  0.00  0.00    +0.204 A 
ATOM     17  C   LIG A   1      -5.332   3.179 128.549  0.00  0.00    +0.176 A 
BRANCH  16  18
ATOM     18  O   LIG A   1      -3.911   3.491 130.483  0.00  0.00    -0.488 OA
ATOM     19  C   LIG A   1      -4.190   4.400 131.553  0.00  0.00    +0.277 C 
ENDBRANCH  16  18
BRANCH  17  20
ATOM     20  O   LIG A   1      -6.318   2.520 129.270  0.00  0.00    -0.491 OA
ATOM     21  C   LIG A   1      -7.369   3.272 129.868  0.00  0.00    +0.277 C 
ENDBRANCH  17  20
BRANCH  15  22
ATOM     22  O   LIG A   1      -2.131   5.132 128.761  0.00  0.00    -0.491 OA
ATOM     23  C   LIG A   1      -2.120   6.551 128.847  0.00  0.00    +0.277 C 
ENDBRANCH  15  22
ENDBRANCH  10  12
BRANCH   5  24
ATOM     24  O   LIG A   1      -8.619  -2.659 122.844  0.00  0.00    -0.488 OA
ATOM     25  C   LIG A   1      -9.620  -3.431 123.501  0.00  0.00    +0.277 C 
ENDBRANCH   5  24
BRANCH  11  26
ATOM     26  O   LIG A   1      -8.442   3.782 126.549  0.00  0.00    -0.488 OA
ATOM     27  C   LIG A   1      -8.275   5.044 125.889  0.00  0.00    +0.277 C 
ENDBRANCH  11  26
BRANCH   6  28
ATOM     28  O   LIG A   1      -6.243  -3.182 123.877  0.00  0.00    -0.491 OA
ATOM     29  C   LIG A   1      -4.867  -3.282 123.528  0.00  0.00    +0.277 C 
ENDBRANCH   6  28
BRANCH   4  30
ATOM     30  O   LIG A   1      -9.869  -0.104 123.347  0.00  0.00    -0.503 OA
ATOM     31  H   LIG A   1      -9.779   0.357 122.490  0.00  0.00    +0.292 HD
ENDBRANCH   4  30
TORSDOF 8
ENDMDL
MODEL 3
REMARK VINA RESULT:      -6.2      3.234      7.672
REMARK  Name = NuBBE_1878
REMARK  14 active torsions:
REMARK  status: ('A' for Active; 'I' for Inactive)
REMARK    1  A    between atoms: C_4  and  O_30
REMARK    2  A    between atoms: C_5  and  O_6
REMARK    3  A    between atoms: O_6  and  C_7
REMARK    4  A    between atoms: C_8  and  O_28
REMARK    5  A    between atoms: C_12  and  C_13
REMARK    6  A    between atoms: C_16  and  O_23
REMARK    7  A    between atoms: C_17  and  O_18
REMARK    8  A    between atoms: O_18  and  C_19
REMARK    9  A    between atoms: C_20  and  O_21
REMARK   10  A    between atoms: O_21  and  C_22
REMARK   11  A    between atoms: O_23  and  C_24
REMARK   12  A    between atoms: C_25  and  O_26
REMARK   13  A    between atoms: O_26  and  C_27
REMARK   14  A    between atoms: O_28  and  C_29
REMARK                            x       y       z     vdW  Elec       q    Type
REMARK                         _______ _______ _______ _____ _____    ______ ____
ROOT
ATOM      1  O   LIG A   1      -9.097   4.433 132.780  0.00  0.00    -0.283 OA
ATOM      2  C   LIG A   1      -8.827   4.619 131.554  0.00  0.00    +0.238 A 
ATOM      3  C   LIG A   1      -9.726   5.477 130.837  0.00  0.00    +0.113 A 
ATOM      4  C   LIG A   1     -10.897   6.027 131.407  0.00  0.00    +0.177 A 
ATOM      5  C   LIG A   1     -11.778   6.752 130.606  0.00  0.00    +0.204 A 
ATOM      6  C   LIG A   1     -11.461   6.968 129.240  0.00  0.00    +0.169 A 
ATOM      7  C   LIG A   1     -10.267   6.459 128.717  0.00  0.00    +0.096 A 
ATOM      8  C   LIG A   1      -9.398   5.726 129.509  0.00  0.00    +0.147 A 
ATOM      9  O   LIG A   1      -8.245   5.298 128.938  0.00  0.00    -0.451 OA
ATOM     10  C   LIG A   1      -7.395   4.412 129.592  0.00  0.00    +0.184 A 
ATOM     11  C   LIG A   1      -7.666   4.000 130.886  0.00  0.00    +0.211 A 
ENDROOT
BRANCH  10  12
ATOM     12  C   LIG A   1      -6.161   4.088 128.736  0.00  0.00    +0.067 A 
ATOM     13  C   LIG A   1      -4.916   4.603 129.116  0.00  0.00    +0.019 A 
ATOM     14  C   LIG A   1      -3.776   4.479 128.324  0.00  0.00    +0.050 A 
ATOM     15  C   LIG A   1      -3.823   3.880 127.064  0.00  0.00    +0.165 A 
ATOM     16  C   LIG A   1      -5.008   3.266 126.641  0.00  0.00    +0.204 A 
ATOM     17  C   LIG A   1      -6.172   3.335 127.490  0.00  0.00    +0.176 A 
BRANCH  16  18
ATOM     18  O   LIG A   1      -5.179   2.864 125.334  0.00  0.00    -0.488 OA
ATOM     19  C   LIG A   1      -5.609   3.791 124.332  0.00  0.00    +0.277 C 
ENDBRANCH  16  18
BRANCH  17  20
ATOM     20  O   LIG A   1      -7.368   2.707 127.176  0.00  0.00    -0.491 OA
ATOM     21  C   LIG A   1      -7.549   1.336 127.517  0.00  0.00    +0.277 C 
ENDBRANCH  17  20
BRANCH  15  22
ATOM     22  O   LIG A   1      -2.641   3.992 126.390  0.00  0.00    -0.491 OA
ATOM     23  C   LIG A   1      -1.635   3.018 126.633  0.00  0.00    +0.277 C 
ENDBRANCH  15  22
ENDBRANCH  10  12
BRANCH   5  24
ATOM     24  O   LIG A   1     -12.981   7.275 131.027  0.00  0.00    -0.488 OA
ATOM     25  C   LIG A   1     -12.944   8.555 131.652  0.00  0.00    +0.277 C 
ENDBRANCH   5  24
BRANCH  11  26
ATOM     26  O   LIG A   1      -6.890   3.044 131.518  0.00  0.00    -0.488 OA
ATOM     27  C   LIG A   1      -5.879   3.480 132.436  0.00  0.00    +0.277 C 
ENDBRANCH  11  26
BRANCH   6  28
ATOM     28  O   LIG A   1     -12.392   7.619 128.474  0.00  0.00    -0.491 OA
ATOM     29  C   LIG A   1     -12.597   7.144 127.147  0.00  0.00    +0.277 C 
ENDBRANCH   6  28
BRANCH   4  30
ATOM     30  O   LIG A   1     -11.175   5.794 132.727  0.00  0.00    -0.503 OA
ATOM     31  H   LIG A   1     -10.520   5.165 133.089  0.00  0.00    +0.292 HD
ENDBRANCH   4  30
TORSDOF 8
ENDMDL
MODEL 4
REMARK VINA RESULT:      -6.2      2.698      5.194
REMARK  Name = NuBBE_1878
REMARK  14 active torsions:
REMARK  status: ('A' for Active; 'I' for Inactive)
REMARK    1  A    between atoms: C_4  and  O_30
REMARK    2  A    between atoms: C_5  and  O_6
REMARK    3  A    between atoms: O_6  and  C_7
REMARK    4  A    between atoms: C_8  and  O_28
REMARK    5  A    between atoms: C_12  and  C_13
REMARK    6  A    between atoms: C_16  and  O_23
REMARK    7  A    between atoms: C_17  and  O_18
REMARK    8  A    between atoms: O_18  and  C_19
REMARK    9  A    between atoms: C_20  and  O_21
REMARK   10  A    between atoms: O_21  and  C_22
REMARK   11  A    between atoms: O_23  and  C_24
REMARK   12  A    between atoms: C_25  and  O_26
REMARK   13  A    between atoms: O_26  and  C_27
REMARK   14  A    between atoms: O_28  and  C_29
REMARK                            x       y       z     vdW  Elec       q    Type
REMARK                         _______ _______ _______ _____ _____    ______ ____
ROOT
ATOM      1  O   LIG A   1      -8.054   1.675 122.843  0.00  0.00    -0.283 OA
ATOM      2  C   LIG A   1      -7.613   1.627 124.032  0.00  0.00    +0.238 A 
ATOM      3  C   LIG A   1      -7.873   0.410 124.748  0.00  0.00    +0.113 A 
ATOM      4  C   LIG A   1      -8.643  -0.652 124.222  0.00  0.00    +0.177 A 
ATOM      5  C   LIG A   1      -8.949  -1.746 125.030  0.00  0.00    +0.204 A 
ATOM      6  C   LIG A   1      -8.439  -1.800 126.353  0.00  0.00    +0.169 A 
ATOM      7  C   LIG A   1      -7.631  -0.760 126.827  0.00  0.00    +0.096 A 
ATOM      8  C   LIG A   1      -7.340   0.335 126.030  0.00  0.00    +0.147 A 
ATOM      9  O   LIG A   1      -6.522   1.284 126.549  0.00  0.00    -0.451 OA
ATOM     10  C   LIG A   1      -6.312   2.496 125.901  0.00  0.00    +0.184 A 
ATOM     11  C   LIG A   1      -6.876   2.740 124.660  0.00  0.00    +0.211 A 
ENDROOT
BRANCH  10  12
ATOM     12  C   LIG A   1      -5.344   3.391 126.691  0.00  0.00    +0.067 A 
ATOM     13  C   LIG A   1      -3.967   3.163 126.584  0.00  0.00    +0.019 A 
ATOM     14  C   LIG A   1      -3.030   3.829 127.372  0.00  0.00    +0.050 A 
ATOM     15  C   LIG A   1      -3.418   4.729 128.366  0.00  0.00    +0.165 A 
ATOM     16  C   LIG A   1      -4.768   5.077 128.485  0.00  0.00    +0.204 A 
ATOM     17  C   LIG A   1      -5.733   4.437 127.625  0.00  0.00    +0.176 A 
BRANCH  16  18
ATOM     18  O   LIG A   1      -5.234   5.776 129.579  0.00  0.00    -0.488 OA
ATOM     19  C   LIG A   1      -5.333   5.148 130.862  0.00  0.00    +0.277 C 
ENDBRANCH  16  18
BRANCH  17  20
ATOM     20  O   LIG A   1      -7.081   4.764 127.636  0.00  0.00    -0.491 OA
ATOM     21  C   LIG A   1      -7.964   4.061 128.505  0.00  0.00    +0.277 C 
ENDBRANCH  17  20
BRANCH  15  22
ATOM     22  O   LIG A   1      -2.364   5.157 129.120  0.00  0.00    -0.491 OA
ATOM     23  C   LIG A   1      -1.970   6.518 129.012  0.00  0.00    +0.277 C 
ENDBRANCH  15  22
ENDBRANCH  10  12
BRANCH   5  24
ATOM     24  O   LIG A   1      -9.747  -2.806 124.658  0.00  0.00    -0.488 OA
ATOM     25  C   LIG A   1      -9.213  -3.707 123.693  0.00  0.00    +0.277 C 
ENDBRANCH   5  24
BRANCH  11  26
ATOM     26  O   LIG A   1      -6.763   3.975 124.044  0.00  0.00    -0.488 OA
ATOM     27  C   LIG A   1      -5.662   4.198 123.155  0.00  0.00    +0.277 C 
ENDBRANCH  11  26
BRANCH   6  28
ATOM     28  O   LIG A   1      -8.827  -2.856 127.134  0.00  0.00    -0.491 OA
ATOM     29  C   LIG A   1      -8.187  -3.008 128.397  0.00  0.00    +0.277 C 
ENDBRANCH   6  28
BRANCH   4  30
ATOM     30  O   LIG A   1      -9.125  -0.564 122.944  0.00  0.00    -0.503 OA
ATOM     31  H   LIG A   1      -9.899   0.033 122.930  0.00  0.00    +0.292 HD
ENDBRANCH   4  30
TORSDOF 8
ENDMDL
MODEL 5
REMARK VINA RESULT:      -6.2      3.737      6.569
REMARK  Name = NuBBE_1878
REMARK  14 active torsions:
REMARK  status: ('A' for Active; 'I' for Inactive)
REMARK    1  A    between atoms: C_4  and  O_30
REMARK    2  A    between atoms: C_5  and  O_6
REMARK    3  A    between atoms: O_6  and  C_7
REMARK    4  A    between atoms: C_8  and  O_28
REMARK    5  A    between atoms: C_12  and  C_13
REMARK    6  A    between atoms: C_16  and  O_23
REMARK    7  A    between atoms: C_17  and  O_18
REMARK    8  A    between atoms: O_18  and  C_19
REMARK    9  A    between atoms: C_20  and  O_21
REMARK   10  A    between atoms: O_21  and  C_22
REMARK   11  A    between atoms: O_23  and  C_24
REMARK   12  A    between atoms: C_25  and  O_26
REMARK   13  A    between atoms: O_26  and  C_27
REMARK   14  A    between atoms: O_28  and  C_29
REMARK                            x       y       z     vdW  Elec       q    Type
REMARK                         _______ _______ _______ _____ _____    ______ ____
ROOT
ATOM      1  O   LIG A   1      -9.733  -1.716 125.110  0.00  0.00    -0.283 OA
ATOM      2  C   LIG A   1      -8.808  -1.289 125.866  0.00  0.00    +0.238 A 
ATOM      3  C   LIG A   1      -8.462   0.095 125.712  0.00  0.00    +0.113 A 
ATOM      4  C   LIG A   1      -9.035   0.935 124.730  0.00  0.00    +0.177 A 
ATOM      5  C   LIG A   1      -8.555   2.235 124.570  0.00  0.00    +0.204 A 
ATOM      6  C   LIG A   1      -7.531   2.709 125.430  0.00  0.00    +0.169 A 
ATOM      7  C   LIG A   1      -7.022   1.874 126.429  0.00  0.00    +0.096 A 
ATOM      8  C   LIG A   1      -7.488   0.578 126.579  0.00  0.00    +0.147 A 
ATOM      9  O   LIG A   1      -6.970  -0.158 127.594  0.00  0.00    -0.451 OA
ATOM     10  C   LIG A   1      -7.241  -1.516 127.719  0.00  0.00    +0.184 A 
ATOM     11  C   LIG A   1      -8.116  -2.144 126.849  0.00  0.00    +0.211 A 
ENDROOT
BRANCH  10  12
ATOM     12  C   LIG A   1      -6.539  -2.114 128.949  0.00  0.00    +0.067 A 
ATOM     13  C   LIG A   1      -5.296  -2.737 128.785  0.00  0.00    +0.019 A 
ATOM     14  C   LIG A   1      -4.660  -3.429 129.814  0.00  0.00    +0.050 A 
ATOM     15  C   LIG A   1      -5.258  -3.592 131.065  0.00  0.00    +0.165 A 
ATOM     16  C   LIG A   1      -6.462  -2.932 131.340  0.00  0.00    +0.204 A 
ATOM     17  C   LIG A   1      -7.089  -2.160 130.295  0.00  0.00    +0.176 A 
BRANCH  16  18
ATOM     18  O   LIG A   1      -7.203  -3.234 132.462  0.00  0.00    -0.488 OA
ATOM     19  C   LIG A   1      -7.012  -2.512 133.683  0.00  0.00    +0.277 C 
ENDBRANCH  16  18
BRANCH  17  20
ATOM     20  O   LIG A   1      -8.251  -1.429 130.498  0.00  0.00    -0.491 OA
ATOM     21  C   LIG A   1      -8.164  -0.109 131.025  0.00  0.00    +0.277 C 
ENDBRANCH  17  20
BRANCH  15  22
ATOM     22  O   LIG A   1      -4.543  -4.422 131.879  0.00  0.00    -0.491 OA
ATOM     23  C   LIG A   1      -3.609  -3.839 132.778  0.00  0.00    +0.277 C 
ENDBRANCH  15  22
ENDBRANCH  10  12
BRANCH   5  24
ATOM     24  O   LIG A   1      -8.981   3.122 123.607  0.00  0.00    -0.488 OA
ATOM     25  C   LIG A   1      -8.451   2.954 122.295  0.00  0.00    +0.277 C 
ENDBRANCH   5  24
BRANCH  11  26
ATOM     26  O   LIG A   1      -8.322  -3.513 126.892  0.00  0.00    -0.488 OA
ATOM     27  C   LIG A   1      -9.231  -4.038 127.868  0.00  0.00    +0.277 C 
ENDBRANCH  11  26
BRANCH   6  28
ATOM     28  O   LIG A   1      -7.037   3.964 125.186  0.00  0.00    -0.491 OA
ATOM     29  C   LIG A   1      -5.712   4.060 124.674  0.00  0.00    +0.277 C 
ENDBRANCH   6  28
BRANCH   4  30
ATOM     30  O   LIG A   1     -10.017   0.442 123.914  0.00  0.00    -0.503 OA
ATOM     31  H   LIG A   1     -10.702   0.006 124.459  0.00  0.00    +0.292 HD
ENDBRANCH   4  30
TORSDOF 8
ENDMDL
MODEL 6
REMARK VINA RESULT:      -6.1      2.152      8.496
REMARK  Name = NuBBE_1878
REMARK  14 active torsions:
REMARK  status: ('A' for Active; 'I' for Inactive)
REMARK    1  A    between atoms: C_4  and  O_30
REMARK    2  A    between atoms: C_5  and  O_6
REMARK    3  A    between atoms: O_6  and  C_7
REMARK    4  A    between atoms: C_8  and  O_28
REMARK    5  A    between atoms: C_12  and  C_13
REMARK    6  A    between atoms: C_16  and  O_23
REMARK    7  A    between atoms: C_17  and  O_18
REMARK    8  A    between atoms: O_18  and  C_19
REMARK    9  A    between atoms: C_20  and  O_21
REMARK   10  A    between atoms: O_21  and  C_22
REMARK   11  A    between atoms: O_23  and  C_24
REMARK   12  A    between atoms: C_25  and  O_26
REMARK   13  A    between atoms: O_26  and  C_27
REMARK   14  A    between atoms: O_28  and  C_29
REMARK                            x       y       z     vdW  Elec       q    Type
REMARK                         _______ _______ _______ _____ _____    ______ ____
ROOT
ATOM      1  O   LIG A   1      -8.102   4.866 126.924  0.00  0.00    -0.283 OA
ATOM      2  C   LIG A   1      -7.974   3.670 127.329  0.00  0.00    +0.238 A 
ATOM      3  C   LIG A   1      -8.297   3.439 128.708  0.00  0.00    +0.113 A 
ATOM      4  C   LIG A   1      -8.654   4.470 129.607  0.00  0.00    +0.177 A 
ATOM      5  C   LIG A   1      -8.834   4.174 130.958  0.00  0.00    +0.204 A 
ATOM      6  C   LIG A   1      -8.704   2.832 131.400  0.00  0.00    +0.169 A 
ATOM      7  C   LIG A   1      -8.406   1.824 130.478  0.00  0.00    +0.096 A 
ATOM      8  C   LIG A   1      -8.212   2.119 129.138  0.00  0.00    +0.147 A 
ATOM      9  O   LIG A   1      -7.962   1.082 128.301  0.00  0.00    -0.451 OA
ATOM     10  C   LIG A   1      -7.582   1.290 126.979  0.00  0.00    +0.184 A 
ATOM     11  C   LIG A   1      -7.523   2.571 126.455  0.00  0.00    +0.211 A 
ENDROOT
BRANCH  10  12
ATOM     12  C   LIG A   1      -7.362  -0.042 126.246  0.00  0.00    +0.067 A 
ATOM     13  C   LIG A   1      -6.126  -0.688 126.368  0.00  0.00    +0.019 A 
ATOM     14  C   LIG A   1      -5.792  -1.820 125.626  0.00  0.00    +0.050 A 
ATOM     15  C   LIG A   1      -6.658  -2.346 124.666  0.00  0.00    +0.165 A 
ATOM     16  C   LIG A   1      -7.945  -1.812 124.537  0.00  0.00    +0.204 A 
ATOM     17  C   LIG A   1      -8.316  -0.681 125.352  0.00  0.00    +0.176 A 
BRANCH  16  18
ATOM     18  O   LIG A   1      -8.751  -2.136 123.467  0.00  0.00    -0.488 OA
ATOM     19  C   LIG A   1      -9.561  -3.317 123.490  0.00  0.00    +0.277 C 
ENDBRANCH  16  18
BRANCH  17  20
ATOM     20  O   LIG A   1      -9.587  -0.126 125.330  0.00  0.00    -0.491 OA
ATOM     21  C   LIG A   1      -9.907   0.853 124.347  0.00  0.00    +0.277 C 
ENDBRANCH  17  20
BRANCH  15  22
ATOM     22  O   LIG A   1      -6.086  -3.358 123.949  0.00  0.00    -0.491 OA
ATOM     23  C   LIG A   1      -4.731  -3.214 123.547  0.00  0.00    +0.277 C 
ENDBRANCH  15  22
ENDBRANCH  10  12
BRANCH   5  24
ATOM     24  O   LIG A   1      -9.112   5.100 131.940  0.00  0.00    -0.488 OA
ATOM     25  C   LIG A   1      -8.032   5.917 132.381  0.00  0.00    +0.277 C 
ENDBRANCH   5  24
BRANCH  11  26
ATOM     26  O   LIG A   1      -7.051   2.808 125.175  0.00  0.00    -0.488 OA
ATOM     27  C   LIG A   1      -5.672   3.162 125.009  0.00  0.00    +0.277 C 
ENDBRANCH  11  26
BRANCH   6  28
ATOM     28  O   LIG A   1      -8.814   2.601 132.746  0.00  0.00    -0.491 OA
ATOM     29  C   LIG A   1      -7.615   2.334 133.466  0.00  0.00    +0.277 C 
ENDBRANCH   6  28
BRANCH   4  30
ATOM     30  O   LIG A   1      -8.764   5.754 129.147  0.00  0.00    -0.503 OA
ATOM     31  H   LIG A   1      -9.088   6.330 129.868  0.00  0.00    +0.292 HD
ENDBRANCH   4  30
TORSDOF 8
ENDMDL
MODEL 7
REMARK VINA RESULT:      -6.0      2.815      4.579
REMARK  Name = NuBBE_1878
REMARK  14 active torsions:
REMARK  status: ('A' for Active; 'I' for Inactive)
REMARK    1  A    between atoms: C_4  and  O_30
REMARK    2  A    between atoms: C_5  and  O_6
REMARK    3  A    between atoms: O_6  and  C_7
REMARK    4  A    between atoms: C_8  and  O_28
REMARK    5  A    between atoms: C_12  and  C_13
REMARK    6  A    between atoms: C_16  and  O_23
REMARK    7  A    between atoms: C_17  and  O_18
REMARK    8  A    between atoms: O_18  and  C_19
REMARK    9  A    between atoms: C_20  and  O_21
REMARK   10  A    between atoms: O_21  and  C_22
REMARK   11  A    between atoms: O_23  and  C_24
REMARK   12  A    between atoms: C_25  and  O_26
REMARK   13  A    between atoms: O_26  and  C_27
REMARK   14  A    between atoms: O_28  and  C_29
REMARK                            x       y       z     vdW  Elec       q    Type
REMARK                         _______ _______ _______ _____ _____    ______ ____
ROOT
ATOM      1  O   LIG A   1      -9.512   1.811 125.604  0.00  0.00    -0.283 OA
ATOM      2  C   LIG A   1      -8.313   1.505 125.888  0.00  0.00    +0.238 A 
ATOM      3  C   LIG A   1      -7.754   0.410 125.149  0.00  0.00    +0.113 A 
ATOM      4  C   LIG A   1      -8.492  -0.358 124.219  0.00  0.00    +0.177 A 
ATOM      5  C   LIG A   1      -7.908  -1.481 123.635  0.00  0.00    +0.204 A 
ATOM      6  C   LIG A   1      -6.562  -1.806 123.946  0.00  0.00    +0.169 A 
ATOM      7  C   LIG A   1      -5.838  -0.996 124.826  0.00  0.00    +0.096 A 
ATOM      8  C   LIG A   1      -6.424   0.111 125.419  0.00  0.00    +0.147 A 
ATOM      9  O   LIG A   1      -5.646   0.867 126.233  0.00  0.00    -0.451 OA
ATOM     10  C   LIG A   1      -6.183   1.890 127.008  0.00  0.00    +0.184 A 
ATOM     11  C   LIG A   1      -7.525   2.218 126.911  0.00  0.00    +0.211 A 
ENDROOT
BRANCH  10  12
ATOM     12  C   LIG A   1      -5.096   2.592 127.835  0.00  0.00    +0.067 A 
ATOM     13  C   LIG A   1      -4.945   2.254 129.186  0.00  0.00    +0.019 A 
ATOM     14  C   LIG A   1      -4.086   2.939 130.043  0.00  0.00    +0.050 A 
ATOM     15  C   LIG A   1      -3.361   4.053 129.614  0.00  0.00    +0.165 A 
ATOM     16  C   LIG A   1      -3.389   4.409 128.260  0.00  0.00    +0.204 A 
ATOM     17  C   LIG A   1      -4.228   3.658 127.358  0.00  0.00    +0.176 A 
BRANCH  16  18
ATOM     18  O   LIG A   1      -2.883   5.616 127.827  0.00  0.00    -0.488 OA
ATOM     19  C   LIG A   1      -3.557   6.843 128.125  0.00  0.00    +0.277 C 
ENDBRANCH  16  18
BRANCH  17  20
ATOM     20  O   LIG A   1      -4.271   3.906 125.994  0.00  0.00    -0.491 OA
ATOM     21  C   LIG A   1      -5.317   4.715 125.463  0.00  0.00    +0.277 C 
ENDBRANCH  17  20
BRANCH  15  22
ATOM     22  O   LIG A   1      -2.699   4.668 130.637  0.00  0.00    -0.491 OA
ATOM     23  C   LIG A   1      -3.468   5.283 131.662  0.00  0.00    +0.277 C 
ENDBRANCH  15  22
ENDBRANCH  10  12
BRANCH   5  24
ATOM     24  O   LIG A   1      -8.544  -2.345 122.772  0.00  0.00    -0.488 OA
ATOM     25  C   LIG A   1      -9.456  -3.277 123.348  0.00  0.00    +0.277 C 
ENDBRANCH   5  24
BRANCH  11  26
ATOM     26  O   LIG A   1      -8.101   3.163 127.744  0.00  0.00    -0.488 OA
ATOM     27  C   LIG A   1      -8.646   2.729 128.996  0.00  0.00    +0.277 C 
ENDBRANCH  11  26
BRANCH   6  28
ATOM     28  O   LIG A   1      -6.054  -2.960 123.408  0.00  0.00    -0.491 OA
ATOM     29  C   LIG A   1      -5.088  -3.671 124.175  0.00  0.00    +0.277 C 
ENDBRANCH   6  28
BRANCH   4  30
ATOM     30  O   LIG A   1      -9.790  -0.019 123.947  0.00  0.00    -0.503 OA
ATOM     31  H   LIG A   1     -10.162  -0.652 123.302  0.00  0.00    +0.292 HD
ENDBRANCH   4  30
TORSDOF 8
ENDMDL
MODEL 8
REMARK VINA RESULT:      -6.0      3.838      8.912
REMARK  Name = NuBBE_1878
REMARK  14 active torsions:
REMARK  status: ('A' for Active; 'I' for Inactive)
REMARK    1  A    between atoms: C_4  and  O_30
REMARK    2  A    between atoms: C_5  and  O_6
REMARK    3  A    between atoms: O_6  and  C_7
REMARK    4  A    between atoms: C_8  and  O_28
REMARK    5  A    between atoms: C_12  and  C_13
REMARK    6  A    between atoms: C_16  and  O_23
REMARK    7  A    between atoms: C_17  and  O_18
REMARK    8  A    between atoms: O_18  and  C_19
REMARK    9  A    between atoms: C_20  and  O_21
REMARK   10  A    between atoms: O_21  and  C_22
REMARK   11  A    between atoms: O_23  and  C_24
REMARK   12  A    between atoms: C_25  and  O_26
REMARK   13  A    between atoms: O_26  and  C_27
REMARK   14  A    between atoms: O_28  and  C_29
REMARK                            x       y       z     vdW  Elec       q    Type
REMARK                         _______ _______ _______ _____ _____    ______ ____
ROOT
ATOM      1  O   LIG A   1      -7.991  -0.614 132.838  0.00  0.00    -0.283 OA
ATOM      2  C   LIG A   1      -7.530  -1.431 131.983  0.00  0.00    +0.238 A 
ATOM      3  C   LIG A   1      -6.816  -2.557 132.513  0.00  0.00    +0.113 A 
ATOM      4  C   LIG A   1      -6.551  -2.731 133.891  0.00  0.00    +0.177 A 
ATOM      5  C   LIG A   1      -5.747  -3.791 134.309  0.00  0.00    +0.204 A 
ATOM      6  C   LIG A   1      -5.249  -4.708 133.348  0.00  0.00    +0.169 A 
ATOM      7  C   LIG A   1      -5.574  -4.543 131.998  0.00  0.00    +0.096 A 
ATOM      8  C   LIG A   1      -6.360  -3.481 131.580  0.00  0.00    +0.147 A 
ATOM      9  O   LIG A   1      -6.661  -3.410 130.259  0.00  0.00    -0.451 OA
ATOM     10  C   LIG A   1      -7.292  -2.296 129.716  0.00  0.00    +0.184 A 
ATOM     11  C   LIG A   1      -7.703  -1.252 130.529  0.00  0.00    +0.211 A 
ENDROOT
BRANCH  10  12
ATOM     12  C   LIG A   1      -7.522  -2.465 128.207  0.00  0.00    +0.067 A 
ATOM     13  C   LIG A   1      -8.653  -3.164 127.766  0.00  0.00    +0.019 A 
ATOM     14  C   LIG A   1      -8.864  -3.487 126.427  0.00  0.00    +0.050 A 
ATOM     15  C   LIG A   1      -7.921  -3.183 125.444  0.00  0.00    +0.165 A 
ATOM     16  C   LIG A   1      -6.802  -2.413 125.784  0.00  0.00    +0.204 A 
ATOM     17  C   LIG A   1      -6.616  -2.020 127.159  0.00  0.00    +0.176 A 
BRANCH  16  18
ATOM     18  O   LIG A   1      -5.738  -2.276 124.918  0.00  0.00    -0.488 OA
ATOM     19  C   LIG A   1      -5.040  -3.426 124.426  0.00  0.00    +0.277 C 
ENDBRANCH  16  18
BRANCH  17  20
ATOM     20  O   LIG A   1      -5.567  -1.212 127.572  0.00  0.00    -0.491 OA
ATOM     21  C   LIG A   1      -5.535   0.154 127.169  0.00  0.00    +0.277 C 
ENDBRANCH  17  20
BRANCH  15  22
ATOM     22  O   LIG A   1      -8.246  -3.714 124.229  0.00  0.00    -0.491 OA
ATOM     23  C   LIG A   1      -9.472  -3.319 123.630  0.00  0.00    +0.277 C 
ENDBRANCH  15  22
ENDBRANCH  10  12
BRANCH   5  24
ATOM     24  O   LIG A   1      -5.361  -4.024 135.610  0.00  0.00    -0.488 OA
ATOM     25  C   LIG A   1      -4.379  -3.150 136.158  0.00  0.00    +0.277 C 
ENDBRANCH   5  24
BRANCH  11  26
ATOM     26  O   LIG A   1      -8.241  -0.091 129.999  0.00  0.00    -0.488 OA
ATOM     27  C   LIG A   1      -7.463   1.111 130.056  0.00  0.00    +0.277 C 
ENDBRANCH  11  26
BRANCH   6  28
ATOM     28  O   LIG A   1      -4.401  -5.688 133.795  0.00  0.00    -0.491 OA
ATOM     29  C   LIG A   1      -3.006  -5.489 133.595  0.00  0.00    +0.277 C 
ENDBRANCH   6  28
BRANCH   4  30
ATOM     30  O   LIG A   1      -7.043  -1.824 134.789  0.00  0.00    -0.503 OA
ATOM     31  H   LIG A   1      -7.526  -2.297 135.496  0.00  0.00    +0.292 HD
ENDBRANCH   4  30
TORSDOF 8
ENDMDL
MODEL 9
REMARK VINA RESULT:      -5.9      3.347      6.480
REMARK  Name = NuBBE_1878
REMARK  14 active torsions:
REMARK  status: ('A' for Active; 'I' for Inactive)
REMARK    1  A    between atoms: C_4  and  O_30
REMARK    2  A    between atoms: C_5  and  O_6
REMARK    3  A    between atoms: O_6  and  C_7
REMARK    4  A    between atoms: C_8  and  O_28
REMARK    5  A    between atoms: C_12  and  C_13
REMARK    6  A    between atoms: C_16  and  O_23
REMARK    7  A    between atoms: C_17  and  O_18
REMARK    8  A    between atoms: O_18  and  C_19
REMARK    9  A    between atoms: C_20  and  O_21
REMARK   10  A    between atoms: O_21  and  C_22
REMARK   11  A    between atoms: O_23  and  C_24
REMARK   12  A    between atoms: C_25  and  O_26
REMARK   13  A    between atoms: O_26  and  C_27
REMARK   14  A    between atoms: O_28  and  C_29
REMARK                            x       y       z     vdW  Elec       q    Type
REMARK                         _______ _______ _______ _____ _____    ______ ____
ROOT
ATOM      1  O   LIG A   1      -7.769   1.869 128.797  0.00  0.00    -0.283 OA
ATOM      2  C   LIG A   1      -7.694   0.607 128.914  0.00  0.00    +0.238 A 
ATOM      3  C   LIG A   1      -8.103  -0.153 127.768  0.00  0.00    +0.113 A 
ATOM      4  C   LIG A   1      -8.640   0.431 126.598  0.00  0.00    +0.177 A 
ATOM      5  C   LIG A   1      -9.125  -0.388 125.579  0.00  0.00    +0.204 A 
ATOM      6  C   LIG A   1      -9.023  -1.797 125.711  0.00  0.00    +0.169 A 
ATOM      7  C   LIG A   1      -8.435  -2.346 126.855  0.00  0.00    +0.096 A 
ATOM      8  C   LIG A   1      -7.968  -1.533 127.875  0.00  0.00    +0.147 A 
ATOM      9  O   LIG A   1      -7.378  -2.139 128.935  0.00  0.00    -0.451 OA
ATOM     10  C   LIG A   1      -7.037  -1.429 130.081  0.00  0.00    +0.184 A 
ATOM     11  C   LIG A   1      -7.221  -0.058 130.143  0.00  0.00    +0.211 A 
ENDROOT
BRANCH  10  12
ATOM     12  C   LIG A   1      -6.383  -2.343 131.129  0.00  0.00    +0.067 A 
ATOM     13  C   LIG A   1      -7.195  -2.988 132.070  0.00  0.00    +0.019 A 
ATOM     14  C   LIG A   1      -6.676  -3.717 133.139  0.00  0.00    +0.050 A 
ATOM     15  C   LIG A   1      -5.302  -3.797 133.370  0.00  0.00    +0.165 A 
ATOM     16  C   LIG A   1      -4.416  -3.251 132.433  0.00  0.00    +0.204 A 
ATOM     17  C   LIG A   1      -4.952  -2.554 131.290  0.00  0.00    +0.176 A 
BRANCH  16  18
ATOM     18  O   LIG A   1      -3.075  -3.103 132.717  0.00  0.00    -0.488 OA
ATOM     19  C   LIG A   1      -2.610  -1.998 133.500  0.00  0.00    +0.277 C 
ENDBRANCH  16  18
BRANCH  17  20
ATOM     20  O   LIG A   1      -4.149  -2.033 130.286  0.00  0.00    -0.491 OA
ATOM     21  C   LIG A   1      -3.663  -2.895 129.261  0.00  0.00    +0.277 C 
ENDBRANCH  17  20
BRANCH  15  22
ATOM     22  O   LIG A   1      -5.008  -4.427 134.545  0.00  0.00    -0.491 OA
ATOM     23  C   LIG A   1      -5.475  -5.757 134.728  0.00  0.00    +0.277 C 
ENDBRANCH  15  22
ENDBRANCH  10  12
BRANCH   5  24
ATOM     24  O   LIG A   1      -9.733   0.059 124.427  0.00  0.00    -0.488 OA
ATOM     25  C   LIG A   1      -8.879   0.475 123.366  0.00  0.00    +0.277 C 
ENDBRANCH   5  24
BRANCH  11  26
ATOM     26  O   LIG A   1      -6.984   0.652 131.308  0.00  0.00    -0.488 OA
ATOM     27  C   LIG A   1      -8.065   0.833 132.231  0.00  0.00    +0.277 C 
ENDBRANCH  11  26
BRANCH   6  28
ATOM     28  O   LIG A   1      -9.581  -2.563 124.720  0.00  0.00    -0.491 OA
ATOM     29  C   LIG A   1      -8.696  -3.315 123.898  0.00  0.00    +0.277 C 
ENDBRANCH   6  28
BRANCH   4  30
ATOM     30  O   LIG A   1      -8.728   1.794 126.508  0.00  0.00    -0.503 OA
ATOM     31  H   LIG A   1      -8.830   2.050 125.570  0.00  0.00    +0.292 HD
ENDBRANCH   4  30
TORSDOF 8
ENDMDL
