MODEL 1
REMARK VINA RESULT:      -9.2      0.000      0.000
REMARK  Name = NuBBE_546
REMARK  21 active torsions:
REMARK  status: ('A' for Active; 'I' for Inactive)
REMARK    1  A    between atoms: O_1  and  C_2
REMARK    2  A    between atoms: C_3  and  O_54
REMARK    3  A    between atoms: C_5  and  C_8
REMARK    4  A    between atoms: C_9  and  C_10
REMARK    5  A    between atoms: C_10  and  O_11
REMARK    6  A    between atoms: O_11  and  C_12
REMARK    7  A    between atoms: C_14  and  C_51
REMARK    8  A    between atoms: C_17  and  O_40
REMARK    9  A    between atoms: C_19  and  O_39
REMARK   10  A    between atoms: C_21  and  O_23
REMARK   11  A    between atoms: O_23  and  C_24
REMARK   12  A    between atoms: C_26  and  O_38
REMARK   13  A    between atoms: C_28  and  O_37
REMARK   14  A    between atoms: C_30  and  O_36
REMARK   15  A    between atoms: C_32  and  C_35
REMARK   16  A    between atoms: O_40  and  C_41
REMARK   17  A    between atoms: C_41  and  C_42
REMARK   18  A    between atoms: C_42  and  C_43
REMARK   19  A    between atoms: C_45  and  O_46
REMARK   20  A    between atoms: C_47  and  O_50
REMARK   21  A    between atoms: C_51  and  O_52
REMARK                            x       y       z     vdW  Elec       q    Type
REMARK                         _______ _______ _______ _____ _____    ______ ____
ROOT
ATOM      1  C   LIG A   1      -7.875   1.525 127.847  0.00  0.00    +0.239 C 
ATOM      2  C   LIG A   1      -6.664   2.560 127.763  0.00  0.00    +0.190 C 
ATOM      3  O   LIG A   1      -6.348   2.898 126.412  0.00  0.00    -0.339 OA
ATOM      4  C   LIG A   1      -7.490   3.319 125.702  0.00  0.00    +0.282 C 
ATOM      5  C   LIG A   1      -8.373   2.074 125.383  0.00  0.00    +0.203 C 
ATOM      6  C   LIG A   1      -8.265   0.936 126.468  0.00  0.00    +0.198 C 
ENDROOT
BRANCH   5   7
ATOM      7  O   LIG A   1      -9.728   2.462 125.094  0.00  0.00    -0.384 OA
ATOM      8  H   LIG A   1      -9.775   2.897 124.230  0.00  0.00    +0.210 HD
ENDBRANCH   5   7
BRANCH   4   9
ATOM      9  O   LIG A   1      -7.088   4.080 124.554  0.00  0.00    -0.348 OA
BRANCH   9  10
ATOM     10  C   LIG A   1      -5.977   3.480 123.898  0.00  0.00    +0.168 C 
BRANCH  10  11
ATOM     11  C   LIG A   1      -6.341   2.796 122.591  0.00  0.00    +0.063 C 
BRANCH  11  12
ATOM     12  C   LIG A   1      -6.205   3.739 121.410  0.00  0.00    -0.042 A 
ATOM     13  C   LIG A   1      -7.198   3.738 120.421  0.00  0.00    +0.052 A 
ATOM     14  C   LIG A   1      -7.035   4.528 119.286  0.00  0.00    +0.159 A 
ATOM     15  C   LIG A   1      -5.904   5.325 119.130  0.00  0.00    +0.158 A 
ATOM     16  C   LIG A   1      -4.931   5.370 120.108  0.00  0.00    +0.049 A 
ATOM     17  C   LIG A   1      -5.077   4.572 121.238  0.00  0.00    +0.007 A 
BRANCH  15  18
ATOM     18  O   LIG A   1      -5.731   6.058 117.994  0.00  0.00    -0.503 OA
ATOM     19  H   LIG A   1      -4.941   5.666 117.574  0.00  0.00    +0.292 HD
ENDBRANCH  15  18
BRANCH  14  20
ATOM     20  O   LIG A   1      -7.961   4.538 118.281  0.00  0.00    -0.503 OA
ATOM     21  H   LIG A   1      -7.491   4.405 117.440  0.00  0.00    +0.292 HD
ENDBRANCH  14  20
ENDBRANCH  11  12
ENDBRANCH  10  11
ENDBRANCH   9  10
ENDBRANCH   4   9
BRANCH   6  22
ATOM     22  O   LIG A   1      -7.317  -0.095 126.088  0.00  0.00    -0.339 OA
BRANCH  22  23
ATOM     23  C   LIG A   1      -7.730  -1.457 126.405  0.00  0.00    +0.282 C 
ATOM     24  C   LIG A   1      -8.960  -1.867 125.571  0.00  0.00    +0.201 C 
ATOM     25  C   LIG A   1      -8.655  -1.538 124.105  0.00  0.00    +0.179 C 
ATOM     26  C   LIG A   1      -7.421  -2.294 123.622  0.00  0.00    +0.174 C 
ATOM     27  C   LIG A   1      -6.325  -2.382 124.717  0.00  0.00    +0.149 C 
ATOM     28  O   LIG A   1      -6.765  -2.495 126.074  0.00  0.00    -0.343 OA
ATOM     29  C   LIG A   1      -5.239  -3.385 124.385  0.00  0.00    +0.040 C 
BRANCH  24  30
ATOM     30  O   LIG A   1      -9.170  -3.288 125.740  0.00  0.00    -0.384 OA
ATOM     31  H   LIG A   1      -9.138  -3.462 126.704  0.00  0.00    +0.210 HD
ENDBRANCH  24  30
BRANCH  25  32
ATOM     32  O   LIG A   1      -9.748  -1.859 123.238  0.00  0.00    -0.386 OA
ATOM     33  H   LIG A   1      -9.529  -2.734 122.859  0.00  0.00    +0.210 HD
ENDBRANCH  25  32
BRANCH  26  34
ATOM     34  O   LIG A   1      -7.068  -1.751 122.336  0.00  0.00    -0.387 OA
ATOM     35  H   LIG A   1      -7.517  -0.894 122.178  0.00  0.00    +0.210 HD
ENDBRANCH  26  34
ENDBRANCH  22  23
ENDBRANCH   6  22
BRANCH   1  36
ATOM     36  O   LIG A   1      -8.960   2.233 128.489  0.00  0.00    -0.453 OA
BRANCH  36  37
ATOM     37  C   LIG A   1      -8.974   2.433 129.841  0.00  0.00    +0.332 C 
ATOM     38  O   LIG A   1      -8.576   1.745 130.709  0.00  0.00    -0.246 OA
BRANCH  37  40
ATOM     39  C   LIG A   1      -9.586   4.791 129.566  0.00  0.00    +0.015 C 
ATOM     40  C   LIG A   1      -9.872   3.586 130.065  0.00  0.00    +0.092 C 
BRANCH  39  44
ATOM     41  C   LIG A   1     -12.040   8.181 129.943  0.00  0.00    +0.158 A 
ATOM     42  C   LIG A   1     -12.276   7.090 130.776  0.00  0.00    +0.159 A 
ATOM     43  C   LIG A   1     -11.485   5.960 130.684  0.00  0.00    +0.057 A 
ATOM     44  C   LIG A   1     -10.445   5.943 129.748  0.00  0.00    -0.021 A 
ATOM     45  C   LIG A   1     -10.208   7.043 128.916  0.00  0.00    +0.012 A 
ATOM     46  C   LIG A   1     -11.007   8.173 129.018  0.00  0.00    +0.050 A 
BRANCH  42  47
ATOM     47  O   LIG A   1     -13.311   7.168 131.664  0.00  0.00    -0.503 OA
ATOM     48  H   LIG A   1     -12.941   7.222 132.563  0.00  0.00    +0.292 HD
ENDBRANCH  42  47
BRANCH  41  49
ATOM     49  O   LIG A   1     -12.845   9.279 130.023  0.00  0.00    -0.503 OA
ATOM     50  H   LIG A   1     -13.296   9.182 130.886  0.00  0.00    +0.292 HD
ENDBRANCH  41  49
ENDBRANCH  39  44
ENDBRANCH  37  40
ENDBRANCH  36  37
ENDBRANCH   1  36
BRANCH   2  51
ATOM     51  C   LIG A   1      -5.286   2.192 128.346  0.00  0.00    +0.191 C 
BRANCH  51  52
ATOM     52  O   LIG A   1      -4.837   0.912 127.871  0.00  0.00    -0.392 OA
ATOM     53  H   LIG A   1      -4.164   1.096 127.181  0.00  0.00    +0.209 HD
ENDBRANCH  51  52
ENDBRANCH   2  51
TORSDOF 20
ENDMDL
MODEL 2
REMARK VINA RESULT:      -9.0      3.533      6.856
REMARK  Name = NuBBE_546
REMARK  21 active torsions:
REMARK  status: ('A' for Active; 'I' for Inactive)
REMARK    1  A    between atoms: O_1  and  C_2
REMARK    2  A    between atoms: C_3  and  O_54
REMARK    3  A    between atoms: C_5  and  C_8
REMARK    4  A    between atoms: C_9  and  C_10
REMARK    5  A    between atoms: C_10  and  O_11
REMARK    6  A    between atoms: O_11  and  C_12
REMARK    7  A    between atoms: C_14  and  C_51
REMARK    8  A    between atoms: C_17  and  O_40
REMARK    9  A    between atoms: C_19  and  O_39
REMARK   10  A    between atoms: C_21  and  O_23
REMARK   11  A    between atoms: O_23  and  C_24
REMARK   12  A    between atoms: C_26  and  O_38
REMARK   13  A    between atoms: C_28  and  O_37
REMARK   14  A    between atoms: C_30  and  O_36
REMARK   15  A    between atoms: C_32  and  C_35
REMARK   16  A    between atoms: O_40  and  C_41
REMARK   17  A    between atoms: C_41  and  C_42
REMARK   18  A    between atoms: C_42  and  C_43
REMARK   19  A    between atoms: C_45  and  O_46
REMARK   20  A    between atoms: C_47  and  O_50
REMARK   21  A    between atoms: C_51  and  O_52
REMARK                            x       y       z     vdW  Elec       q    Type
REMARK                         _______ _______ _______ _____ _____    ______ ____
ROOT
ATOM      1  C   LIG A   1      -5.114   3.145 127.153  0.00  0.00    +0.239 C 
ATOM      2  C   LIG A   1      -5.542   1.768 126.471  0.00  0.00    +0.190 C 
ATOM      3  O   LIG A   1      -6.914   1.776 126.075  0.00  0.00    -0.339 OA
ATOM      4  C   LIG A   1      -7.221   2.905 125.290  0.00  0.00    +0.282 C 
ATOM      5  C   LIG A   1      -7.284   4.160 126.213  0.00  0.00    +0.203 C 
ATOM      6  C   LIG A   1      -6.318   4.071 127.457  0.00  0.00    +0.198 C 
ENDROOT
BRANCH   5   7
ATOM      7  O   LIG A   1      -7.125   5.370 125.452  0.00  0.00    -0.384 OA
ATOM      8  H   LIG A   1      -6.620   5.195 124.645  0.00  0.00    +0.210 HD
ENDBRANCH   5   7
BRANCH   4   9
ATOM      9  O   LIG A   1      -8.415   2.654 124.535  0.00  0.00    -0.348 OA
BRANCH   9  10
ATOM     10  C   LIG A   1      -8.213   2.909 123.150  0.00  0.00    +0.168 C 
BRANCH  10  11
ATOM     11  C   LIG A   1      -6.805   2.596 122.673  0.00  0.00    +0.063 C 
BRANCH  11  12
ATOM     12  C   LIG A   1      -6.376   3.519 121.548  0.00  0.00    -0.042 A 
ATOM     13  C   LIG A   1      -5.305   4.398 121.759  0.00  0.00    +0.052 A 
ATOM     14  C   LIG A   1      -4.966   5.315 120.769  0.00  0.00    +0.159 A 
ATOM     15  C   LIG A   1      -5.671   5.360 119.569  0.00  0.00    +0.158 A 
ATOM     16  C   LIG A   1      -6.706   4.480 119.323  0.00  0.00    +0.049 A 
ATOM     17  C   LIG A   1      -7.062   3.571 120.314  0.00  0.00    +0.007 A 
BRANCH  15  18
ATOM     18  O   LIG A   1      -5.362   6.294 118.625  0.00  0.00    -0.503 OA
ATOM     19  H   LIG A   1      -5.024   5.771 117.872  0.00  0.00    +0.292 HD
ENDBRANCH  15  18
BRANCH  14  20
ATOM     20  O   LIG A   1      -3.949   6.212 120.940  0.00  0.00    -0.503 OA
ATOM     21  H   LIG A   1      -4.339   7.102 120.980  0.00  0.00    +0.292 HD
ENDBRANCH  14  20
ENDBRANCH  11  12
ENDBRANCH  10  11
ENDBRANCH   9  10
ENDBRANCH   4   9
BRANCH   6  22
ATOM     22  O   LIG A   1      -7.004   3.611 128.650  0.00  0.00    -0.339 OA
BRANCH  22  23
ATOM     23  C   LIG A   1      -8.373   4.093 128.797  0.00  0.00    +0.282 C 
ATOM     24  C   LIG A   1      -9.157   3.225 129.801  0.00  0.00    +0.201 C 
ATOM     25  C   LIG A   1      -8.305   3.101 131.069  0.00  0.00    +0.179 C 
ATOM     26  C   LIG A   1      -8.024   4.474 131.674  0.00  0.00    +0.174 C 
ATOM     27  C   LIG A   1      -7.772   5.550 130.584  0.00  0.00    +0.149 C 
ATOM     28  O   LIG A   1      -8.506   5.427 129.363  0.00  0.00    -0.343 OA
ATOM     29  C   LIG A   1      -7.809   6.963 131.132  0.00  0.00    +0.040 C 
BRANCH  24  30
ATOM     30  O   LIG A   1     -10.409   3.886 130.092  0.00  0.00    -0.384 OA
ATOM     31  H   LIG A   1     -10.231   4.514 130.823  0.00  0.00    +0.210 HD
ENDBRANCH  24  30
BRANCH  25  32
ATOM     32  O   LIG A   1      -8.931   2.289 132.068  0.00  0.00    -0.386 OA
ATOM     33  H   LIG A   1      -9.244   1.492 131.594  0.00  0.00    +0.210 HD
ENDBRANCH  25  32
BRANCH  26  34
ATOM     34  O   LIG A   1      -7.033   4.289 132.703  0.00  0.00    -0.387 OA
ATOM     35  H   LIG A   1      -6.330   3.672 132.410  0.00  0.00    +0.210 HD
ENDBRANCH  26  34
ENDBRANCH  22  23
ENDBRANCH   6  22
BRANCH   1  36
ATOM     36  O   LIG A   1      -4.146   3.746 126.263  0.00  0.00    -0.453 OA
BRANCH  36  37
ATOM     37  C   LIG A   1      -2.818   3.784 126.581  0.00  0.00    +0.332 C 
ATOM     38  O   LIG A   1      -1.900   3.269 126.053  0.00  0.00    -0.246 OA
BRANCH  37  40
ATOM     39  C   LIG A   1      -2.564   5.690 128.102  0.00  0.00    +0.015 C 
ATOM     40  C   LIG A   1      -2.748   4.379 127.933  0.00  0.00    +0.092 C 
BRANCH  39  44
ATOM     41  C   LIG A   1      -2.557   7.510 131.890  0.00  0.00    +0.158 A 
ATOM     42  C   LIG A   1      -1.436   6.783 131.496  0.00  0.00    +0.159 A 
ATOM     43  C   LIG A   1      -1.400   6.176 130.255  0.00  0.00    +0.057 A 
ATOM     44  C   LIG A   1      -2.505   6.316 129.408  0.00  0.00    -0.021 A 
ATOM     45  C   LIG A   1      -3.628   7.050 129.805  0.00  0.00    +0.012 A 
ATOM     46  C   LIG A   1      -3.652   7.656 131.053  0.00  0.00    +0.050 A 
BRANCH  42  47
ATOM     47  O   LIG A   1      -0.393   6.681 132.372  0.00  0.00    -0.503 OA
ATOM     48  H   LIG A   1       0.035   5.816 132.242  0.00  0.00    +0.292 HD
ENDBRANCH  42  47
BRANCH  41  49
ATOM     49  O   LIG A   1      -2.591   8.080 133.128  0.00  0.00    -0.503 OA
ATOM     50  H   LIG A   1      -1.650   8.212 133.357  0.00  0.00    +0.292 HD
ENDBRANCH  41  49
ENDBRANCH  39  44
ENDBRANCH  37  40
ENDBRANCH  36  37
ENDBRANCH   1  36
BRANCH   2  51
ATOM     51  C   LIG A   1      -5.428   0.445 127.254  0.00  0.00    +0.191 C 
BRANCH  51  52
ATOM     52  O   LIG A   1      -4.588   0.587 128.411  0.00  0.00    -0.392 OA
ATOM     53  H   LIG A   1      -5.188   0.597 129.187  0.00  0.00    +0.209 HD
ENDBRANCH  51  52
ENDBRANCH   2  51
TORSDOF 20
ENDMDL
MODEL 3
REMARK VINA RESULT:      -8.8      3.516      8.860
REMARK  Name = NuBBE_546
REMARK  21 active torsions:
REMARK  status: ('A' for Active; 'I' for Inactive)
REMARK    1  A    between atoms: O_1  and  C_2
REMARK    2  A    between atoms: C_3  and  O_54
REMARK    3  A    between atoms: C_5  and  C_8
REMARK    4  A    between atoms: C_9  and  C_10
REMARK    5  A    between atoms: C_10  and  O_11
REMARK    6  A    between atoms: O_11  and  C_12
REMARK    7  A    between atoms: C_14  and  C_51
REMARK    8  A    between atoms: C_17  and  O_40
REMARK    9  A    between atoms: C_19  and  O_39
REMARK   10  A    between atoms: C_21  and  O_23
REMARK   11  A    between atoms: O_23  and  C_24
REMARK   12  A    between atoms: C_26  and  O_38
REMARK   13  A    between atoms: C_28  and  O_37
REMARK   14  A    between atoms: C_30  and  O_36
REMARK   15  A    between atoms: C_32  and  C_35
REMARK   16  A    between atoms: O_40  and  C_41
REMARK   17  A    between atoms: C_41  and  C_42
REMARK   18  A    between atoms: C_42  and  C_43
REMARK   19  A    between atoms: C_45  and  O_46
REMARK   20  A    between atoms: C_47  and  O_50
REMARK   21  A    between atoms: C_51  and  O_52
REMARK                            x       y       z     vdW  Elec       q    Type
REMARK                         _______ _______ _______ _____ _____    ______ ____
ROOT
ATOM      1  C   LIG A   1      -6.933  -0.498 130.234  0.00  0.00    +0.239 C 
ATOM      2  C   LIG A   1      -5.819  -0.225 131.342  0.00  0.00    +0.190 C 
ATOM      3  O   LIG A   1      -6.128   0.924 132.133  0.00  0.00    -0.339 OA
ATOM      4  C   LIG A   1      -7.433   0.854 132.661  0.00  0.00    +0.282 C 
ATOM      5  C   LIG A   1      -8.455   1.133 131.517  0.00  0.00    +0.203 C 
ATOM      6  C   LIG A   1      -7.951   0.662 130.099  0.00  0.00    +0.198 C 
ENDROOT
BRANCH   5   7
ATOM      7  O   LIG A   1      -9.760   0.630 131.856  0.00  0.00    -0.384 OA
ATOM      8  H   LIG A   1      -9.911  -0.225 131.427  0.00  0.00    +0.210 HD
ENDBRANCH   5   7
BRANCH   4   9
ATOM      9  O   LIG A   1      -7.541   1.732 133.790  0.00  0.00    -0.348 OA
BRANCH   9  10
ATOM     10  C   LIG A   1      -7.256   3.078 133.428  0.00  0.00    +0.168 C 
BRANCH  10  11
ATOM     11  C   LIG A   1      -8.364   4.053 133.791  0.00  0.00    +0.063 C 
BRANCH  11  12
ATOM     12  C   LIG A   1      -8.733   4.942 132.618  0.00  0.00    -0.042 A 
ATOM     13  C   LIG A   1      -9.832   4.597 131.821  0.00  0.00    +0.052 A 
ATOM     14  C   LIG A   1     -10.121   5.352 130.688  0.00  0.00    +0.159 A 
ATOM     15  C   LIG A   1      -9.337   6.450 130.346  0.00  0.00    +0.158 A 
ATOM     16  C   LIG A   1      -8.271   6.832 131.136  0.00  0.00    +0.049 A 
ATOM     17  C   LIG A   1      -7.966   6.074 132.262  0.00  0.00    +0.007 A 
BRANCH  15  18
ATOM     18  O   LIG A   1      -9.599   7.154 129.208  0.00  0.00    -0.503 OA
ATOM     19  H   LIG A   1      -9.157   8.013 129.351  0.00  0.00    +0.292 HD
ENDBRANCH  15  18
BRANCH  14  20
ATOM     20  O   LIG A   1     -11.165   5.036 129.863  0.00  0.00    -0.503 OA
ATOM     21  H   LIG A   1     -11.813   4.530 130.381  0.00  0.00    +0.292 HD
ENDBRANCH  14  20
ENDBRANCH  11  12
ENDBRANCH  10  11
ENDBRANCH   9  10
ENDBRANCH   4   9
BRANCH   6  22
ATOM     22  O   LIG A   1      -7.360   1.749 129.340  0.00  0.00    -0.339 OA
BRANCH  22  23
ATOM     23  C   LIG A   1      -8.316   2.694 128.774  0.00  0.00    +0.282 C 
ATOM     24  C   LIG A   1      -7.609   3.987 128.323  0.00  0.00    +0.201 C 
ATOM     25  C   LIG A   1      -6.411   3.582 127.457  0.00  0.00    +0.179 C 
ATOM     26  C   LIG A   1      -6.864   2.782 126.239  0.00  0.00    +0.174 C 
ATOM     27  C   LIG A   1      -8.032   1.818 126.576  0.00  0.00    +0.149 C 
ATOM     28  O   LIG A   1      -8.979   2.256 127.555  0.00  0.00    -0.343 OA
ATOM     29  C   LIG A   1      -8.707   1.255 125.341  0.00  0.00    +0.040 C 
BRANCH  24  30
ATOM     30  O   LIG A   1      -8.549   4.774 127.555  0.00  0.00    -0.384 OA
ATOM     31  H   LIG A   1      -8.906   4.183 126.860  0.00  0.00    +0.210 HD
ENDBRANCH  24  30
BRANCH  25  32
ATOM     32  O   LIG A   1      -5.664   4.713 127.000  0.00  0.00    -0.386 OA
ATOM     33  H   LIG A   1      -5.247   4.428 126.162  0.00  0.00    +0.210 HD
ENDBRANCH  25  32
BRANCH  26  34
ATOM     34  O   LIG A   1      -5.680   2.242 125.622  0.00  0.00    -0.387 OA
ATOM     35  H   LIG A   1      -5.904   1.518 125.000  0.00  0.00    +0.210 HD
ENDBRANCH  26  34
ENDBRANCH  22  23
ENDBRANCH   6  22
BRANCH   1  36
ATOM     36  O   LIG A   1      -7.550  -1.755 130.592  0.00  0.00    -0.453 OA
BRANCH  36  37
ATOM     37  C   LIG A   1      -7.128  -2.934 130.042  0.00  0.00    +0.332 C 
ATOM     38  O   LIG A   1      -6.654  -3.880 130.559  0.00  0.00    -0.246 OA
BRANCH  37  40
ATOM     39  C   LIG A   1      -8.154  -3.005 127.817  0.00  0.00    +0.015 C 
ATOM     40  C   LIG A   1      -7.101  -2.707 128.582  0.00  0.00    +0.092 C 
BRANCH  39  44
ATOM     41  C   LIG A   1      -8.052  -2.355 123.667  0.00  0.00    +0.158 A 
ATOM     42  C   LIG A   1      -9.172  -2.972 124.219  0.00  0.00    +0.159 A 
ATOM     43  C   LIG A   1      -9.243  -3.197 125.581  0.00  0.00    +0.057 A 
ATOM     44  C   LIG A   1      -8.175  -2.785 126.385  0.00  0.00    -0.021 A 
ATOM     45  C   LIG A   1      -7.053  -2.162 125.827  0.00  0.00    +0.012 A 
ATOM     46  C   LIG A   1      -6.994  -1.939 124.459  0.00  0.00    +0.050 A 
BRANCH  42  47
ATOM     47  O   LIG A   1     -10.178  -3.355 123.378  0.00  0.00    -0.503 OA
ATOM     48  H   LIG A   1     -10.503  -4.227 123.664  0.00  0.00    +0.292 HD
ENDBRANCH  42  47
BRANCH  41  49
ATOM     49  O   LIG A   1      -7.982  -2.165 122.318  0.00  0.00    -0.503 OA
ATOM     50  H   LIG A   1      -8.875  -1.852 122.073  0.00  0.00    +0.292 HD
ENDBRANCH  41  49
ENDBRANCH  39  44
ENDBRANCH  37  40
ENDBRANCH  36  37
ENDBRANCH   1  36
BRANCH   2  51
ATOM     51  C   LIG A   1      -4.359   0.039 130.927  0.00  0.00    +0.191 C 
BRANCH  51  52
ATOM     52  O   LIG A   1      -4.196  -0.026 129.501  0.00  0.00    -0.392 OA
ATOM     53  H   LIG A   1      -3.314  -0.426 129.343  0.00  0.00    +0.209 HD
ENDBRANCH  51  52
ENDBRANCH   2  51
TORSDOF 20
ENDMDL
MODEL 4
REMARK VINA RESULT:      -8.8      3.571      7.203
REMARK  Name = NuBBE_546
REMARK  21 active torsions:
REMARK  status: ('A' for Active; 'I' for Inactive)
REMARK    1  A    between atoms: O_1  and  C_2
REMARK    2  A    between atoms: C_3  and  O_54
REMARK    3  A    between atoms: C_5  and  C_8
REMARK    4  A    between atoms: C_9  and  C_10
REMARK    5  A    between atoms: C_10  and  O_11
REMARK    6  A    between atoms: O_11  and  C_12
REMARK    7  A    between atoms: C_14  and  C_51
REMARK    8  A    between atoms: C_17  and  O_40
REMARK    9  A    between atoms: C_19  and  O_39
REMARK   10  A    between atoms: C_21  and  O_23
REMARK   11  A    between atoms: O_23  and  C_24
REMARK   12  A    between atoms: C_26  and  O_38
REMARK   13  A    between atoms: C_28  and  O_37
REMARK   14  A    between atoms: C_30  and  O_36
REMARK   15  A    between atoms: C_32  and  C_35
REMARK   16  A    between atoms: O_40  and  C_41
REMARK   17  A    between atoms: C_41  and  C_42
REMARK   18  A    between atoms: C_42  and  C_43
REMARK   19  A    between atoms: C_45  and  O_46
REMARK   20  A    between atoms: C_47  and  O_50
REMARK   21  A    between atoms: C_51  and  O_52
REMARK                            x       y       z     vdW  Elec       q    Type
REMARK                         _______ _______ _______ _____ _____    ______ ____
ROOT
ATOM      1  C   LIG A   1      -7.285   3.739 131.007  0.00  0.00    +0.239 C 
ATOM      2  C   LIG A   1      -8.201   2.573 130.420  0.00  0.00    +0.190 C 
ATOM      3  O   LIG A   1      -7.507   1.325 130.375  0.00  0.00    -0.339 OA
ATOM      4  C   LIG A   1      -6.931   1.006 131.620  0.00  0.00    +0.282 C 
ATOM      5  C   LIG A   1      -5.680   1.910 131.843  0.00  0.00    +0.203 C 
ATOM      6  C   LIG A   1      -5.800   3.325 131.159  0.00  0.00    +0.198 C 
ENDROOT
BRANCH   5   7
ATOM      7  O   LIG A   1      -5.333   1.977 133.238  0.00  0.00    -0.384 OA
ATOM      8  H   LIG A   1      -5.781   2.724 133.659  0.00  0.00    +0.210 HD
ENDBRANCH   5   7
BRANCH   4   9
ATOM      9  O   LIG A   1      -6.673  -0.404 131.683  0.00  0.00    -0.348 OA
BRANCH   9  10
ATOM     10  C   LIG A   1      -7.707  -1.147 131.049  0.00  0.00    +0.168 C 
BRANCH  10  11
ATOM     11  C   LIG A   1      -7.209  -2.391 130.334  0.00  0.00    +0.063 C 
BRANCH  11  12
ATOM     12  C   LIG A   1      -7.770  -2.492 128.927  0.00  0.00    -0.042 A 
ATOM     13  C   LIG A   1      -7.626  -1.403 128.058  0.00  0.00    +0.052 A 
ATOM     14  C   LIG A   1      -8.220  -1.447 126.800  0.00  0.00    +0.159 A 
ATOM     15  C   LIG A   1      -8.944  -2.565 126.394  0.00  0.00    +0.158 A 
ATOM     16  C   LIG A   1      -9.069  -3.665 127.219  0.00  0.00    +0.049 A 
ATOM     17  C   LIG A   1      -8.492  -3.622 128.485  0.00  0.00    +0.007 A 
BRANCH  15  18
ATOM     18  O   LIG A   1      -9.563  -2.579 125.179  0.00  0.00    -0.503 OA
ATOM     19  H   LIG A   1     -10.475  -2.287 125.371  0.00  0.00    +0.292 HD
ENDBRANCH  15  18
BRANCH  14  20
ATOM     20  O   LIG A   1      -8.133  -0.398 125.928  0.00  0.00    -0.503 OA
ATOM     21  H   LIG A   1      -8.933   0.145 126.032  0.00  0.00    +0.292 HD
ENDBRANCH  14  20
ENDBRANCH  11  12
ENDBRANCH  10  11
ENDBRANCH   9  10
ENDBRANCH   4   9
BRANCH   6  22
ATOM     22  O   LIG A   1      -5.144   3.364 129.865  0.00  0.00    -0.339 OA
BRANCH  22  23
ATOM     23  C   LIG A   1      -5.350   4.594 129.108  0.00  0.00    +0.282 C 
ATOM     24  C   LIG A   1      -4.009   5.156 128.596  0.00  0.00    +0.201 C 
ATOM     25  C   LIG A   1      -3.261   4.011 127.905  0.00  0.00    +0.179 C 
ATOM     26  C   LIG A   1      -4.073   3.455 126.738  0.00  0.00    +0.174 C 
ATOM     27  C   LIG A   1      -5.591   3.407 127.056  0.00  0.00    +0.149 C 
ATOM     28  O   LIG A   1      -6.119   4.449 127.882  0.00  0.00    -0.343 OA
ATOM     29  C   LIG A   1      -6.443   3.168 125.825  0.00  0.00    +0.040 C 
BRANCH  24  30
ATOM     30  O   LIG A   1      -4.291   6.219 127.658  0.00  0.00    -0.384 OA
ATOM     31  H   LIG A   1      -4.927   6.821 128.100  0.00  0.00    +0.210 HD
ENDBRANCH  24  30
BRANCH  25  32
ATOM     32  O   LIG A   1      -1.982   4.419 127.409  0.00  0.00    -0.386 OA
ATOM     33  H   LIG A   1      -1.663   3.668 126.867  0.00  0.00    +0.210 HD
ENDBRANCH  25  32
BRANCH  26  34
ATOM     34  O   LIG A   1      -3.421   2.246 126.306  0.00  0.00    -0.387 OA
ATOM     35  H   LIG A   1      -4.069   1.602 125.951  0.00  0.00    +0.210 HD
ENDBRANCH  26  34
ENDBRANCH  22  23
ENDBRANCH   6  22
BRANCH   1  36
ATOM     36  O   LIG A   1      -7.895   4.132 132.257  0.00  0.00    -0.453 OA
BRANCH  36  37
ATOM     37  C   LIG A   1      -7.770   5.406 132.738  0.00  0.00    +0.332 C 
ATOM     38  O   LIG A   1      -7.357   5.784 133.774  0.00  0.00    -0.246 OA
BRANCH  37  40
ATOM     39  C   LIG A   1      -9.858   6.108 131.661  0.00  0.00    +0.015 C 
ATOM     40  C   LIG A   1      -8.539   6.261 131.810  0.00  0.00    +0.092 C 
BRANCH  39  44
ATOM     41  C   LIG A   1     -12.260   8.538 129.217  0.00  0.00    +0.158 A 
ATOM     42  C   LIG A   1     -10.949   8.281 128.821  0.00  0.00    +0.159 A 
ATOM     43  C   LIG A   1     -10.132   7.481 129.597  0.00  0.00    +0.057 A 
ATOM     44  C   LIG A   1     -10.652   6.934 130.775  0.00  0.00    -0.021 A 
ATOM     45  C   LIG A   1     -11.970   7.191 131.167  0.00  0.00    +0.012 A 
ATOM     46  C   LIG A   1     -12.782   7.994 130.379  0.00  0.00    +0.050 A 
BRANCH  42  47
ATOM     47  O   LIG A   1     -10.501   8.851 127.663  0.00  0.00    -0.503 OA
ATOM     48  H   LIG A   1      -9.610   9.210 127.821  0.00  0.00    +0.292 HD
ENDBRANCH  42  47
BRANCH  41  49
ATOM     49  O   LIG A   1     -13.047   9.352 128.457  0.00  0.00    -0.503 OA
ATOM     50  H   LIG A   1     -12.534  10.182 128.385  0.00  0.00    +0.292 HD
ENDBRANCH  41  49
ENDBRANCH  39  44
ENDBRANCH  37  40
ENDBRANCH  36  37
ENDBRANCH   1  36
BRANCH   2  51
ATOM     51  C   LIG A   1      -8.782   2.684 128.997  0.00  0.00    +0.191 C 
BRANCH  51  52
ATOM     52  O   LIG A   1      -8.877   4.052 128.571  0.00  0.00    -0.392 OA
ATOM     53  H   LIG A   1      -7.982   4.438 128.684  0.00  0.00    +0.209 HD
ENDBRANCH  51  52
ENDBRANCH   2  51
TORSDOF 20
ENDMDL
MODEL 5
REMARK VINA RESULT:      -8.8      1.464      2.386
REMARK  Name = NuBBE_546
REMARK  21 active torsions:
REMARK  status: ('A' for Active; 'I' for Inactive)
REMARK    1  A    between atoms: O_1  and  C_2
REMARK    2  A    between atoms: C_3  and  O_54
REMARK    3  A    between atoms: C_5  and  C_8
REMARK    4  A    between atoms: C_9  and  C_10
REMARK    5  A    between atoms: C_10  and  O_11
REMARK    6  A    between atoms: O_11  and  C_12
REMARK    7  A    between atoms: C_14  and  C_51
REMARK    8  A    between atoms: C_17  and  O_40
REMARK    9  A    between atoms: C_19  and  O_39
REMARK   10  A    between atoms: C_21  and  O_23
REMARK   11  A    between atoms: O_23  and  C_24
REMARK   12  A    between atoms: C_26  and  O_38
REMARK   13  A    between atoms: C_28  and  O_37
REMARK   14  A    between atoms: C_30  and  O_36
REMARK   15  A    between atoms: C_32  and  C_35
REMARK   16  A    between atoms: O_40  and  C_41
REMARK   17  A    between atoms: C_41  and  C_42
REMARK   18  A    between atoms: C_42  and  C_43
REMARK   19  A    between atoms: C_45  and  O_46
REMARK   20  A    between atoms: C_47  and  O_50
REMARK   21  A    between atoms: C_51  and  O_52
REMARK                            x       y       z     vdW  Elec       q    Type
REMARK                         _______ _______ _______ _____ _____    ______ ____
ROOT
ATOM      1  C   LIG A   1      -7.429   1.960 128.862  0.00  0.00    +0.239 C 
ATOM      2  C   LIG A   1      -5.854   2.118 128.662  0.00  0.00    +0.190 C 
ATOM      3  O   LIG A   1      -5.530   2.576 127.348  0.00  0.00    -0.339 OA
ATOM      4  C   LIG A   1      -6.252   3.737 127.010  0.00  0.00    +0.282 C 
ATOM      5  C   LIG A   1      -7.731   3.342 126.713  0.00  0.00    +0.203 C 
ATOM      6  C   LIG A   1      -8.224   2.093 127.539  0.00  0.00    +0.198 C 
ENDROOT
BRANCH   5   7
ATOM      7  O   LIG A   1      -8.603   4.482 126.823  0.00  0.00    -0.384 OA
ATOM      8  H   LIG A   1      -8.121   5.238 127.187  0.00  0.00    +0.210 HD
ENDBRANCH   5   7
BRANCH   4   9
ATOM      9  O   LIG A   1      -5.587   4.423 125.941  0.00  0.00    -0.348 OA
BRANCH   9  10
ATOM     10  C   LIG A   1      -5.135   3.513 124.945  0.00  0.00    +0.168 C 
BRANCH  10  11
ATOM     11  C   LIG A   1      -6.213   3.117 123.950  0.00  0.00    +0.063 C 
BRANCH  11  12
ATOM     12  C   LIG A   1      -5.943   3.695 122.573  0.00  0.00    -0.042 A 
ATOM     13  C   LIG A   1      -4.963   4.687 122.431  0.00  0.00    +0.052 A 
ATOM     14  C   LIG A   1      -4.775   5.291 121.191  0.00  0.00    +0.159 A 
ATOM     15  C   LIG A   1      -5.540   4.912 120.091  0.00  0.00    +0.158 A 
ATOM     16  C   LIG A   1      -6.486   3.912 120.198  0.00  0.00    +0.049 A 
ATOM     17  C   LIG A   1      -6.692   3.314 121.437  0.00  0.00    +0.007 A 
BRANCH  15  18
ATOM     18  O   LIG A   1      -5.382   5.544 118.893  0.00  0.00    -0.503 OA
ATOM     19  H   LIG A   1      -6.259   5.930 118.708  0.00  0.00    +0.292 HD
ENDBRANCH  15  18
BRANCH  14  20
ATOM     20  O   LIG A   1      -3.853   6.284 121.010  0.00  0.00    -0.503 OA
ATOM     21  H   LIG A   1      -3.500   6.203 120.107  0.00  0.00    +0.292 HD
ENDBRANCH  14  20
ENDBRANCH  11  12
ENDBRANCH  10  11
ENDBRANCH   9  10
ENDBRANCH   4   9
BRANCH   6  22
ATOM     22  O   LIG A   1      -8.126   0.861 126.780  0.00  0.00    -0.339 OA
BRANCH  22  23
ATOM     23  C   LIG A   1      -9.221   0.625 125.846  0.00  0.00    +0.282 C 
ATOM     24  C   LIG A   1      -8.717   0.655 124.389  0.00  0.00    +0.201 C 
ATOM     25  C   LIG A   1      -7.496  -0.268 124.303  0.00  0.00    +0.179 C 
ATOM     26  C   LIG A   1      -7.862  -1.695 124.700  0.00  0.00    +0.174 C 
ATOM     27  C   LIG A   1      -8.872  -1.732 125.878  0.00  0.00    +0.149 C 
ATOM     28  O   LIG A   1      -9.846  -0.686 125.937  0.00  0.00    -0.343 OA
ATOM     29  C   LIG A   1      -9.491  -3.100 126.080  0.00  0.00    +0.040 C 
BRANCH  24  30
ATOM     30  O   LIG A   1      -9.778   0.176 123.533  0.00  0.00    -0.384 OA
ATOM     31  H   LIG A   1      -9.383   0.037 122.647  0.00  0.00    +0.210 HD
ENDBRANCH  24  30
BRANCH  25  32
ATOM     32  O   LIG A   1      -6.929  -0.297 122.989  0.00  0.00    -0.386 OA
ATOM     33  H   LIG A   1      -7.003   0.620 122.655  0.00  0.00    +0.210 HD
ENDBRANCH  25  32
BRANCH  26  34
ATOM     34  O   LIG A   1      -6.629  -2.430 124.825  0.00  0.00    -0.387 OA
ATOM     35  H   LIG A   1      -6.369  -2.525 125.766  0.00  0.00    +0.210 HD
ENDBRANCH  26  34
ENDBRANCH  22  23
ENDBRANCH   6  22
BRANCH   1  36
ATOM     36  O   LIG A   1      -7.804   2.945 129.852  0.00  0.00    -0.453 OA
BRANCH  36  37
ATOM     37  C   LIG A   1      -8.996   2.866 130.515  0.00  0.00    +0.332 C 
ATOM     38  O   LIG A   1      -9.457   1.976 131.134  0.00  0.00    -0.246 OA
BRANCH  37  40
ATOM     39  C   LIG A   1     -10.119   5.006 130.924  0.00  0.00    +0.015 C 
ATOM     40  C   LIG A   1      -9.780   4.037 130.070  0.00  0.00    +0.092 C 
BRANCH  39  44
ATOM     41  C   LIG A   1     -12.363   8.416 129.925  0.00  0.00    +0.158 A 
ATOM     42  C   LIG A   1     -11.262   8.086 129.137  0.00  0.00    +0.159 A 
ATOM     43  C   LIG A   1     -10.505   6.968 129.432  0.00  0.00    +0.057 A 
ATOM     44  C   LIG A   1     -10.873   6.178 130.527  0.00  0.00    -0.021 A 
ATOM     45  C   LIG A   1     -11.981   6.511 131.314  0.00  0.00    +0.012 A 
ATOM     46  C   LIG A   1     -12.735   7.634 131.007  0.00  0.00    +0.050 A 
BRANCH  42  47
ATOM     47  O   LIG A   1     -10.954   8.902 128.086  0.00  0.00    -0.503 OA
ATOM     48  H   LIG A   1     -11.757   9.033 127.552  0.00  0.00    +0.292 HD
ENDBRANCH  42  47
BRANCH  41  49
ATOM     49  O   LIG A   1     -13.085   9.537 129.641  0.00  0.00    -0.503 OA
ATOM     50  H   LIG A   1     -12.444  10.128 129.196  0.00  0.00    +0.292 HD
ENDBRANCH  41  49
ENDBRANCH  39  44
ENDBRANCH  37  40
ENDBRANCH  36  37
ENDBRANCH   1  36
BRANCH   2  51
ATOM     51  C   LIG A   1      -4.924   0.901 128.830  0.00  0.00    +0.191 C 
BRANCH  51  52
ATOM     52  O   LIG A   1      -4.295   0.891 130.121  0.00  0.00    -0.392 OA
ATOM     53  H   LIG A   1      -3.583   1.565 130.085  0.00  0.00    +0.209 HD
ENDBRANCH  51  52
ENDBRANCH   2  51
TORSDOF 20
ENDMDL
MODEL 6
REMARK VINA RESULT:      -8.8      3.245      7.704
REMARK  Name = NuBBE_546
REMARK  21 active torsions:
REMARK  status: ('A' for Active; 'I' for Inactive)
REMARK    1  A    between atoms: O_1  and  C_2
REMARK    2  A    between atoms: C_3  and  O_54
REMARK    3  A    between atoms: C_5  and  C_8
REMARK    4  A    between atoms: C_9  and  C_10
REMARK    5  A    between atoms: C_10  and  O_11
REMARK    6  A    between atoms: O_11  and  C_12
REMARK    7  A    between atoms: C_14  and  C_51
REMARK    8  A    between atoms: C_17  and  O_40
REMARK    9  A    between atoms: C_19  and  O_39
REMARK   10  A    between atoms: C_21  and  O_23
REMARK   11  A    between atoms: O_23  and  C_24
REMARK   12  A    between atoms: C_26  and  O_38
REMARK   13  A    between atoms: C_28  and  O_37
REMARK   14  A    between atoms: C_30  and  O_36
REMARK   15  A    between atoms: C_32  and  C_35
REMARK   16  A    between atoms: O_40  and  C_41
REMARK   17  A    between atoms: C_41  and  C_42
REMARK   18  A    between atoms: C_42  and  C_43
REMARK   19  A    between atoms: C_45  and  O_46
REMARK   20  A    between atoms: C_47  and  O_50
REMARK   21  A    between atoms: C_51  and  O_52
REMARK                            x       y       z     vdW  Elec       q    Type
REMARK                         _______ _______ _______ _____ _____    ______ ____
ROOT
ATOM      1  C   LIG A   1      -6.025   2.722 126.724  0.00  0.00    +0.239 C 
ATOM      2  C   LIG A   1      -6.834   4.097 126.702  0.00  0.00    +0.190 C 
ATOM      3  O   LIG A   1      -8.143   3.951 127.258  0.00  0.00    -0.339 OA
ATOM      4  C   LIG A   1      -8.102   3.350 128.531  0.00  0.00    +0.282 C 
ATOM      5  C   LIG A   1      -7.798   1.830 128.361  0.00  0.00    +0.203 C 
ATOM      6  C   LIG A   1      -6.907   1.506 127.101  0.00  0.00    +0.198 C 
ENDROOT
BRANCH   5   7
ATOM      7  O   LIG A   1      -7.289   1.265 129.583  0.00  0.00    -0.384 OA
ATOM      8  H   LIG A   1      -6.323   1.209 129.548  0.00  0.00    +0.210 HD
ENDBRANCH   5   7
BRANCH   4   9
ATOM      9  O   LIG A   1      -9.313   3.645 129.241  0.00  0.00    -0.348 OA
BRANCH   9  10
ATOM     10  C   LIG A   1      -9.155   4.781 130.083  0.00  0.00    +0.168 C 
BRANCH  10  11
ATOM     11  C   LIG A   1     -10.399   5.119 130.886  0.00  0.00    +0.063 C 
BRANCH  11  12
ATOM     12  C   LIG A   1     -11.105   6.344 130.335  0.00  0.00    -0.042 A 
ATOM     13  C   LIG A   1     -10.576   6.986 129.208  0.00  0.00    +0.052 A 
ATOM     14  C   LIG A   1     -11.160   8.165 128.754  0.00  0.00    +0.159 A 
ATOM     15  C   LIG A   1     -12.269   8.704 129.399  0.00  0.00    +0.158 A 
ATOM     16  C   LIG A   1     -12.831   8.070 130.489  0.00  0.00    +0.049 A 
ATOM     17  C   LIG A   1     -12.244   6.900 130.960  0.00  0.00    +0.007 A 
BRANCH  15  18
ATOM     18  O   LIG A   1     -12.804   9.884 128.975  0.00  0.00    -0.503 OA
ATOM     19  H   LIG A   1     -13.681   9.637 128.623  0.00  0.00    +0.292 HD
ENDBRANCH  15  18
BRANCH  14  20
ATOM     20  O   LIG A   1     -10.661   8.844 127.677  0.00  0.00    -0.503 OA
ATOM     21  H   LIG A   1      -9.701   8.937 127.801  0.00  0.00    +0.292 HD
ENDBRANCH  14  20
ENDBRANCH  11  12
ENDBRANCH  10  11
ENDBRANCH   9  10
ENDBRANCH   4   9
BRANCH   6  22
ATOM     22  O   LIG A   1      -7.703   1.102 125.958  0.00  0.00    -0.339 OA
BRANCH  22  23
ATOM     23  C   LIG A   1      -6.936   0.763 124.764  0.00  0.00    +0.282 C 
ATOM     24  C   LIG A   1      -7.414  -0.574 124.164  0.00  0.00    +0.201 C 
ATOM     25  C   LIG A   1      -8.940  -0.504 124.034  0.00  0.00    +0.179 C 
ATOM     26  C   LIG A   1      -9.358   0.653 123.131  0.00  0.00    +0.174 C 
ATOM     27  C   LIG A   1      -8.465   1.905 123.337  0.00  0.00    +0.149 C 
ATOM     28  O   LIG A   1      -7.086   1.682 123.645  0.00  0.00    -0.343 OA
ATOM     29  C   LIG A   1      -8.646   2.943 122.247  0.00  0.00    +0.040 C 
BRANCH  24  30
ATOM     30  O   LIG A   1      -6.800  -0.734 122.865  0.00  0.00    -0.384 OA
ATOM     31  H   LIG A   1      -7.490  -1.098 122.272  0.00  0.00    +0.210 HD
ENDBRANCH  24  30
BRANCH  25  32
ATOM     32  O   LIG A   1      -9.496  -1.712 123.506  0.00  0.00    -0.386 OA
ATOM     33  H   LIG A   1      -8.797  -2.388 123.614  0.00  0.00    +0.210 HD
ENDBRANCH  25  32
BRANCH  26  34
ATOM     34  O   LIG A   1     -10.786   0.795 123.257  0.00  0.00    -0.387 OA
ATOM     35  H   LIG A   1     -11.051   1.738 123.229  0.00  0.00    +0.210 HD
ENDBRANCH  26  34
ENDBRANCH  22  23
ENDBRANCH   6  22
BRANCH   1  36
ATOM     36  O   LIG A   1      -4.920   2.926 127.633  0.00  0.00    -0.453 OA
BRANCH  36  37
ATOM     37  C   LIG A   1      -3.821   3.650 127.262  0.00  0.00    +0.332 C 
ATOM     38  O   LIG A   1      -3.373   3.846 126.192  0.00  0.00    -0.246 OA
BRANCH  37  40
ATOM     39  C   LIG A   1      -3.517   4.851 129.378  0.00  0.00    +0.015 C 
ATOM     40  C   LIG A   1      -3.086   3.929 128.514  0.00  0.00    +0.092 C 
BRANCH  39  44
ATOM     41  C   LIG A   1      -1.509   5.852 132.931  0.00  0.00    +0.158 A 
ATOM     42  C   LIG A   1      -2.434   4.811 132.957  0.00  0.00    +0.159 A 
ATOM     43  C   LIG A   1      -3.109   4.449 131.806  0.00  0.00    +0.057 A 
ATOM     44  C   LIG A   1      -2.836   5.144 130.623  0.00  0.00    -0.021 A 
ATOM     45  C   LIG A   1      -1.904   6.188 130.599  0.00  0.00    +0.012 A 
ATOM     46  C   LIG A   1      -1.231   6.540 131.760  0.00  0.00    +0.050 A 
BRANCH  42  47
ATOM     47  O   LIG A   1      -2.658   4.177 134.146  0.00  0.00    -0.503 OA
ATOM     48  H   LIG A   1      -2.605   3.216 133.997  0.00  0.00    +0.292 HD
ENDBRANCH  42  47
BRANCH  41  49
ATOM     49  O   LIG A   1      -0.871   6.218 134.079  0.00  0.00    -0.503 OA
ATOM     50  H   LIG A   1      -0.021   6.594 133.772  0.00  0.00    +0.292 HD
ENDBRANCH  41  49
ENDBRANCH  39  44
ENDBRANCH  37  40
ENDBRANCH  36  37
ENDBRANCH   1  36
BRANCH   2  51
ATOM     51  C   LIG A   1      -7.117   4.811 125.366  0.00  0.00    +0.191 C 
BRANCH  51  52
ATOM     52  O   LIG A   1      -8.295   5.629 125.444  0.00  0.00    -0.392 OA
ATOM     53  H   LIG A   1      -7.998   6.553 125.300  0.00  0.00    +0.209 HD
ENDBRANCH  51  52
ENDBRANCH   2  51
TORSDOF 20
ENDMDL
MODEL 7
REMARK VINA RESULT:      -8.8      3.093      8.689
REMARK  Name = NuBBE_546
REMARK  21 active torsions:
REMARK  status: ('A' for Active; 'I' for Inactive)
REMARK    1  A    between atoms: O_1  and  C_2
REMARK    2  A    between atoms: C_3  and  O_54
REMARK    3  A    between atoms: C_5  and  C_8
REMARK    4  A    between atoms: C_9  and  C_10
REMARK    5  A    between atoms: C_10  and  O_11
REMARK    6  A    between atoms: O_11  and  C_12
REMARK    7  A    between atoms: C_14  and  C_51
REMARK    8  A    between atoms: C_17  and  O_40
REMARK    9  A    between atoms: C_19  and  O_39
REMARK   10  A    between atoms: C_21  and  O_23
REMARK   11  A    between atoms: O_23  and  C_24
REMARK   12  A    between atoms: C_26  and  O_38
REMARK   13  A    between atoms: C_28  and  O_37
REMARK   14  A    between atoms: C_30  and  O_36
REMARK   15  A    between atoms: C_32  and  C_35
REMARK   16  A    between atoms: O_40  and  C_41
REMARK   17  A    between atoms: C_41  and  C_42
REMARK   18  A    between atoms: C_42  and  C_43
REMARK   19  A    between atoms: C_45  and  O_46
REMARK   20  A    between atoms: C_47  and  O_50
REMARK   21  A    between atoms: C_51  and  O_52
REMARK                            x       y       z     vdW  Elec       q    Type
REMARK                         _______ _______ _______ _____ _____    ______ ____
ROOT
ATOM      1  C   LIG A   1      -7.199   0.288 129.832  0.00  0.00    +0.239 C 
ATOM      2  C   LIG A   1      -5.915   0.798 130.630  0.00  0.00    +0.190 C 
ATOM      3  O   LIG A   1      -6.096   2.122 131.136  0.00  0.00    -0.339 OA
ATOM      4  C   LIG A   1      -7.291   2.238 131.873  0.00  0.00    +0.282 C 
ATOM      5  C   LIG A   1      -8.495   2.248 130.882  0.00  0.00    +0.203 C 
ATOM      6  C   LIG A   1      -8.235   1.411 129.572  0.00  0.00    +0.198 C 
ENDROOT
BRANCH   5   7
ATOM      7  O   LIG A   1      -9.719   1.897 131.553  0.00  0.00    -0.384 OA
ATOM      8  H   LIG A   1     -10.420   2.522 131.320  0.00  0.00    +0.210 HD
ENDBRANCH   5   7
BRANCH   4   9
ATOM      9  O   LIG A   1      -7.213   3.380 132.737  0.00  0.00    -0.348 OA
BRANCH   9  10
ATOM     10  C   LIG A   1      -7.601   4.569 132.058  0.00  0.00    +0.168 C 
BRANCH  10  11
ATOM     11  C   LIG A   1      -8.610   5.405 132.827  0.00  0.00    +0.063 C 
BRANCH  11  12
ATOM     12  C   LIG A   1      -9.517   6.185 131.893  0.00  0.00    -0.042 A 
ATOM     13  C   LIG A   1     -10.883   6.280 132.192  0.00  0.00    +0.052 A 
ATOM     14  C   LIG A   1     -11.739   6.910 131.294  0.00  0.00    +0.159 A 
ATOM     15  C   LIG A   1     -11.251   7.458 130.111  0.00  0.00    +0.158 A 
ATOM     16  C   LIG A   1      -9.904   7.410 129.812  0.00  0.00    +0.049 A 
ATOM     17  C   LIG A   1      -9.043   6.767 130.696  0.00  0.00    +0.007 A 
BRANCH  15  18
ATOM     18  O   LIG A   1     -12.104   8.031 129.215  0.00  0.00    -0.503 OA
ATOM     19  H   LIG A   1     -12.460   8.809 129.687  0.00  0.00    +0.292 HD
ENDBRANCH  15  18
BRANCH  14  20
ATOM     20  O   LIG A   1     -13.083   7.001 131.527  0.00  0.00    -0.503 OA
ATOM     21  H   LIG A   1     -13.209   7.241 132.461  0.00  0.00    +0.292 HD
ENDBRANCH  14  20
ENDBRANCH  11  12
ENDBRANCH  10  11
ENDBRANCH   9  10
ENDBRANCH   4   9
BRANCH   6  22
ATOM     22  O   LIG A   1      -7.792   2.243 128.469  0.00  0.00    -0.339 OA
BRANCH  22  23
ATOM     23  C   LIG A   1      -7.527   1.527 127.227  0.00  0.00    +0.282 C 
ATOM     24  C   LIG A   1      -8.237   2.207 126.038  0.00  0.00    +0.201 C 
ATOM     25  C   LIG A   1      -7.894   3.700 126.087  0.00  0.00    +0.179 C 
ATOM     26  C   LIG A   1      -6.387   3.917 125.989  0.00  0.00    +0.174 C 
ATOM     27  C   LIG A   1      -5.590   2.838 126.769  0.00  0.00    +0.149 C 
ATOM     28  O   LIG A   1      -6.136   1.516 126.798  0.00  0.00    -0.343 OA
ATOM     29  C   LIG A   1      -4.113   2.838 126.431  0.00  0.00    +0.040 C 
BRANCH  24  30
ATOM     30  O   LIG A   1      -7.745   1.612 124.816  0.00  0.00    -0.384 OA
ATOM     31  H   LIG A   1      -7.750   2.319 124.138  0.00  0.00    +0.210 HD
ENDBRANCH  24  30
BRANCH  25  32
ATOM     32  O   LIG A   1      -8.525   4.436 125.035  0.00  0.00    -0.386 OA
ATOM     33  H   LIG A   1      -9.184   3.824 124.649  0.00  0.00    +0.210 HD
ENDBRANCH  25  32
BRANCH  26  34
ATOM     34  O   LIG A   1      -6.139   5.305 126.283  0.00  0.00    -0.387 OA
ATOM     35  H   LIG A   1      -5.225   5.561 126.035  0.00  0.00    +0.210 HD
ENDBRANCH  26  34
ENDBRANCH  22  23
ENDBRANCH   6  22
BRANCH   1  36
ATOM     36  O   LIG A   1      -7.735  -0.811 130.602  0.00  0.00    -0.453 OA
BRANCH  36  37
ATOM     37  C   LIG A   1      -7.714  -2.090 130.121  0.00  0.00    +0.332 C 
ATOM     38  O   LIG A   1      -7.563  -3.109 130.692  0.00  0.00    -0.246 OA
BRANCH  37  40
ATOM     39  C   LIG A   1      -8.384  -2.709 127.845  0.00  0.00    +0.015 C 
ATOM     40  C   LIG A   1      -7.624  -1.963 128.651  0.00  0.00    +0.092 C 
BRANCH  39  44
ATOM     41  C   LIG A   1      -8.091  -2.391 123.665  0.00  0.00    +0.158 A 
ATOM     42  C   LIG A   1      -9.220  -2.997 124.211  0.00  0.00    +0.159 A 
ATOM     43  C   LIG A   1      -9.354  -3.113 125.582  0.00  0.00    +0.057 A 
ATOM     44  C   LIG A   1      -8.339  -2.604 126.400  0.00  0.00    -0.021 A 
ATOM     45  C   LIG A   1      -7.208  -1.993 125.848  0.00  0.00    +0.012 A 
ATOM     46  C   LIG A   1      -7.086  -1.880 124.471  0.00  0.00    +0.050 A 
BRANCH  42  47
ATOM     47  O   LIG A   1     -10.172  -3.478 123.357  0.00  0.00    -0.503 OA
ATOM     48  H   LIG A   1     -10.632  -2.721 122.952  0.00  0.00    +0.292 HD
ENDBRANCH  42  47
BRANCH  41  49
ATOM     49  O   LIG A   1      -7.958  -2.308 122.311  0.00  0.00    -0.503 OA
ATOM     50  H   LIG A   1      -8.875  -2.366 121.976  0.00  0.00    +0.292 HD
ENDBRANCH  41  49
ENDBRANCH  39  44
ENDBRANCH  37  40
ENDBRANCH  36  37
ENDBRANCH   1  36
BRANCH   2  51
ATOM     51  C   LIG A   1      -4.549   0.894 129.923  0.00  0.00    +0.191 C 
BRANCH  51  52
ATOM     52  O   LIG A   1      -4.507   0.076 128.743  0.00  0.00    -0.392 OA
ATOM     53  H   LIG A   1      -4.510  -0.855 129.054  0.00  0.00    +0.209 HD
ENDBRANCH  51  52
ENDBRANCH   2  51
TORSDOF 20
ENDMDL
MODEL 8
REMARK VINA RESULT:      -8.8      2.721      8.431
REMARK  Name = NuBBE_546
REMARK  21 active torsions:
REMARK  status: ('A' for Active; 'I' for Inactive)
REMARK    1  A    between atoms: O_1  and  C_2
REMARK    2  A    between atoms: C_3  and  O_54
REMARK    3  A    between atoms: C_5  and  C_8
REMARK    4  A    between atoms: C_9  and  C_10
REMARK    5  A    between atoms: C_10  and  O_11
REMARK    6  A    between atoms: O_11  and  C_12
REMARK    7  A    between atoms: C_14  and  C_51
REMARK    8  A    between atoms: C_17  and  O_40
REMARK    9  A    between atoms: C_19  and  O_39
REMARK   10  A    between atoms: C_21  and  O_23
REMARK   11  A    between atoms: O_23  and  C_24
REMARK   12  A    between atoms: C_26  and  O_38
REMARK   13  A    between atoms: C_28  and  O_37
REMARK   14  A    between atoms: C_30  and  O_36
REMARK   15  A    between atoms: C_32  and  C_35
REMARK   16  A    between atoms: O_40  and  C_41
REMARK   17  A    between atoms: C_41  and  C_42
REMARK   18  A    between atoms: C_42  and  C_43
REMARK   19  A    between atoms: C_45  and  O_46
REMARK   20  A    between atoms: C_47  and  O_50
REMARK   21  A    between atoms: C_51  and  O_52
REMARK                            x       y       z     vdW  Elec       q    Type
REMARK                         _______ _______ _______ _____ _____    ______ ____
ROOT
ATOM      1  C   LIG A   1      -7.227   1.011 129.311  0.00  0.00    +0.239 C 
ATOM      2  C   LIG A   1      -6.089   1.685 130.203  0.00  0.00    +0.190 C 
ATOM      3  O   LIG A   1      -6.394   3.046 130.511  0.00  0.00    -0.339 OA
ATOM      4  C   LIG A   1      -7.683   3.177 131.063  0.00  0.00    +0.282 C 
ATOM      5  C   LIG A   1      -8.738   3.000 129.927  0.00  0.00    +0.203 C 
ATOM      6  C   LIG A   1      -8.263   2.032 128.778  0.00  0.00    +0.198 C 
ENDROOT
BRANCH   5   7
ATOM      7  O   LIG A   1     -10.027   2.658 130.468  0.00  0.00    -0.384 OA
ATOM      8  H   LIG A   1     -10.588   2.275 129.778  0.00  0.00    +0.210 HD
ENDBRANCH   5   7
BRANCH   4   9
ATOM      9  O   LIG A   1      -7.775   4.416 131.780  0.00  0.00    -0.348 OA
BRANCH   9  10
ATOM     10  C   LIG A   1      -8.285   5.456 130.954  0.00  0.00    +0.168 C 
BRANCH  10  11
ATOM     11  C   LIG A   1      -9.215   6.410 131.684  0.00  0.00    +0.063 C 
BRANCH  11  12
ATOM     12  C   LIG A   1     -10.332   6.903 130.782  0.00  0.00    -0.042 A 
ATOM     13  C   LIG A   1     -10.003   7.570 129.594  0.00  0.00    +0.052 A 
ATOM     14  C   LIG A   1     -11.017   8.110 128.809  0.00  0.00    +0.159 A 
ATOM     15  C   LIG A   1     -12.352   7.985 129.184  0.00  0.00    +0.158 A 
ATOM     16  C   LIG A   1     -12.702   7.300 130.331  0.00  0.00    +0.049 A 
ATOM     17  C   LIG A   1     -11.694   6.770 131.131  0.00  0.00    +0.007 A 
BRANCH  15  18
ATOM     18  O   LIG A   1     -13.335   8.559 128.434  0.00  0.00    -0.503 OA
ATOM     19  H   LIG A   1     -13.072   8.371 127.512  0.00  0.00    +0.292 HD
ENDBRANCH  15  18
BRANCH  14  20
ATOM     20  O   LIG A   1     -10.745   8.796 127.658  0.00  0.00    -0.503 OA
ATOM     21  H   LIG A   1     -11.560   9.249 127.380  0.00  0.00    +0.292 HD
ENDBRANCH  14  20
ENDBRANCH  11  12
ENDBRANCH  10  11
ENDBRANCH   9  10
ENDBRANCH   4   9
BRANCH   6  22
ATOM     22  O   LIG A   1      -7.707   2.753 127.649  0.00  0.00    -0.339 OA
BRANCH  22  23
ATOM     23  C   LIG A   1      -7.053   1.918 126.647  0.00  0.00    +0.282 C 
ATOM     24  C   LIG A   1      -7.701   2.113 125.262  0.00  0.00    +0.201 C 
ATOM     25  C   LIG A   1      -7.777   3.620 124.993  0.00  0.00    +0.179 C 
ATOM     26  C   LIG A   1      -6.386   4.247 125.012  0.00  0.00    +0.174 C 
ATOM     27  C   LIG A   1      -5.480   3.625 126.107  0.00  0.00    +0.149 C 
ATOM     28  O   LIG A   1      -5.656   2.234 126.388  0.00  0.00    -0.343 OA
ATOM     29  C   LIG A   1      -4.019   3.994 125.942  0.00  0.00    +0.040 C 
BRANCH  24  30
ATOM     30  O   LIG A   1      -6.868   1.461 124.276  0.00  0.00    -0.384 OA
ATOM     31  H   LIG A   1      -6.703   2.120 123.569  0.00  0.00    +0.210 HD
ENDBRANCH  24  30
BRANCH  25  32
ATOM     32  O   LIG A   1      -8.389   3.917 123.734  0.00  0.00    -0.386 OA
ATOM     33  H   LIG A   1      -7.788   3.540 123.059  0.00  0.00    +0.210 HD
ENDBRANCH  25  32
BRANCH  26  34
ATOM     34  O   LIG A   1      -6.566   5.676 124.995  0.00  0.00    -0.387 OA
ATOM     35  H   LIG A   1      -7.490   5.919 125.216  0.00  0.00    +0.210 HD
ENDBRANCH  26  34
ENDBRANCH  22  23
ENDBRANCH   6  22
BRANCH   1  36
ATOM     36  O   LIG A   1      -7.817  -0.021 130.134  0.00  0.00    -0.453 OA
BRANCH  36  37
ATOM     37  C   LIG A   1      -7.747  -1.339 129.778  0.00  0.00    +0.332 C 
ATOM     38  O   LIG A   1      -7.845  -2.305 130.442  0.00  0.00    -0.246 OA
BRANCH  37  40
ATOM     39  C   LIG A   1      -7.911  -1.903 127.397  0.00  0.00    +0.015 C 
ATOM     40  C   LIG A   1      -7.218  -1.352 128.397  0.00  0.00    +0.092 C 
BRANCH  39  44
ATOM     41  C   LIG A   1      -6.394  -2.023 123.481  0.00  0.00    +0.158 A 
ATOM     42  C   LIG A   1      -7.775  -2.017 123.662  0.00  0.00    +0.159 A 
ATOM     43  C   LIG A   1      -8.310  -1.971 124.936  0.00  0.00    +0.057 A 
ATOM     44  C   LIG A   1      -7.437  -1.924 126.028  0.00  0.00    -0.021 A 
ATOM     45  C   LIG A   1      -6.050  -1.927 125.842  0.00  0.00    +0.012 A 
ATOM     46  C   LIG A   1      -5.525  -1.970 124.559  0.00  0.00    +0.050 A 
BRANCH  42  47
ATOM     47  O   LIG A   1      -8.572  -2.070 122.554  0.00  0.00    -0.503 OA
ATOM     48  H   LIG A   1      -9.165  -1.298 122.564  0.00  0.00    +0.292 HD
ENDBRANCH  42  47
BRANCH  41  49
ATOM     49  O   LIG A   1      -5.879  -2.097 122.220  0.00  0.00    -0.503 OA
ATOM     50  H   LIG A   1      -5.184  -2.782 122.285  0.00  0.00    +0.292 HD
ENDBRANCH  41  49
ENDBRANCH  39  44
ENDBRANCH  37  40
ENDBRANCH  36  37
ENDBRANCH   1  36
BRANCH   2  51
ATOM     51  C   LIG A   1      -4.643   1.778 129.677  0.00  0.00    +0.191 C 
BRANCH  51  52
ATOM     52  O   LIG A   1      -4.407   0.840 128.615  0.00  0.00    -0.392 OA
ATOM     53  H   LIG A   1      -3.692   1.224 128.063  0.00  0.00    +0.209 HD
ENDBRANCH  51  52
ENDBRANCH   2  51
TORSDOF 20
ENDMDL
MODEL 9
REMARK VINA RESULT:      -8.7      2.027      3.047
REMARK  Name = NuBBE_546
REMARK  21 active torsions:
REMARK  status: ('A' for Active; 'I' for Inactive)
REMARK    1  A    between atoms: O_1  and  C_2
REMARK    2  A    between atoms: C_3  and  O_54
REMARK    3  A    between atoms: C_5  and  C_8
REMARK    4  A    between atoms: C_9  and  C_10
REMARK    5  A    between atoms: C_10  and  O_11
REMARK    6  A    between atoms: O_11  and  C_12
REMARK    7  A    between atoms: C_14  and  C_51
REMARK    8  A    between atoms: C_17  and  O_40
REMARK    9  A    between atoms: C_19  and  O_39
REMARK   10  A    between atoms: C_21  and  O_23
REMARK   11  A    between atoms: O_23  and  C_24
REMARK   12  A    between atoms: C_26  and  O_38
REMARK   13  A    between atoms: C_28  and  O_37
REMARK   14  A    between atoms: C_30  and  O_36
REMARK   15  A    between atoms: C_32  and  C_35
REMARK   16  A    between atoms: O_40  and  C_41
REMARK   17  A    between atoms: C_41  and  C_42
REMARK   18  A    between atoms: C_42  and  C_43
REMARK   19  A    between atoms: C_45  and  O_46
REMARK   20  A    between atoms: C_47  and  O_50
REMARK   21  A    between atoms: C_51  and  O_52
REMARK                            x       y       z     vdW  Elec       q    Type
REMARK                         _______ _______ _______ _____ _____    ______ ____
ROOT
ATOM      1  C   LIG A   1      -5.288   4.036 128.453  0.00  0.00    +0.239 C 
ATOM      2  C   LIG A   1      -4.249   4.287 127.268  0.00  0.00    +0.190 C 
ATOM      3  O   LIG A   1      -4.823   4.003 125.991  0.00  0.00    -0.339 OA
ATOM      4  C   LIG A   1      -6.047   4.677 125.810  0.00  0.00    +0.282 C 
ATOM      5  C   LIG A   1      -7.142   3.974 126.669  0.00  0.00    +0.203 C 
ATOM      6  C   LIG A   1      -6.577   3.315 127.985  0.00  0.00    +0.198 C 
ENDROOT
BRANCH   5   7
ATOM      7  O   LIG A   1      -8.259   4.851 126.902  0.00  0.00    -0.384 OA
ATOM      8  H   LIG A   1      -9.091   4.372 126.779  0.00  0.00    +0.210 HD
ENDBRANCH   5   7
BRANCH   4   9
ATOM      9  O   LIG A   1      -6.345   4.763 124.409  0.00  0.00    -0.348 OA
BRANCH   9  10
ATOM     10  C   LIG A   1      -7.026   3.600 123.953  0.00  0.00    +0.168 C 
BRANCH  10  11
ATOM     11  C   LIG A   1      -6.311   2.882 122.822  0.00  0.00    +0.063 C 
BRANCH  11  12
ATOM     12  C   LIG A   1      -6.191   3.759 121.589  0.00  0.00    -0.042 A 
ATOM     13  C   LIG A   1      -7.227   3.753 120.646  0.00  0.00    +0.052 A 
ATOM     14  C   LIG A   1      -7.084   4.479 119.467  0.00  0.00    +0.159 A 
ATOM     15  C   LIG A   1      -5.931   5.219 119.222  0.00  0.00    +0.158 A 
ATOM     16  C   LIG A   1      -4.912   5.270 120.153  0.00  0.00    +0.049 A 
ATOM     17  C   LIG A   1      -5.039   4.534 121.327  0.00  0.00    +0.007 A 
BRANCH  15  18
ATOM     18  O   LIG A   1      -5.780   5.888 118.044  0.00  0.00    -0.503 OA
ATOM     19  H   LIG A   1      -6.694   6.083 117.760  0.00  0.00    +0.292 HD
ENDBRANCH  15  18
BRANCH  14  20
ATOM     20  O   LIG A   1      -8.055   4.481 118.503  0.00  0.00    -0.503 OA
ATOM     21  H   LIG A   1      -7.732   3.952 117.753  0.00  0.00    +0.292 HD
ENDBRANCH  14  20
ENDBRANCH  11  12
ENDBRANCH  10  11
ENDBRANCH   9  10
ENDBRANCH   4   9
BRANCH   6  22
ATOM     22  O   LIG A   1      -6.315   1.898 127.819  0.00  0.00    -0.339 OA
BRANCH  22  23
ATOM     23  C   LIG A   1      -7.384   1.147 127.170  0.00  0.00    +0.282 C 
ATOM     24  C   LIG A   1      -6.848   0.365 125.954  0.00  0.00    +0.201 C 
ATOM     25  C   LIG A   1      -5.609  -0.412 126.414  0.00  0.00    +0.179 C 
ATOM     26  C   LIG A   1      -5.959  -1.378 127.543  0.00  0.00    +0.174 C 
ATOM     27  C   LIG A   1      -6.994  -0.773 128.527  0.00  0.00    +0.149 C 
ATOM     28  O   LIG A   1      -7.988   0.097 127.978  0.00  0.00    -0.343 OA
ATOM     29  C   LIG A   1      -7.594  -1.807 129.459  0.00  0.00    +0.040 C 
BRANCH  24  30
ATOM     30  O   LIG A   1      -7.880  -0.542 125.507  0.00  0.00    -0.384 OA
ATOM     31  H   LIG A   1      -7.440  -1.209 124.939  0.00  0.00    +0.210 HD
ENDBRANCH  24  30
BRANCH  25  32
ATOM     32  O   LIG A   1      -5.012  -1.160 125.350  0.00  0.00    -0.386 OA
ATOM     33  H   LIG A   1      -5.742  -1.353 124.728  0.00  0.00    +0.210 HD
ENDBRANCH  25  32
BRANCH  26  34
ATOM     34  O   LIG A   1      -4.716  -1.880 128.071  0.00  0.00    -0.387 OA
ATOM     35  H   LIG A   1      -3.952  -1.543 127.557  0.00  0.00    +0.210 HD
ENDBRANCH  26  34
ENDBRANCH  22  23
ENDBRANCH   6  22
BRANCH   1  36
ATOM     36  O   LIG A   1      -5.543   5.333 129.038  0.00  0.00    -0.453 OA
BRANCH  36  37
ATOM     37  C   LIG A   1      -5.810   5.468 130.372  0.00  0.00    +0.332 C 
ATOM     38  O   LIG A   1      -5.099   5.332 131.301  0.00  0.00    -0.246 OA
BRANCH  37  40
ATOM     39  C   LIG A   1      -7.897   6.684 130.788  0.00  0.00    +0.015 C 
ATOM     40  C   LIG A   1      -7.282   5.540 130.480  0.00  0.00    +0.092 C 
BRANCH  39  44
ATOM     41  C   LIG A   1     -12.062   7.007 131.243  0.00  0.00    +0.158 A 
ATOM     42  C   LIG A   1     -11.472   7.541 130.100  0.00  0.00    +0.159 A 
ATOM     43  C   LIG A   1     -10.105   7.448 129.914  0.00  0.00    +0.057 A 
ATOM     44  C   LIG A   1      -9.338   6.802 130.889  0.00  0.00    -0.021 A 
ATOM     45  C   LIG A   1      -9.935   6.263 132.034  0.00  0.00    +0.012 A 
ATOM     46  C   LIG A   1     -11.308   6.360 132.209  0.00  0.00    +0.050 A 
BRANCH  42  47
ATOM     47  O   LIG A   1     -12.277   8.164 129.189  0.00  0.00    -0.503 OA
ATOM     48  H   LIG A   1     -13.204   8.023 129.450  0.00  0.00    +0.292 HD
ENDBRANCH  42  47
BRANCH  41  49
ATOM     49  O   LIG A   1     -13.407   7.130 131.429  0.00  0.00    -0.503 OA
ATOM     50  H   LIG A   1     -13.705   6.222 131.638  0.00  0.00    +0.292 HD
ENDBRANCH  41  49
ENDBRANCH  39  44
ENDBRANCH  37  40
ENDBRANCH  36  37
ENDBRANCH   1  36
BRANCH   2  51
ATOM     51  C   LIG A   1      -2.923   3.504 127.219  0.00  0.00    +0.191 C 
BRANCH  51  52
ATOM     52  O   LIG A   1      -3.067   2.186 127.772  0.00  0.00    -0.392 OA
ATOM     53  H   LIG A   1      -3.139   1.574 127.009  0.00  0.00    +0.209 HD
ENDBRANCH  51  52
ENDBRANCH   2  51
TORSDOF 20
ENDMDL
