MODEL 1
REMARK VINA RESULT:      -6.3      0.000      0.000
REMARK  Name = NuBBE_1167
REMARK  13 active torsions:
REMARK  status: ('A' for Active; 'I' for Inactive)
REMARK    1  A    between atoms: O_1  and  C_2
REMARK    2  A    between atoms: C_4  and  O_31
REMARK    3  A    between atoms: C_6  and  C_29
REMARK    4  A    between atoms: C_9  and  O_14
REMARK    5  A    between atoms: C_11  and  O_13
REMARK    6  A    between atoms: O_14  and  C_15
REMARK    7  A    between atoms: C_15  and  C_27
REMARK    8  A    between atoms: C_17  and  C_25
REMARK    9  A    between atoms: C_19  and  O_24
REMARK   10  A    between atoms: C_21  and  O_23
REMARK   11  A    between atoms: C_25  and  O_26
REMARK   12  A    between atoms: C_27  and  O_28
REMARK   13  A    between atoms: C_29  and  O_30
REMARK                            x       y       z     vdW  Elec       q    Type
REMARK                         _______ _______ _______ _____ _____    ______ ____
ROOT
ATOM      1  O   LIG A   1     -10.324   5.808 129.471  0.00  0.00    -0.312 OA
ENDROOT
BRANCH   1   6
ATOM      2  C   LIG A   1      -8.151   6.098 132.541  0.00  0.00    +0.179 C 
ATOM      3  C   LIG A   1      -7.483   4.721 132.358  0.00  0.00    +0.177 C 
ATOM      4  C   LIG A   1      -8.453   3.690 131.769  0.00  0.00    +0.178 C 
ATOM      5  O   LIG A   1      -9.040   4.222 130.572  0.00  0.00    -0.340 OA
ATOM      6  C   LIG A   1      -9.833   5.396 130.752  0.00  0.00    +0.285 C 
ATOM      7  C   LIG A   1      -8.915   6.529 131.274  0.00  0.00    +0.201 C 
BRANCH   2   8
ATOM      8  O   LIG A   1      -9.032   6.072 133.664  0.00  0.00    -0.386 OA
ATOM      9  H   LIG A   1      -9.283   6.997 133.851  0.00  0.00    +0.210 HD
ENDBRANCH   2   8
BRANCH   7  10
ATOM     10  O   LIG A   1      -7.954   6.852 130.242  0.00  0.00    -0.384 OA
ATOM     11  H   LIG A   1      -7.444   6.022 130.120  0.00  0.00    +0.210 HD
ENDBRANCH   7  10
BRANCH   3  12
ATOM     12  O   LIG A   1      -6.363   4.849 131.468  0.00  0.00    -0.387 OA
ATOM     13  H   LIG A   1      -6.177   3.952 131.113  0.00  0.00    +0.210 HD
ENDBRANCH   3  12
BRANCH   4  14
ATOM     14  C   LIG A   1      -9.512   3.156 132.749  0.00  0.00    +0.190 C 
BRANCH  14  15
ATOM     15  O   LIG A   1     -10.271   2.092 132.175  0.00  0.00    -0.392 OA
ATOM     16  H   LIG A   1     -10.880   2.456 131.497  0.00  0.00    +0.209 HD
ENDBRANCH  14  15
ENDBRANCH   4  14
ENDBRANCH   1   6
BRANCH   1  17
ATOM     17  C   LIG A   1     -11.469   6.681 129.439  0.00  0.00    +0.225 C 
ATOM     18  O   LIG A   1     -12.252   6.261 128.286  0.00  0.00    -0.336 OA
ATOM     19  C   LIG A   1     -12.580   7.410 127.489  0.00  0.00    +0.178 C 
ATOM     20  C   LIG A   1     -12.262   8.656 128.319  0.00  0.00    +0.179 C 
ATOM     21  C   LIG A   1     -11.126   8.181 129.215  0.00  0.00    +0.207 C 
BRANCH  21  22
ATOM     22  O   LIG A   1      -9.881   8.373 128.519  0.00  0.00    -0.384 OA
ATOM     23  H   LIG A   1      -9.265   7.698 128.861  0.00  0.00    +0.210 HD
ENDBRANCH  21  22
BRANCH  20  24
ATOM     24  O   LIG A   1     -13.383   9.036 129.125  0.00  0.00    -0.386 OA
ATOM     25  H   LIG A   1     -14.168   8.612 128.757  0.00  0.00    +0.210 HD
ENDBRANCH  20  24
BRANCH  19  26
ATOM     26  C   LIG A   1     -11.789   7.310 126.183  0.00  0.00    +0.190 C 
BRANCH  26  27
ATOM     27  O   LIG A   1     -10.691   6.417 126.322  0.00  0.00    -0.392 OA
ATOM     28  H   LIG A   1     -11.010   5.670 126.859  0.00  0.00    +0.209 HD
ENDBRANCH  26  27
ENDBRANCH  19  26
BRANCH  17  29
ATOM     29  C   LIG A   1     -12.435   6.462 130.645  0.00  0.00    +0.223 C 
BRANCH  29  30
ATOM     30  O   LIG A   1     -12.557   7.584 131.519  0.00  0.00    -0.390 OA
ATOM     31  H   LIG A   1     -11.664   7.661 131.917  0.00  0.00    +0.210 HD
ENDBRANCH  29  30
ENDBRANCH  17  29
ENDBRANCH   1  17
TORSDOF 13
ENDMDL
MODEL 2
REMARK VINA RESULT:      -6.1      1.403      1.611
REMARK  Name = NuBBE_1167
REMARK  13 active torsions:
REMARK  status: ('A' for Active; 'I' for Inactive)
REMARK    1  A    between atoms: O_1  and  C_2
REMARK    2  A    between atoms: C_4  and  O_31
REMARK    3  A    between atoms: C_6  and  C_29
REMARK    4  A    between atoms: C_9  and  O_14
REMARK    5  A    between atoms: C_11  and  O_13
REMARK    6  A    between atoms: O_14  and  C_15
REMARK    7  A    between atoms: C_15  and  C_27
REMARK    8  A    between atoms: C_17  and  C_25
REMARK    9  A    between atoms: C_19  and  O_24
REMARK   10  A    between atoms: C_21  and  O_23
REMARK   11  A    between atoms: C_25  and  O_26
REMARK   12  A    between atoms: C_27  and  O_28
REMARK   13  A    between atoms: C_29  and  O_30
REMARK                            x       y       z     vdW  Elec       q    Type
REMARK                         _______ _______ _______ _____ _____    ______ ____
ROOT
ATOM      1  O   LIG A   1     -10.564   5.464 129.215  0.00  0.00    -0.312 OA
ENDROOT
BRANCH   1   6
ATOM      2  C   LIG A   1      -7.401   4.314 130.919  0.00  0.00    +0.179 C 
ATOM      3  C   LIG A   1      -7.643   2.817 130.648  0.00  0.00    +0.177 C 
ATOM      4  C   LIG A   1      -9.133   2.461 130.701  0.00  0.00    +0.178 C 
ATOM      5  O   LIG A   1      -9.861   3.342 129.832  0.00  0.00    -0.340 OA
ATOM      6  C   LIG A   1      -9.812   4.724 130.184  0.00  0.00    +0.285 C 
ATOM      7  C   LIG A   1      -8.342   5.201 130.081  0.00  0.00    +0.201 C 
BRANCH   2   8
ATOM      8  O   LIG A   1      -7.565   4.595 132.310  0.00  0.00    -0.386 OA
ATOM      9  H   LIG A   1      -8.518   4.512 132.506  0.00  0.00    +0.210 HD
ENDBRANCH   2   8
BRANCH   7  10
ATOM     10  O   LIG A   1      -7.933   5.129 128.696  0.00  0.00    -0.384 OA
ATOM     11  H   LIG A   1      -7.100   4.610 128.717  0.00  0.00    +0.210 HD
ENDBRANCH   7  10
BRANCH   3  12
ATOM     12  O   LIG A   1      -7.144   2.483 129.343  0.00  0.00    -0.387 OA
ATOM     13  H   LIG A   1      -7.190   3.301 128.801  0.00  0.00    +0.210 HD
ENDBRANCH   3  12
BRANCH   4  14
ATOM     14  C   LIG A   1      -9.741   2.405 132.113  0.00  0.00    +0.190 C 
BRANCH  14  15
ATOM     15  O   LIG A   1      -8.781   1.983 133.082  0.00  0.00    -0.392 OA
ATOM     16  H   LIG A   1      -9.243   1.746 133.915  0.00  0.00    +0.209 HD
ENDBRANCH  14  15
ENDBRANCH   4  14
ENDBRANCH   1   6
BRANCH   1  17
ATOM     17  C   LIG A   1     -11.394   6.541 129.687  0.00  0.00    +0.225 C 
ATOM     18  O   LIG A   1     -12.693   6.341 129.061  0.00  0.00    -0.336 OA
ATOM     19  C   LIG A   1     -13.127   7.572 128.462  0.00  0.00    +0.178 C 
ATOM     20  C   LIG A   1     -12.219   8.688 128.985  0.00  0.00    +0.179 C 
ATOM     21  C   LIG A   1     -10.912   7.957 129.260  0.00  0.00    +0.207 C 
BRANCH  21  22
ATOM     22  O   LIG A   1     -10.132   7.941 128.050  0.00  0.00    -0.384 OA
ATOM     23  H   LIG A   1      -9.201   8.048 128.320  0.00  0.00    +0.210 HD
ENDBRANCH  21  22
BRANCH  20  24
ATOM     24  O   LIG A   1     -12.730   9.234 130.207  0.00  0.00    -0.386 OA
ATOM     25  H   LIG A   1     -12.303  10.089 130.348  0.00  0.00    +0.210 HD
ENDBRANCH  20  24
BRANCH  19  26
ATOM     26  C   LIG A   1     -13.082   7.391 126.943  0.00  0.00    +0.190 C 
BRANCH  26  27
ATOM     27  O   LIG A   1     -12.103   6.427 126.577  0.00  0.00    -0.392 OA
ATOM     28  H   LIG A   1     -12.070   6.424 125.604  0.00  0.00    +0.209 HD
ENDBRANCH  26  27
ENDBRANCH  19  26
BRANCH  17  29
ATOM     29  C   LIG A   1     -11.699   6.450 131.215  0.00  0.00    +0.223 C 
BRANCH  29  30
ATOM     30  O   LIG A   1     -13.028   6.821 131.579  0.00  0.00    -0.390 OA
ATOM     31  H   LIG A   1     -12.927   7.160 132.494  0.00  0.00    +0.210 HD
ENDBRANCH  29  30
ENDBRANCH  17  29
ENDBRANCH   1  17
TORSDOF 13
ENDMDL
MODEL 3
REMARK VINA RESULT:      -5.6      7.348      9.214
REMARK  Name = NuBBE_1167
REMARK  13 active torsions:
REMARK  status: ('A' for Active; 'I' for Inactive)
REMARK    1  A    between atoms: O_1  and  C_2
REMARK    2  A    between atoms: C_4  and  O_31
REMARK    3  A    between atoms: C_6  and  C_29
REMARK    4  A    between atoms: C_9  and  O_14
REMARK    5  A    between atoms: C_11  and  O_13
REMARK    6  A    between atoms: O_14  and  C_15
REMARK    7  A    between atoms: C_15  and  C_27
REMARK    8  A    between atoms: C_17  and  C_25
REMARK    9  A    between atoms: C_19  and  O_24
REMARK   10  A    between atoms: C_21  and  O_23
REMARK   11  A    between atoms: C_25  and  O_26
REMARK   12  A    between atoms: C_27  and  O_28
REMARK   13  A    between atoms: C_29  and  O_30
REMARK                            x       y       z     vdW  Elec       q    Type
REMARK                         _______ _______ _______ _____ _____    ______ ____
ROOT
ATOM      1  O   LIG A   1      -7.952   0.634 123.302  0.00  0.00    -0.312 OA
ENDROOT
BRANCH   1   6
ATOM      2  C   LIG A   1      -7.743   4.058 124.871  0.00  0.00    +0.179 C 
ATOM      3  C   LIG A   1      -6.728   3.644 125.954  0.00  0.00    +0.177 C 
ATOM      4  C   LIG A   1      -6.961   2.207 126.435  0.00  0.00    +0.178 C 
ATOM      5  O   LIG A   1      -7.002   1.329 125.300  0.00  0.00    -0.340 OA
ATOM      6  C   LIG A   1      -8.064   1.573 124.378  0.00  0.00    +0.285 C 
ATOM      7  C   LIG A   1      -7.869   2.985 123.773  0.00  0.00    +0.201 C 
BRANCH   2   8
ATOM      8  O   LIG A   1      -9.018   4.310 125.464  0.00  0.00    -0.386 OA
ATOM      9  H   LIG A   1      -9.548   4.794 124.802  0.00  0.00    +0.210 HD
ENDBRANCH   2   8
BRANCH   7  10
ATOM     10  O   LIG A   1      -6.653   2.983 122.988  0.00  0.00    -0.384 OA
ATOM     11  H   LIG A   1      -6.795   2.272 122.325  0.00  0.00    +0.210 HD
ENDBRANCH   7  10
BRANCH   3  12
ATOM     12  O   LIG A   1      -5.398   3.731 125.418  0.00  0.00    -0.387 OA
ATOM     13  H   LIG A   1      -4.939   4.449 125.908  0.00  0.00    +0.210 HD
ENDBRANCH   3  12
BRANCH   4  14
ATOM     14  C   LIG A   1      -8.175   2.017 127.361  0.00  0.00    +0.190 C 
BRANCH  14  15
ATOM     15  O   LIG A   1      -8.454   3.199 128.110  0.00  0.00    -0.392 OA
ATOM     16  H   LIG A   1      -8.005   3.145 128.981  0.00  0.00    +0.209 HD
ENDBRANCH  14  15
ENDBRANCH   4  14
ENDBRANCH   1   6
BRANCH   1  17
ATOM     17  C   LIG A   1      -8.827  -0.510 123.314  0.00  0.00    +0.225 C 
ATOM     18  O   LIG A   1      -9.468  -0.502 124.621  0.00  0.00    -0.336 OA
ATOM     19  C   LIG A   1      -9.360  -1.806 125.212  0.00  0.00    +0.178 C 
ATOM     20  C   LIG A   1      -8.904  -2.775 124.119  0.00  0.00    +0.179 C 
ATOM     21  C   LIG A   1      -8.097  -1.878 123.190  0.00  0.00    +0.207 C 
BRANCH  21  22
ATOM     22  O   LIG A   1      -6.738  -1.832 123.664  0.00  0.00    -0.384 OA
ATOM     23  H   LIG A   1      -6.781  -1.892 124.636  0.00  0.00    +0.210 HD
ENDBRANCH  21  22
BRANCH  20  24
ATOM     24  O   LIG A   1     -10.026  -3.313 123.410  0.00  0.00    -0.386 OA
ATOM     25  H   LIG A   1     -10.798  -3.249 123.987  0.00  0.00    +0.210 HD
ENDBRANCH  20  24
BRANCH  19  26
ATOM     26  C   LIG A   1      -8.396  -1.701 126.396  0.00  0.00    +0.190 C 
BRANCH  26  27
ATOM     27  O   LIG A   1      -7.506  -2.809 126.425  0.00  0.00    -0.392 OA
ATOM     28  H   LIG A   1      -6.670  -2.482 126.802  0.00  0.00    +0.209 HD
ENDBRANCH  26  27
ENDBRANCH  19  26
BRANCH  17  29
ATOM     29  C   LIG A   1     -10.017  -0.376 122.314  0.00  0.00    +0.223 C 
BRANCH  29  30
ATOM     30  O   LIG A   1     -11.081   0.461 122.765  0.00  0.00    -0.390 OA
ATOM     31  H   LIG A   1     -10.729   1.367 122.635  0.00  0.00    +0.210 HD
ENDBRANCH  29  30
ENDBRANCH  17  29
ENDBRANCH   1  17
TORSDOF 13
ENDMDL
MODEL 4
REMARK VINA RESULT:      -5.6      7.583      8.959
REMARK  Name = NuBBE_1167
REMARK  13 active torsions:
REMARK  status: ('A' for Active; 'I' for Inactive)
REMARK    1  A    between atoms: O_1  and  C_2
REMARK    2  A    between atoms: C_4  and  O_31
REMARK    3  A    between atoms: C_6  and  C_29
REMARK    4  A    between atoms: C_9  and  O_14
REMARK    5  A    between atoms: C_11  and  O_13
REMARK    6  A    between atoms: O_14  and  C_15
REMARK    7  A    between atoms: C_15  and  C_27
REMARK    8  A    between atoms: C_17  and  C_25
REMARK    9  A    between atoms: C_19  and  O_24
REMARK   10  A    between atoms: C_21  and  O_23
REMARK   11  A    between atoms: C_25  and  O_26
REMARK   12  A    between atoms: C_27  and  O_28
REMARK   13  A    between atoms: C_29  and  O_30
REMARK                            x       y       z     vdW  Elec       q    Type
REMARK                         _______ _______ _______ _____ _____    ______ ____
ROOT
ATOM      1  O   LIG A   1      -6.844   1.005 124.443  0.00  0.00    -0.312 OA
ENDROOT
BRANCH   1   6
ATOM      2  C   LIG A   1      -7.523  -2.468 125.750  0.00  0.00    +0.179 C 
ATOM      3  C   LIG A   1      -7.348  -3.158 124.383  0.00  0.00    +0.177 C 
ATOM      4  C   LIG A   1      -7.850  -2.280 123.231  0.00  0.00    +0.178 C 
ATOM      5  O   LIG A   1      -7.235  -0.986 123.320  0.00  0.00    -0.340 OA
ATOM      6  C   LIG A   1      -7.547  -0.242 124.498  0.00  0.00    +0.285 C 
ATOM      7  C   LIG A   1      -7.002  -1.018 125.723  0.00  0.00    +0.201 C 
BRANCH   2   8
ATOM      8  O   LIG A   1      -8.897  -2.492 126.140  0.00  0.00    -0.386 OA
ATOM      9  H   LIG A   1      -8.969  -3.112 126.891  0.00  0.00    +0.210 HD
ENDBRANCH   2   8
BRANCH   7  10
ATOM     10  O   LIG A   1      -5.558  -1.048 125.641  0.00  0.00    -0.384 OA
ATOM     11  H   LIG A   1      -5.367  -0.899 124.690  0.00  0.00    +0.210 HD
ENDBRANCH   7  10
BRANCH   3  12
ATOM     12  O   LIG A   1      -5.956  -3.437 124.166  0.00  0.00    -0.387 OA
ATOM     13  H   LIG A   1      -5.453  -2.669 124.515  0.00  0.00    +0.210 HD
ENDBRANCH   3  12
BRANCH   4  14
ATOM     14  C   LIG A   1      -9.380  -2.188 123.100  0.00  0.00    +0.190 C 
BRANCH  14  15
ATOM     15  O   LIG A   1     -10.018  -3.389 123.532  0.00  0.00    -0.392 OA
ATOM     16  H   LIG A   1      -9.590  -3.706 124.356  0.00  0.00    +0.209 HD
ENDBRANCH  14  15
ENDBRANCH   4  14
ENDBRANCH   1   6
BRANCH   1  17
ATOM     17  C   LIG A   1      -7.617   2.217 124.524  0.00  0.00    +0.225 C 
ATOM     18  O   LIG A   1      -6.814   3.241 123.872  0.00  0.00    -0.336 OA
ATOM     19  C   LIG A   1      -6.731   4.395 124.723  0.00  0.00    +0.178 C 
ATOM     20  C   LIG A   1      -7.774   4.229 125.831  0.00  0.00    +0.179 C 
ATOM     21  C   LIG A   1      -7.876   2.717 125.974  0.00  0.00    +0.207 C 
BRANCH  21  22
ATOM     22  O   LIG A   1      -6.872   2.275 126.906  0.00  0.00    -0.384 OA
ATOM     23  H   LIG A   1      -7.133   2.621 127.780  0.00  0.00    +0.210 HD
ENDBRANCH  21  22
BRANCH  20  24
ATOM     24  O   LIG A   1      -9.042   4.759 125.426  0.00  0.00    -0.386 OA
ATOM     25  H   LIG A   1      -9.056   4.784 124.460  0.00  0.00    +0.210 HD
ENDBRANCH  20  24
BRANCH  19  26
ATOM     26  C   LIG A   1      -5.291   4.495 125.232  0.00  0.00    +0.190 C 
BRANCH  26  27
ATOM     27  O   LIG A   1      -5.258   4.988 126.565  0.00  0.00    -0.392 OA
ATOM     28  H   LIG A   1      -4.831   5.862 126.525  0.00  0.00    +0.209 HD
ENDBRANCH  26  27
ENDBRANCH  19  26
BRANCH  17  29
ATOM     29  C   LIG A   1      -8.921   2.165 123.669  0.00  0.00    +0.223 C 
BRANCH  29  30
ATOM     30  O   LIG A   1     -10.129   2.142 124.428  0.00  0.00    -0.390 OA
ATOM     31  H   LIG A   1     -10.829   2.193 123.743  0.00  0.00    +0.210 HD
ENDBRANCH  29  30
ENDBRANCH  17  29
ENDBRANCH   1  17
TORSDOF 13
ENDMDL
MODEL 5
REMARK VINA RESULT:      -5.5      7.454      9.248
REMARK  Name = NuBBE_1167
REMARK  13 active torsions:
REMARK  status: ('A' for Active; 'I' for Inactive)
REMARK    1  A    between atoms: O_1  and  C_2
REMARK    2  A    between atoms: C_4  and  O_31
REMARK    3  A    between atoms: C_6  and  C_29
REMARK    4  A    between atoms: C_9  and  O_14
REMARK    5  A    between atoms: C_11  and  O_13
REMARK    6  A    between atoms: O_14  and  C_15
REMARK    7  A    between atoms: C_15  and  C_27
REMARK    8  A    between atoms: C_17  and  C_25
REMARK    9  A    between atoms: C_19  and  O_24
REMARK   10  A    between atoms: C_21  and  O_23
REMARK   11  A    between atoms: C_25  and  O_26
REMARK   12  A    between atoms: C_27  and  O_28
REMARK   13  A    between atoms: C_29  and  O_30
REMARK                            x       y       z     vdW  Elec       q    Type
REMARK                         _______ _______ _______ _____ _____    ______ ____
ROOT
ATOM      1  O   LIG A   1      -8.638   1.245 124.358  0.00  0.00    -0.312 OA
ENDROOT
BRANCH   1   6
ATOM      2  C   LIG A   1      -8.128  -2.307 123.194  0.00  0.00    +0.179 C 
ATOM      3  C   LIG A   1      -8.500  -2.943 124.547  0.00  0.00    +0.177 C 
ATOM      4  C   LIG A   1      -8.045  -2.078 125.728  0.00  0.00    +0.178 C 
ATOM      5  O   LIG A   1      -8.535  -0.740 125.552  0.00  0.00    -0.340 OA
ATOM      6  C   LIG A   1      -8.042  -0.057 124.399  0.00  0.00    +0.285 C 
ATOM      7  C   LIG A   1      -8.523  -0.818 123.140  0.00  0.00    +0.201 C 
BRANCH   2   8
ATOM      8  O   LIG A   1      -6.729  -2.456 122.949  0.00  0.00    -0.386 OA
ATOM      9  H   LIG A   1      -6.403  -1.593 122.629  0.00  0.00    +0.210 HD
ENDBRANCH   2   8
BRANCH   7  10
ATOM     10  O   LIG A   1      -9.965  -0.726 123.071  0.00  0.00    -0.384 OA
ATOM     11  H   LIG A   1     -10.279  -1.318 123.789  0.00  0.00    +0.210 HD
ENDBRANCH   7  10
BRANCH   3  12
ATOM     12  O   LIG A   1      -9.926  -3.099 124.624  0.00  0.00    -0.387 OA
ATOM     13  H   LIG A   1     -10.118  -3.557 125.472  0.00  0.00    +0.210 HD
ENDBRANCH   3  12
BRANCH   4  14
ATOM     14  C   LIG A   1      -6.534  -2.111 126.017  0.00  0.00    +0.190 C 
BRANCH  14  15
ATOM     15  O   LIG A   1      -6.229  -1.539 127.289  0.00  0.00    -0.392 OA
ATOM     16  H   LIG A   1      -6.519  -2.151 127.998  0.00  0.00    +0.209 HD
ENDBRANCH  14  15
ENDBRANCH   4  14
ENDBRANCH   1   6
BRANCH   1  17
ATOM     17  C   LIG A   1      -7.784   2.365 124.060  0.00  0.00    +0.225 C 
ATOM     18  O   LIG A   1      -6.435   1.933 124.394  0.00  0.00    -0.336 OA
ATOM     19  C   LIG A   1      -5.807   2.928 125.218  0.00  0.00    +0.178 C 
ATOM     20  C   LIG A   1      -6.670   4.191 125.160  0.00  0.00    +0.179 C 
ATOM     21  C   LIG A   1      -8.066   3.633 124.915  0.00  0.00    +0.207 C 
BRANCH  21  22
ATOM     22  O   LIG A   1      -8.667   3.327 126.187  0.00  0.00    -0.384 OA
ATOM     23  H   LIG A   1      -8.113   2.636 126.596  0.00  0.00    +0.210 HD
ENDBRANCH  21  22
BRANCH  20  24
ATOM     24  O   LIG A   1      -6.287   5.023 124.059  0.00  0.00    -0.386 OA
ATOM     25  H   LIG A   1      -6.055   4.447 123.320  0.00  0.00    +0.210 HD
ENDBRANCH  20  24
BRANCH  19  26
ATOM     26  C   LIG A   1      -5.656   2.340 126.623  0.00  0.00    +0.190 C 
BRANCH  26  27
ATOM     27  O   LIG A   1      -6.615   1.314 126.849  0.00  0.00    -0.392 OA
ATOM     28  H   LIG A   1      -7.276   1.685 127.461  0.00  0.00    +0.209 HD
ENDBRANCH  26  27
ENDBRANCH  19  26
BRANCH  17  29
ATOM     29  C   LIG A   1      -7.707   2.681 122.533  0.00  0.00    +0.223 C 
BRANCH  29  30
ATOM     30  O   LIG A   1      -8.449   3.830 122.126  0.00  0.00    -0.390 OA
ATOM     31  H   LIG A   1      -8.622   3.664 121.175  0.00  0.00    +0.210 HD
ENDBRANCH  29  30
ENDBRANCH  17  29
ENDBRANCH   1  17
TORSDOF 13
ENDMDL
MODEL 6
REMARK VINA RESULT:      -5.5      7.796      9.135
REMARK  Name = NuBBE_1167
REMARK  13 active torsions:
REMARK  status: ('A' for Active; 'I' for Inactive)
REMARK    1  A    between atoms: O_1  and  C_2
REMARK    2  A    between atoms: C_4  and  O_31
REMARK    3  A    between atoms: C_6  and  C_29
REMARK    4  A    between atoms: C_9  and  O_14
REMARK    5  A    between atoms: C_11  and  O_13
REMARK    6  A    between atoms: O_14  and  C_15
REMARK    7  A    between atoms: C_15  and  C_27
REMARK    8  A    between atoms: C_17  and  C_25
REMARK    9  A    between atoms: C_19  and  O_24
REMARK   10  A    between atoms: C_21  and  O_23
REMARK   11  A    between atoms: C_25  and  O_26
REMARK   12  A    between atoms: C_27  and  O_28
REMARK   13  A    between atoms: C_29  and  O_30
REMARK                            x       y       z     vdW  Elec       q    Type
REMARK                         _______ _______ _______ _____ _____    ______ ____
ROOT
ATOM      1  O   LIG A   1      -6.814   0.307 125.423  0.00  0.00    -0.312 OA
ENDROOT
BRANCH   1   6
ATOM      2  C   LIG A   1      -7.815  -3.304 125.863  0.00  0.00    +0.179 C 
ATOM      3  C   LIG A   1      -7.557  -3.690 124.394  0.00  0.00    +0.177 C 
ATOM      4  C   LIG A   1      -7.899  -2.545 123.434  0.00  0.00    +0.178 C 
ATOM      5  O   LIG A   1      -7.218  -1.354 123.857  0.00  0.00    -0.340 OA
ATOM      6  C   LIG A   1      -7.591  -0.863 125.144  0.00  0.00    +0.285 C 
ATOM      7  C   LIG A   1      -7.209  -1.928 126.201  0.00  0.00    +0.201 C 
BRANCH   2   8
ATOM      8  O   LIG A   1      -9.218  -3.304 126.132  0.00  0.00    -0.386 OA
ATOM      9  H   LIG A   1      -9.516  -4.233 126.089  0.00  0.00    +0.210 HD
ENDBRANCH   2   8
BRANCH   7  10
ATOM     10  O   LIG A   1      -5.768  -2.053 126.225  0.00  0.00    -0.384 OA
ATOM     11  H   LIG A   1      -5.590  -2.651 126.984  0.00  0.00    +0.210 HD
ENDBRANCH   7  10
BRANCH   3  12
ATOM     12  O   LIG A   1      -6.170  -4.023 124.226  0.00  0.00    -0.387 OA
ATOM     13  H   LIG A   1      -6.134  -4.803 123.629  0.00  0.00    +0.210 HD
ENDBRANCH   3  12
BRANCH   4  14
ATOM     14  C   LIG A   1      -9.402  -2.307 123.210  0.00  0.00    +0.190 C 
BRANCH  14  15
ATOM     15  O   LIG A   1     -10.153  -3.511 123.361  0.00  0.00    -0.392 OA
ATOM     16  H   LIG A   1     -11.094  -3.337 123.142  0.00  0.00    +0.209 HD
ENDBRANCH  14  15
ENDBRANCH   4  14
ENDBRANCH   1   6
BRANCH   1  17
ATOM     17  C   LIG A   1      -7.507   1.562 125.545  0.00  0.00    +0.225 C 
ATOM     18  O   LIG A   1      -8.911   1.262 125.302  0.00  0.00    -0.336 OA
ATOM     19  C   LIG A   1      -9.434   2.186 124.335  0.00  0.00    +0.178 C 
ATOM     20  C   LIG A   1      -8.417   3.317 124.176  0.00  0.00    +0.179 C 
ATOM     21  C   LIG A   1      -7.096   2.629 124.491  0.00  0.00    +0.207 C 
BRANCH  21  22
ATOM     22  O   LIG A   1      -6.581   2.047 123.279  0.00  0.00    -0.384 OA
ATOM     23  H   LIG A   1      -6.716   2.709 122.575  0.00  0.00    +0.210 HD
ENDBRANCH  21  22
BRANCH  20  24
ATOM     24  O   LIG A   1      -8.654   4.359 125.130  0.00  0.00    -0.386 OA
ATOM     25  H   LIG A   1      -7.836   4.862 125.227  0.00  0.00    +0.210 HD
ENDBRANCH  20  24
BRANCH  19  26
ATOM     26  C   LIG A   1      -9.706   1.405 123.047  0.00  0.00    +0.190 C 
BRANCH  26  27
ATOM     27  O   LIG A   1     -10.975   0.765 123.100  0.00  0.00    -0.392 OA
ATOM     28  H   LIG A   1     -11.617   1.395 122.726  0.00  0.00    +0.209 HD
ENDBRANCH  26  27
ENDBRANCH  19  26
BRANCH  17  29
ATOM     29  C   LIG A   1      -7.493   2.126 127.001  0.00  0.00    +0.223 C 
BRANCH  29  30
ATOM     30  O   LIG A   1      -8.786   2.337 127.568  0.00  0.00    -0.390 OA
ATOM     31  H   LIG A   1      -9.205   2.971 126.949  0.00  0.00    +0.210 HD
ENDBRANCH  29  30
ENDBRANCH  17  29
ENDBRANCH   1  17
TORSDOF 13
ENDMDL
MODEL 7
REMARK VINA RESULT:      -5.3      3.493      5.000
REMARK  Name = NuBBE_1167
REMARK  13 active torsions:
REMARK  status: ('A' for Active; 'I' for Inactive)
REMARK    1  A    between atoms: O_1  and  C_2
REMARK    2  A    between atoms: C_4  and  O_31
REMARK    3  A    between atoms: C_6  and  C_29
REMARK    4  A    between atoms: C_9  and  O_14
REMARK    5  A    between atoms: C_11  and  O_13
REMARK    6  A    between atoms: O_14  and  C_15
REMARK    7  A    between atoms: C_15  and  C_27
REMARK    8  A    between atoms: C_17  and  C_25
REMARK    9  A    between atoms: C_19  and  O_24
REMARK   10  A    between atoms: C_21  and  O_23
REMARK   11  A    between atoms: C_25  and  O_26
REMARK   12  A    between atoms: C_27  and  O_28
REMARK   13  A    between atoms: C_29  and  O_30
REMARK                            x       y       z     vdW  Elec       q    Type
REMARK                         _______ _______ _______ _____ _____    ______ ____
ROOT
ATOM      1  O   LIG A   1      -7.260   5.064 129.459  0.00  0.00    -0.312 OA
ENDROOT
BRANCH   1   6
ATOM      2  C   LIG A   1      -5.536   2.398 127.420  0.00  0.00    +0.179 C 
ATOM      3  C   LIG A   1      -5.495   3.231 126.125  0.00  0.00    +0.177 C 
ATOM      4  C   LIG A   1      -6.734   4.123 125.979  0.00  0.00    +0.178 C 
ATOM      5  O   LIG A   1      -6.899   4.901 127.174  0.00  0.00    -0.340 OA
ATOM      6  C   LIG A   1      -7.139   4.149 128.364  0.00  0.00    +0.285 C 
ATOM      7  C   LIG A   1      -5.896   3.267 128.641  0.00  0.00    +0.201 C 
BRANCH   2   8
ATOM      8  O   LIG A   1      -6.470   1.326 127.285  0.00  0.00    -0.386 OA
ATOM      9  H   LIG A   1      -5.954   0.526 127.065  0.00  0.00    +0.210 HD
ENDBRANCH   2   8
BRANCH   7  10
ATOM     10  O   LIG A   1      -4.776   4.134 128.937  0.00  0.00    -0.384 OA
ATOM     11  H   LIG A   1      -4.744   4.754 128.176  0.00  0.00    +0.210 HD
ENDBRANCH   7  10
BRANCH   3  12
ATOM     12  O   LIG A   1      -4.331   4.073 126.137  0.00  0.00    -0.387 OA
ATOM     13  H   LIG A   1      -4.590   4.913 126.577  0.00  0.00    +0.210 HD
ENDBRANCH   3  12
BRANCH   4  14
ATOM     14  C   LIG A   1      -8.024   3.387 125.581  0.00  0.00    +0.190 C 
BRANCH  14  15
ATOM     15  O   LIG A   1      -9.100   4.297 125.355  0.00  0.00    -0.392 OA
ATOM     16  H   LIG A   1      -8.737   5.177 125.119  0.00  0.00    +0.209 HD
ENDBRANCH  14  15
ENDBRANCH   4  14
ENDBRANCH   1   6
BRANCH   1  17
ATOM     17  C   LIG A   1      -8.489   5.057 130.209  0.00  0.00    +0.225 C 
ATOM     18  O   LIG A   1      -9.552   4.938 129.221  0.00  0.00    -0.336 OA
ATOM     19  C   LIG A   1     -10.548   5.943 129.471  0.00  0.00    +0.178 C 
ATOM     20  C   LIG A   1     -10.273   6.534 130.855  0.00  0.00    +0.179 C 
ATOM     21  C   LIG A   1      -8.766   6.367 130.999  0.00  0.00    +0.207 C 
BRANCH  21  22
ATOM     22  O   LIG A   1      -8.120   7.517 130.422  0.00  0.00    -0.384 OA
ATOM     23  H   LIG A   1      -8.211   7.429 129.454  0.00  0.00    +0.210 HD
ENDBRANCH  21  22
BRANCH  20  24
ATOM     24  O   LIG A   1     -10.939   5.782 131.876  0.00  0.00    -0.386 OA
ATOM     25  H   LIG A   1     -11.727   5.386 131.484  0.00  0.00    +0.210 HD
ENDBRANCH  20  24
BRANCH  19  26
ATOM     26  C   LIG A   1     -10.476   6.961 128.331  0.00  0.00    +0.190 C 
BRANCH  26  27
ATOM     27  O   LIG A   1      -9.700   6.459 127.250  0.00  0.00    -0.392 OA
ATOM     28  H   LIG A   1      -9.188   5.709 127.604  0.00  0.00    +0.209 HD
ENDBRANCH  26  27
ENDBRANCH  19  26
BRANCH  17  29
ATOM     29  C   LIG A   1      -8.656   3.781 131.091  0.00  0.00    +0.223 C 
BRANCH  29  30
ATOM     30  O   LIG A   1      -8.563   4.014 132.496  0.00  0.00    -0.390 OA
ATOM     31  H   LIG A   1      -8.296   4.956 132.553  0.00  0.00    +0.210 HD
ENDBRANCH  29  30
ENDBRANCH  17  29
ENDBRANCH   1  17
TORSDOF 13
ENDMDL
MODEL 8
REMARK VINA RESULT:      -5.2      2.906      3.902
REMARK  Name = NuBBE_1167
REMARK  13 active torsions:
REMARK  status: ('A' for Active; 'I' for Inactive)
REMARK    1  A    between atoms: O_1  and  C_2
REMARK    2  A    between atoms: C_4  and  O_31
REMARK    3  A    between atoms: C_6  and  C_29
REMARK    4  A    between atoms: C_9  and  O_14
REMARK    5  A    between atoms: C_11  and  O_13
REMARK    6  A    between atoms: O_14  and  C_15
REMARK    7  A    between atoms: C_15  and  C_27
REMARK    8  A    between atoms: C_17  and  C_25
REMARK    9  A    between atoms: C_19  and  O_24
REMARK   10  A    between atoms: C_21  and  O_23
REMARK   11  A    between atoms: C_25  and  O_26
REMARK   12  A    between atoms: C_27  and  O_28
REMARK   13  A    between atoms: C_29  and  O_30
REMARK                            x       y       z     vdW  Elec       q    Type
REMARK                         _______ _______ _______ _____ _____    ______ ____
ROOT
ATOM      1  O   LIG A   1      -9.211   4.862 128.987  0.00  0.00    -0.312 OA
ENDROOT
BRANCH   1   6
ATOM      2  C   LIG A   1      -6.001   2.961 128.423  0.00  0.00    +0.179 C 
ATOM      3  C   LIG A   1      -6.677   1.773 127.712  0.00  0.00    +0.177 C 
ATOM      4  C   LIG A   1      -8.065   1.475 128.291  0.00  0.00    +0.178 C 
ATOM      5  O   LIG A   1      -8.845   2.680 128.293  0.00  0.00    -0.340 OA
ATOM      6  C   LIG A   1      -8.336   3.734 129.111  0.00  0.00    +0.285 C 
ATOM      7  C   LIG A   1      -6.958   4.163 128.551  0.00  0.00    +0.201 C 
BRANCH   2   8
ATOM      8  O   LIG A   1      -5.536   2.562 129.713  0.00  0.00    -0.386 OA
ATOM      9  H   LIG A   1      -5.310   3.378 130.199  0.00  0.00    +0.210 HD
ENDBRANCH   2   8
BRANCH   7  10
ATOM     10  O   LIG A   1      -7.155   4.737 127.238  0.00  0.00    -0.384 OA
ATOM     11  H   LIG A   1      -6.471   4.305 126.681  0.00  0.00    +0.210 HD
ENDBRANCH   7  10
BRANCH   3  12
ATOM     12  O   LIG A   1      -6.824   2.076 126.315  0.00  0.00    -0.387 OA
ATOM     13  H   LIG A   1      -7.472   1.433 125.951  0.00  0.00    +0.210 HD
ENDBRANCH   3  12
BRANCH   4  14
ATOM     14  C   LIG A   1      -8.064   0.780 129.663  0.00  0.00    +0.190 C 
BRANCH  14  15
ATOM     15  O   LIG A   1      -6.950  -0.100 129.806  0.00  0.00    -0.392 OA
ATOM     16  H   LIG A   1      -6.289   0.095 129.107  0.00  0.00    +0.209 HD
ENDBRANCH  14  15
ENDBRANCH   4  14
ENDBRANCH   1   6
BRANCH   1  17
ATOM     17  C   LIG A   1     -10.167   5.090 130.039  0.00  0.00    +0.225 C 
ATOM     18  O   LIG A   1     -11.460   5.199 129.379  0.00  0.00    -0.336 OA
ATOM     19  C   LIG A   1     -12.134   6.378 129.845  0.00  0.00    +0.178 C 
ATOM     20  C   LIG A   1     -11.384   6.883 131.080  0.00  0.00    +0.179 C 
ATOM     21  C   LIG A   1      -9.958   6.418 130.821  0.00  0.00    +0.207 C 
BRANCH  21  22
ATOM     22  O   LIG A   1      -9.281   7.423 130.045  0.00  0.00    -0.384 OA
ATOM     23  H   LIG A   1      -8.901   8.057 130.682  0.00  0.00    +0.210 HD
ENDBRANCH  21  22
BRANCH  20  24
ATOM     24  O   LIG A   1     -11.882   6.265 132.272  0.00  0.00    -0.386 OA
ATOM     25  H   LIG A   1     -11.533   6.756 133.027  0.00  0.00    +0.210 HD
ENDBRANCH  20  24
BRANCH  19  26
ATOM     26  C   LIG A   1     -12.177   7.378 128.687  0.00  0.00    +0.190 C 
BRANCH  26  27
ATOM     27  O   LIG A   1     -11.903   8.696 129.146  0.00  0.00    -0.392 OA
ATOM     28  H   LIG A   1     -11.594   8.609 130.065  0.00  0.00    +0.209 HD
ENDBRANCH  26  27
ENDBRANCH  19  26
BRANCH  17  29
ATOM     29  C   LIG A   1     -10.335   3.860 130.985  0.00  0.00    +0.223 C 
BRANCH  29  30
ATOM     30  O   LIG A   1      -9.892   4.076 132.325  0.00  0.00    -0.390 OA
ATOM     31  H   LIG A   1      -8.935   4.264 132.221  0.00  0.00    +0.210 HD
ENDBRANCH  29  30
ENDBRANCH  17  29
ENDBRANCH   1  17
TORSDOF 13
ENDMDL
MODEL 9
REMARK VINA RESULT:      -5.2      2.960      4.936
REMARK  Name = NuBBE_1167
REMARK  13 active torsions:
REMARK  status: ('A' for Active; 'I' for Inactive)
REMARK    1  A    between atoms: O_1  and  C_2
REMARK    2  A    between atoms: C_4  and  O_31
REMARK    3  A    between atoms: C_6  and  C_29
REMARK    4  A    between atoms: C_9  and  O_14
REMARK    5  A    between atoms: C_11  and  O_13
REMARK    6  A    between atoms: O_14  and  C_15
REMARK    7  A    between atoms: C_15  and  C_27
REMARK    8  A    between atoms: C_17  and  C_25
REMARK    9  A    between atoms: C_19  and  O_24
REMARK   10  A    between atoms: C_21  and  O_23
REMARK   11  A    between atoms: C_25  and  O_26
REMARK   12  A    between atoms: C_27  and  O_28
REMARK   13  A    between atoms: C_29  and  O_30
REMARK                            x       y       z     vdW  Elec       q    Type
REMARK                         _______ _______ _______ _____ _____    ______ ____
ROOT
ATOM      1  O   LIG A   1      -6.734   6.640 131.633  0.00  0.00    -0.312 OA
ENDROOT
BRANCH   1   6
ATOM      2  C   LIG A   1      -3.379   4.929 131.412  0.00  0.00    +0.179 C 
ATOM      3  C   LIG A   1      -2.868   5.796 130.245  0.00  0.00    +0.177 C 
ATOM      4  C   LIG A   1      -3.996   6.173 129.277  0.00  0.00    +0.178 C 
ATOM      5  O   LIG A   1      -5.077   6.761 130.016  0.00  0.00    -0.340 OA
ATOM      6  C   LIG A   1      -5.699   5.903 130.972  0.00  0.00    +0.285 C 
ATOM      7  C   LIG A   1      -4.650   5.528 132.047  0.00  0.00    +0.201 C 
BRANCH   2   8
ATOM      8  O   LIG A   1      -3.633   3.598 130.961  0.00  0.00    -0.386 OA
ATOM      9  H   LIG A   1      -3.770   3.646 129.995  0.00  0.00    +0.210 HD
ENDBRANCH   2   8
BRANCH   7  10
ATOM     10  O   LIG A   1      -4.284   6.727 132.768  0.00  0.00    -0.384 OA
ATOM     11  H   LIG A   1      -4.597   7.459 132.193  0.00  0.00    +0.210 HD
ENDBRANCH   7  10
BRANCH   3  12
ATOM     12  O   LIG A   1      -2.295   7.006 130.766  0.00  0.00    -0.387 OA
ATOM     13  H   LIG A   1      -3.026   7.658 130.841  0.00  0.00    +0.210 HD
ENDBRANCH   3  12
BRANCH   4  14
ATOM     14  C   LIG A   1      -4.472   5.038 128.355  0.00  0.00    +0.190 C 
BRANCH  14  15
ATOM     15  O   LIG A   1      -5.088   5.544 127.172  0.00  0.00    -0.392 OA
ATOM     16  H   LIG A   1      -5.627   4.837 126.757  0.00  0.00    +0.209 HD
ENDBRANCH  14  15
ENDBRANCH   4  14
ENDBRANCH   1   6
BRANCH   1  17
ATOM     17  C   LIG A   1      -8.032   6.026 131.743  0.00  0.00    +0.225 C 
ATOM     18  O   LIG A   1      -7.913   4.732 131.086  0.00  0.00    -0.336 OA
ATOM     19  C   LIG A   1      -8.997   4.569 130.158  0.00  0.00    +0.178 C 
ATOM     20  C   LIG A   1     -10.026   5.663 130.450  0.00  0.00    +0.179 C 
ATOM     21  C   LIG A   1      -9.170   6.791 131.009  0.00  0.00    +0.207 C 
BRANCH  21  22
ATOM     22  O   LIG A   1      -8.689   7.589 129.911  0.00  0.00    -0.384 OA
ATOM     23  H   LIG A   1      -7.725   7.677 130.034  0.00  0.00    +0.210 HD
ENDBRANCH  21  22
BRANCH  20  24
ATOM     24  O   LIG A   1     -10.963   5.234 131.445  0.00  0.00    -0.386 OA
ATOM     25  H   LIG A   1     -10.961   5.889 132.154  0.00  0.00    +0.210 HD
ENDBRANCH  20  24
BRANCH  19  26
ATOM     26  C   LIG A   1      -8.411   4.623 128.745  0.00  0.00    +0.190 C 
BRANCH  26  27
ATOM     27  O   LIG A   1      -9.155   5.513 127.922  0.00  0.00    -0.392 OA
ATOM     28  H   LIG A   1      -8.886   5.329 127.004  0.00  0.00    +0.209 HD
ENDBRANCH  26  27
ENDBRANCH  19  26
BRANCH  17  29
ATOM     29  C   LIG A   1      -8.410   5.663 133.213  0.00  0.00    +0.223 C 
BRANCH  29  30
ATOM     30  O   LIG A   1      -9.522   6.388 133.737  0.00  0.00    -0.390 OA
ATOM     31  H   LIG A   1      -9.489   7.238 133.250  0.00  0.00    +0.210 HD
ENDBRANCH  29  30
ENDBRANCH  17  29
ENDBRANCH   1  17
TORSDOF 13
ENDMDL
