MODEL 1
REMARK VINA RESULT:      -7.1      0.000      0.000
REMARK  Name = NuBBE_1371
REMARK  6 active torsions:
REMARK  status: ('A' for Active; 'I' for Inactive)
REMARK    1  A    between atoms: C_2  and  O_3
REMARK    2  A    between atoms: C_2  and  C_6
REMARK    3  A    between atoms: O_3  and  C_4
REMARK    4  A    between atoms: C_4  and  C_5
REMARK    5  A    between atoms: C_6  and  C_7
REMARK    6  A    between atoms: C_7  and  O_8
REMARK                            x       y       z     vdW  Elec       q    Type
REMARK                         _______ _______ _______ _____ _____    ______ ____
ROOT
ATOM      1  C   LIG A   1      -7.617  -0.015 125.844  0.00  0.00    +0.164 C 
ATOM      2  C   LIG A   1      -8.189  -1.090 124.926  0.00  0.00    -0.000 A 
ATOM      3  C   LIG A   1      -8.378  -0.805 123.556  0.00  0.00    +0.007 A 
ATOM      4  C   LIG A   1      -8.953  -1.739 122.701  0.00  0.00    +0.000 A 
ATOM      5  C   LIG A   1      -9.336  -2.975 123.197  0.00  0.00    +0.001 A 
ATOM      6  C   LIG A   1      -9.141  -3.276 124.549  0.00  0.00    +0.009 A 
ATOM      7  C   LIG A   1      -8.583  -2.343 125.447  0.00  0.00    -0.011 A 
ATOM      8  C   LIG A   1      -8.396  -2.637 126.889  0.00  0.00    -0.007 A 
ATOM      9  C   LIG A   1      -8.999  -3.735 127.531  0.00  0.00    +0.009 A 
ATOM     10  C   LIG A   1      -8.809  -3.986 128.897  0.00  0.00    +0.001 A 
ATOM     11  C   LIG A   1      -8.000  -3.151 129.657  0.00  0.00    +0.001 A 
ATOM     12  C   LIG A   1      -7.384  -2.062 129.054  0.00  0.00    +0.012 A 
ATOM     13  C   LIG A   1      -7.593  -1.805 127.691  0.00  0.00    +0.028 A 
ATOM     14  C   LIG A   1      -6.972  -0.601 127.102  0.00  0.00    +0.200 C 
ATOM     15  O   LIG A   1      -6.026  -0.050 127.667  0.00  0.00    -0.289 OA
ENDROOT
BRANCH   1  16
ATOM     16  O   LIG A   1      -6.594   0.675 125.115  0.00  0.00    -0.375 OA
ATOM     17  H   LIG A   1      -5.991  -0.015 124.767  0.00  0.00    +0.211 HD
ENDBRANCH   1  16
BRANCH   1  18
ATOM     18  C   LIG A   1      -8.735   0.959 126.245  0.00  0.00    +0.168 C 
BRANCH  18  20
ATOM     19  O   LIG A   1      -7.561   3.032 126.642  0.00  0.00    -0.251 OA
ATOM     20  C   LIG A   1      -8.352   2.392 125.969  0.00  0.00    +0.311 C 
BRANCH  20  21
ATOM     21  O   LIG A   1      -9.021   2.858 124.876  0.00  0.00    -0.465 OA
BRANCH  21  22
ATOM     22  C   LIG A   1      -8.195   3.239 123.764  0.00  0.00    +0.228 C 
ATOM     23  C   LIG A   1      -8.777   2.733 122.456  0.00  0.00    +0.048 C 
ENDBRANCH  21  22
ENDBRANCH  20  21
ENDBRANCH  18  20
ENDBRANCH   1  18
TORSDOF 5
ENDMDL
MODEL 2
REMARK VINA RESULT:      -7.0      2.873      6.125
REMARK  Name = NuBBE_1371
REMARK  6 active torsions:
REMARK  status: ('A' for Active; 'I' for Inactive)
REMARK    1  A    between atoms: C_2  and  O_3
REMARK    2  A    between atoms: C_2  and  C_6
REMARK    3  A    between atoms: O_3  and  C_4
REMARK    4  A    between atoms: C_4  and  C_5
REMARK    5  A    between atoms: C_6  and  C_7
REMARK    6  A    between atoms: C_7  and  O_8
REMARK                            x       y       z     vdW  Elec       q    Type
REMARK                         _______ _______ _______ _____ _____    ______ ____
ROOT
ATOM      1  C   LIG A   1      -8.115   2.498 123.460  0.00  0.00    +0.164 C 
ATOM      2  C   LIG A   1      -7.090   3.263 122.630  0.00  0.00    -0.000 A 
ATOM      3  C   LIG A   1      -7.307   3.439 121.246  0.00  0.00    +0.007 A 
ATOM      4  C   LIG A   1      -6.367   4.079 120.446  0.00  0.00    +0.000 A 
ATOM      5  C   LIG A   1      -5.201   4.565 121.018  0.00  0.00    +0.001 A 
ATOM      6  C   LIG A   1      -4.980   4.411 122.390  0.00  0.00    +0.009 A 
ATOM      7  C   LIG A   1      -5.902   3.747 123.224  0.00  0.00    -0.011 A 
ATOM      8  C   LIG A   1      -5.668   3.552 124.676  0.00  0.00    -0.007 A 
ATOM      9  C   LIG A   1      -4.415   3.755 125.284  0.00  0.00    +0.009 A 
ATOM     10  C   LIG A   1      -4.221   3.558 126.657  0.00  0.00    +0.001 A 
ATOM     11  C   LIG A   1      -5.279   3.162 127.465  0.00  0.00    +0.001 A 
ATOM     12  C   LIG A   1      -6.532   2.958 126.900  0.00  0.00    +0.012 A 
ATOM     13  C   LIG A   1      -6.714   3.139 125.520  0.00  0.00    +0.028 A 
ATOM     14  C   LIG A   1      -8.045   2.851 124.948  0.00  0.00    +0.200 C 
ATOM     15  O   LIG A   1      -9.039   2.810 125.674  0.00  0.00    -0.289 OA
ENDROOT
BRANCH   1  16
ATOM     16  O   LIG A   1      -9.416   2.868 122.988  0.00  0.00    -0.375 OA
ATOM     17  H   LIG A   1     -10.044   2.222 123.375  0.00  0.00    +0.211 HD
ENDBRANCH   1  16
BRANCH   1  18
ATOM     18  C   LIG A   1      -7.890   0.989 123.278  0.00  0.00    +0.168 C 
BRANCH  18  20
ATOM     19  O   LIG A   1     -10.024   0.325 122.361  0.00  0.00    -0.251 OA
ATOM     20  C   LIG A   1      -9.194   0.231 123.251  0.00  0.00    +0.311 C 
BRANCH  20  21
ATOM     21  O   LIG A   1      -9.308  -0.555 124.359  0.00  0.00    -0.465 OA
BRANCH  21  22
ATOM     22  C   LIG A   1      -8.510  -1.750 124.351  0.00  0.00    +0.228 C 
ATOM     23  C   LIG A   1      -9.207  -2.863 123.588  0.00  0.00    +0.048 C 
ENDBRANCH  21  22
ENDBRANCH  20  21
ENDBRANCH  18  20
ENDBRANCH   1  18
TORSDOF 5
ENDMDL
MODEL 3
REMARK VINA RESULT:      -6.8      2.045      4.168
REMARK  Name = NuBBE_1371
REMARK  6 active torsions:
REMARK  status: ('A' for Active; 'I' for Inactive)
REMARK    1  A    between atoms: C_2  and  O_3
REMARK    2  A    between atoms: C_2  and  C_6
REMARK    3  A    between atoms: O_3  and  C_4
REMARK    4  A    between atoms: C_4  and  C_5
REMARK    5  A    between atoms: C_6  and  C_7
REMARK    6  A    between atoms: C_7  and  O_8
REMARK                            x       y       z     vdW  Elec       q    Type
REMARK                         _______ _______ _______ _____ _____    ______ ____
ROOT
ATOM      1  C   LIG A   1      -8.637   1.424 124.787  0.00  0.00    +0.164 C 
ATOM      2  C   LIG A   1      -8.362   1.040 126.237  0.00  0.00    -0.000 A 
ATOM      3  C   LIG A   1      -8.164   2.055 127.200  0.00  0.00    +0.007 A 
ATOM      4  C   LIG A   1      -7.852   1.744 128.518  0.00  0.00    +0.000 A 
ATOM      5  C   LIG A   1      -7.744   0.415 128.900  0.00  0.00    +0.001 A 
ATOM      6  C   LIG A   1      -7.952  -0.600 127.961  0.00  0.00    +0.009 A 
ATOM      7  C   LIG A   1      -8.247  -0.318 126.611  0.00  0.00    -0.011 A 
ATOM      8  C   LIG A   1      -8.443  -1.383 125.597  0.00  0.00    -0.007 A 
ATOM      9  C   LIG A   1      -8.084  -2.726 125.819  0.00  0.00    +0.009 A 
ATOM     10  C   LIG A   1      -8.275  -3.711 124.841  0.00  0.00    +0.001 A 
ATOM     11  C   LIG A   1      -8.841  -3.383 123.616  0.00  0.00    +0.001 A 
ATOM     12  C   LIG A   1      -9.213  -2.068 123.365  0.00  0.00    +0.012 A 
ATOM     13  C   LIG A   1      -9.002  -1.083 124.342  0.00  0.00    +0.028 A 
ATOM     14  C   LIG A   1      -9.351   0.314 124.013  0.00  0.00    +0.200 C 
ATOM     15  O   LIG A   1     -10.123   0.560 123.085  0.00  0.00    -0.289 OA
ENDROOT
BRANCH   1  16
ATOM     16  O   LIG A   1      -9.500   2.568 124.801  0.00  0.00    -0.375 OA
ATOM     17  H   LIG A   1     -10.185   2.404 124.118  0.00  0.00    +0.211 HD
ENDBRANCH   1  16
BRANCH   1  18
ATOM     18  C   LIG A   1      -7.310   1.765 124.092  0.00  0.00    +0.168 C 
BRANCH  18  20
ATOM     19  O   LIG A   1      -7.021   4.118 124.557  0.00  0.00    -0.251 OA
ATOM     20  C   LIG A   1      -7.224   3.231 123.744  0.00  0.00    +0.311 C 
BRANCH  20  21
ATOM     21  O   LIG A   1      -7.415   3.412 122.406  0.00  0.00    -0.465 OA
BRANCH  21  22
ATOM     22  C   LIG A   1      -6.280   3.119 121.577  0.00  0.00    +0.228 C 
ATOM     23  C   LIG A   1      -5.300   4.279 121.569  0.00  0.00    +0.048 C 
ENDBRANCH  21  22
ENDBRANCH  20  21
ENDBRANCH  18  20
ENDBRANCH   1  18
TORSDOF 5
ENDMDL
MODEL 4
REMARK VINA RESULT:      -6.6      1.994      4.536
REMARK  Name = NuBBE_1371
REMARK  6 active torsions:
REMARK  status: ('A' for Active; 'I' for Inactive)
REMARK    1  A    between atoms: C_2  and  O_3
REMARK    2  A    between atoms: C_2  and  C_6
REMARK    3  A    between atoms: O_3  and  C_4
REMARK    4  A    between atoms: C_4  and  C_5
REMARK    5  A    between atoms: C_6  and  C_7
REMARK    6  A    between atoms: C_7  and  O_8
REMARK                            x       y       z     vdW  Elec       q    Type
REMARK                         _______ _______ _______ _____ _____    ______ ____
ROOT
ATOM      1  C   LIG A   1      -7.393   0.212 126.772  0.00  0.00    +0.164 C 
ATOM      2  C   LIG A   1      -7.709  -1.026 127.604  0.00  0.00    -0.000 A 
ATOM      3  C   LIG A   1      -7.366  -1.049 128.974  0.00  0.00    +0.007 A 
ATOM      4  C   LIG A   1      -7.584  -2.181 129.751  0.00  0.00    +0.000 A 
ATOM      5  C   LIG A   1      -8.159  -3.303 129.175  0.00  0.00    +0.001 A 
ATOM      6  C   LIG A   1      -8.518  -3.290 127.823  0.00  0.00    +0.009 A 
ATOM      7  C   LIG A   1      -8.289  -2.166 127.003  0.00  0.00    -0.011 A 
ATOM      8  C   LIG A   1      -8.638  -2.146 125.561  0.00  0.00    -0.007 A 
ATOM      9  C   LIG A   1      -8.959  -3.308 124.836  0.00  0.00    +0.009 A 
ATOM     10  C   LIG A   1      -9.279  -3.261 123.472  0.00  0.00    +0.001 A 
ATOM     11  C   LIG A   1      -9.299  -2.046 122.798  0.00  0.00    +0.001 A 
ATOM     12  C   LIG A   1      -8.993  -0.878 123.485  0.00  0.00    +0.012 A 
ATOM     13  C   LIG A   1      -8.655  -0.935 124.846  0.00  0.00    +0.028 A 
ATOM     14  C   LIG A   1      -8.274   0.320 125.525  0.00  0.00    +0.200 C 
ATOM     15  O   LIG A   1      -8.586   1.409 125.040  0.00  0.00    -0.289 OA
ENDROOT
BRANCH   1  16
ATOM     16  O   LIG A   1      -7.656   1.360 127.588  0.00  0.00    -0.375 OA
ATOM     17  H   LIG A   1      -8.571   1.254 127.926  0.00  0.00    +0.211 HD
ENDBRANCH   1  16
BRANCH   1  18
ATOM     18  C   LIG A   1      -5.914   0.180 126.357  0.00  0.00    +0.168 C 
BRANCH  18  20
ATOM     19  O   LIG A   1      -5.447   2.386 125.489  0.00  0.00    -0.251 OA
ATOM     20  C   LIG A   1      -5.301   1.559 126.374  0.00  0.00    +0.311 C 
BRANCH  20  21
ATOM     21  O   LIG A   1      -4.561   1.733 127.506  0.00  0.00    -0.465 OA
BRANCH  21  22
ATOM     22  C   LIG A   1      -3.996   3.043 127.678  0.00  0.00    +0.228 C 
ATOM     23  C   LIG A   1      -2.532   3.059 127.273  0.00  0.00    +0.048 C 
ENDBRANCH  21  22
ENDBRANCH  20  21
ENDBRANCH  18  20
ENDBRANCH   1  18
TORSDOF 5
ENDMDL
MODEL 5
REMARK VINA RESULT:      -6.5      1.969      2.452
REMARK  Name = NuBBE_1371
REMARK  6 active torsions:
REMARK  status: ('A' for Active; 'I' for Inactive)
REMARK    1  A    between atoms: C_2  and  O_3
REMARK    2  A    between atoms: C_2  and  C_6
REMARK    3  A    between atoms: O_3  and  C_4
REMARK    4  A    between atoms: C_4  and  C_5
REMARK    5  A    between atoms: C_6  and  C_7
REMARK    6  A    between atoms: C_7  and  O_8
REMARK                            x       y       z     vdW  Elec       q    Type
REMARK                         _______ _______ _______ _____ _____    ______ ____
ROOT
ATOM      1  C   LIG A   1      -6.071  -0.486 126.190  0.00  0.00    +0.164 C 
ATOM      2  C   LIG A   1      -6.720  -1.277 125.059  0.00  0.00    -0.000 A 
ATOM      3  C   LIG A   1      -6.483  -0.899 123.720  0.00  0.00    +0.007 A 
ATOM      4  C   LIG A   1      -7.104  -1.558 122.665  0.00  0.00    +0.000 A 
ATOM      5  C   LIG A   1      -7.962  -2.614 122.931  0.00  0.00    +0.001 A 
ATOM      6  C   LIG A   1      -8.195  -3.010 124.252  0.00  0.00    +0.009 A 
ATOM      7  C   LIG A   1      -7.599  -2.347 125.345  0.00  0.00    -0.011 A 
ATOM      8  C   LIG A   1      -7.858  -2.737 126.752  0.00  0.00    -0.007 A 
ATOM      9  C   LIG A   1      -8.909  -3.593 127.128  0.00  0.00    +0.009 A 
ATOM     10  C   LIG A   1      -9.135  -3.941 128.467  0.00  0.00    +0.001 A 
ATOM     11  C   LIG A   1      -8.307  -3.449 129.468  0.00  0.00    +0.001 A 
ATOM     12  C   LIG A   1      -7.256  -2.605 129.132  0.00  0.00    +0.012 A 
ATOM     13  C   LIG A   1      -7.047  -2.246 127.791  0.00  0.00    +0.028 A 
ATOM     14  C   LIG A   1      -5.959  -1.296 127.483  0.00  0.00    +0.200 C 
ATOM     15  O   LIG A   1      -5.048  -1.109 128.291  0.00  0.00    -0.289 OA
ENDROOT
BRANCH   1  16
ATOM     16  O   LIG A   1      -4.743  -0.149 125.773  0.00  0.00    -0.375 OA
ATOM     17  H   LIG A   1      -4.152  -0.376 126.523  0.00  0.00    +0.211 HD
ENDBRANCH   1  16
BRANCH   1  18
ATOM     18  C   LIG A   1      -6.888   0.789 126.451  0.00  0.00    +0.168 C 
BRANCH  18  20
ATOM     19  O   LIG A   1      -6.203   2.500 124.889  0.00  0.00    -0.251 OA
ATOM     20  C   LIG A   1      -6.145   2.027 126.012  0.00  0.00    +0.311 C 
BRANCH  20  21
ATOM     21  O   LIG A   1      -5.402   2.522 127.042  0.00  0.00    -0.465 OA
BRANCH  21  22
ATOM     22  C   LIG A   1      -4.417   3.501 126.676  0.00  0.00    +0.228 C 
ATOM     23  C   LIG A   1      -3.020   2.904 126.706  0.00  0.00    +0.048 C 
ENDBRANCH  21  22
ENDBRANCH  20  21
ENDBRANCH  18  20
ENDBRANCH   1  18
TORSDOF 5
ENDMDL
MODEL 6
REMARK VINA RESULT:      -6.3      8.211     10.087
REMARK  Name = NuBBE_1371
REMARK  6 active torsions:
REMARK  status: ('A' for Active; 'I' for Inactive)
REMARK    1  A    between atoms: C_2  and  O_3
REMARK    2  A    between atoms: C_2  and  C_6
REMARK    3  A    between atoms: O_3  and  C_4
REMARK    4  A    between atoms: C_4  and  C_5
REMARK    5  A    between atoms: C_6  and  C_7
REMARK    6  A    between atoms: C_7  and  O_8
REMARK                            x       y       z     vdW  Elec       q    Type
REMARK                         _______ _______ _______ _____ _____    ______ ____
ROOT
ATOM      1  C   LIG A   1      -7.706   5.591 131.303  0.00  0.00    +0.164 C 
ATOM      2  C   LIG A   1      -7.295   5.484 132.768  0.00  0.00    -0.000 A 
ATOM      3  C   LIG A   1      -8.239   5.052 133.726  0.00  0.00    +0.007 A 
ATOM      4  C   LIG A   1      -7.919   4.998 135.077  0.00  0.00    +0.000 A 
ATOM      5  C   LIG A   1      -6.648   5.363 135.493  0.00  0.00    +0.001 A 
ATOM      6  C   LIG A   1      -5.698   5.779 134.554  0.00  0.00    +0.009 A 
ATOM      7  C   LIG A   1      -5.998   5.866 133.179  0.00  0.00    -0.011 A 
ATOM      8  C   LIG A   1      -5.010   6.332 132.175  0.00  0.00    -0.007 A 
ATOM      9  C   LIG A   1      -3.810   6.978 132.524  0.00  0.00    +0.009 A 
ATOM     10  C   LIG A   1      -2.897   7.413 131.554  0.00  0.00    +0.001 A 
ATOM     11  C   LIG A   1      -3.154   7.202 130.205  0.00  0.00    +0.001 A 
ATOM     12  C   LIG A   1      -4.327   6.562 129.825  0.00  0.00    +0.012 A 
ATOM     13  C   LIG A   1      -5.246   6.146 130.801  0.00  0.00    +0.028 A 
ATOM     14  C   LIG A   1      -6.509   5.526 130.352  0.00  0.00    +0.200 C 
ATOM     15  O   LIG A   1      -6.605   5.059 129.217  0.00  0.00    -0.289 OA
ENDROOT
BRANCH   1  16
ATOM     16  O   LIG A   1      -8.554   4.474 131.010  0.00  0.00    -0.375 OA
ATOM     17  H   LIG A   1      -8.798   4.554 130.064  0.00  0.00    +0.211 HD
ENDBRANCH   1  16
BRANCH   1  18
ATOM     18  C   LIG A   1      -8.466   6.909 131.085  0.00  0.00    +0.168 C 
BRANCH  18  20
ATOM     19  O   LIG A   1     -10.779   6.441 131.604  0.00  0.00    -0.251 OA
ATOM     20  C   LIG A   1      -9.921   6.666 130.766  0.00  0.00    +0.311 C 
BRANCH  20  21
ATOM     21  O   LIG A   1     -10.126   6.727 129.420  0.00  0.00    -0.465 OA
BRANCH  21  22
ATOM     22  C   LIG A   1     -10.389   8.039 128.895  0.00  0.00    +0.228 C 
ATOM     23  C   LIG A   1     -10.778   7.969 127.429  0.00  0.00    +0.048 C 
ENDBRANCH  21  22
ENDBRANCH  20  21
ENDBRANCH  18  20
ENDBRANCH   1  18
TORSDOF 5
ENDMDL
MODEL 7
REMARK VINA RESULT:      -6.3      7.398      9.752
REMARK  Name = NuBBE_1371
REMARK  6 active torsions:
REMARK  status: ('A' for Active; 'I' for Inactive)
REMARK    1  A    between atoms: C_2  and  O_3
REMARK    2  A    between atoms: C_2  and  C_6
REMARK    3  A    between atoms: O_3  and  C_4
REMARK    4  A    between atoms: C_4  and  C_5
REMARK    5  A    between atoms: C_6  and  C_7
REMARK    6  A    between atoms: C_7  and  O_8
REMARK                            x       y       z     vdW  Elec       q    Type
REMARK                         _______ _______ _______ _____ _____    ______ ____
ROOT
ATOM      1  C   LIG A   1      -8.867   4.406 132.500  0.00  0.00    +0.164 C 
ATOM      2  C   LIG A   1      -9.393   5.503 131.580  0.00  0.00    -0.000 A 
ATOM      3  C   LIG A   1     -10.753   5.498 131.199  0.00  0.00    +0.007 A 
ATOM      4  C   LIG A   1     -11.255   6.445 130.315  0.00  0.00    +0.000 A 
ATOM      5  C   LIG A   1     -10.411   7.420 129.806  0.00  0.00    +0.001 A 
ATOM      6  C   LIG A   1      -9.065   7.446 130.186  0.00  0.00    +0.009 A 
ATOM      7  C   LIG A   1      -8.520   6.486 131.063  0.00  0.00    -0.011 A 
ATOM      8  C   LIG A   1      -7.088   6.484 131.453  0.00  0.00    -0.007 A 
ATOM      9  C   LIG A   1      -6.112   7.245 130.785  0.00  0.00    +0.009 A 
ATOM     10  C   LIG A   1      -4.765   7.220 131.171  0.00  0.00    +0.001 A 
ATOM     11  C   LIG A   1      -4.359   6.440 132.247  0.00  0.00    +0.001 A 
ATOM     12  C   LIG A   1      -5.298   5.680 132.933  0.00  0.00    +0.012 A 
ATOM     13  C   LIG A   1      -6.641   5.696 132.529  0.00  0.00    +0.028 A 
ATOM     14  C   LIG A   1      -7.597   4.826 133.244  0.00  0.00    +0.200 C 
ATOM     15  O   LIG A   1      -7.323   4.389 134.363  0.00  0.00    -0.289 OA
ENDROOT
BRANCH   1  16
ATOM     16  O   LIG A   1      -9.877   4.145 133.482  0.00  0.00    -0.375 OA
ATOM     17  H   LIG A   1      -9.491   3.498 134.110  0.00  0.00    +0.211 HD
ENDBRANCH   1  16
BRANCH   1  18
ATOM     18  C   LIG A   1      -8.586   3.142 131.674  0.00  0.00    +0.168 C 
BRANCH  18  20
ATOM     19  O   LIG A   1     -10.231   1.426 132.104  0.00  0.00    -0.251 OA
ATOM     20  C   LIG A   1      -9.135   1.906 132.343  0.00  0.00    +0.311 C 
BRANCH  20  21
ATOM     21  O   LIG A   1      -8.239   1.421 133.249  0.00  0.00    -0.465 OA
BRANCH  21  22
ATOM     22  C   LIG A   1      -7.083   0.779 132.688  0.00  0.00    +0.228 C 
ATOM     23  C   LIG A   1      -5.807   1.315 133.314  0.00  0.00    +0.048 C 
ENDBRANCH  21  22
ENDBRANCH  20  21
ENDBRANCH  18  20
ENDBRANCH   1  18
TORSDOF 5
ENDMDL
MODEL 8
REMARK VINA RESULT:      -6.2      5.897      9.133
REMARK  Name = NuBBE_1371
REMARK  6 active torsions:
REMARK  status: ('A' for Active; 'I' for Inactive)
REMARK    1  A    between atoms: C_2  and  O_3
REMARK    2  A    between atoms: C_2  and  C_6
REMARK    3  A    between atoms: O_3  and  C_4
REMARK    4  A    between atoms: C_4  and  C_5
REMARK    5  A    between atoms: C_6  and  C_7
REMARK    6  A    between atoms: C_7  and  O_8
REMARK                            x       y       z     vdW  Elec       q    Type
REMARK                         _______ _______ _______ _____ _____    ______ ____
ROOT
ATOM      1  C   LIG A   1      -8.561   4.542 129.899  0.00  0.00    +0.164 C 
ATOM      2  C   LIG A   1      -8.352   4.900 131.366  0.00  0.00    -0.000 A 
ATOM      3  C   LIG A   1      -7.225   4.395 132.052  0.00  0.00    +0.007 A 
ATOM      4  C   LIG A   1      -7.032   4.651 133.404  0.00  0.00    +0.000 A 
ATOM      5  C   LIG A   1      -7.955   5.425 134.091  0.00  0.00    +0.001 A 
ATOM      6  C   LIG A   1      -9.068   5.944 133.422  0.00  0.00    +0.009 A 
ATOM      7  C   LIG A   1      -9.304   5.684 132.056  0.00  0.00    -0.011 A 
ATOM      8  C   LIG A   1     -10.494   6.204 131.340  0.00  0.00    -0.007 A 
ATOM      9  C   LIG A   1     -11.608   6.751 132.002  0.00  0.00    +0.009 A 
ATOM     10  C   LIG A   1     -12.722   7.230 131.300  0.00  0.00    +0.001 A 
ATOM     11  C   LIG A   1     -12.748   7.185 129.912  0.00  0.00    +0.001 A 
ATOM     12  C   LIG A   1     -11.662   6.657 129.224  0.00  0.00    +0.012 A 
ATOM     13  C   LIG A   1     -10.558   6.162 129.935  0.00  0.00    +0.028 A 
ATOM     14  C   LIG A   1      -9.452   5.551 129.171  0.00  0.00    +0.200 C 
ATOM     15  O   LIG A   1      -9.322   5.785 127.969  0.00  0.00    -0.289 OA
ENDROOT
BRANCH   1  16
ATOM     16  O   LIG A   1      -7.277   4.560 129.263  0.00  0.00    -0.375 OA
ATOM     17  H   LIG A   1      -7.446   4.656 128.302  0.00  0.00    +0.211 HD
ENDBRANCH   1  16
BRANCH   1  18
ATOM     18  C   LIG A   1      -9.184   3.141 129.803  0.00  0.00    +0.168 C 
BRANCH  18  20
ATOM     19  O   LIG A   1      -8.712   2.233 127.614  0.00  0.00    -0.251 OA
ATOM     20  C   LIG A   1      -8.454   2.274 128.807  0.00  0.00    +0.311 C 
BRANCH  20  21
ATOM     21  O   LIG A   1      -7.486   1.547 129.432  0.00  0.00    -0.465 OA
BRANCH  21  22
ATOM     22  C   LIG A   1      -7.872   0.952 130.682  0.00  0.00    +0.228 C 
ATOM     23  C   LIG A   1      -8.043  -0.550 130.539  0.00  0.00    +0.048 C 
ENDBRANCH  21  22
ENDBRANCH  20  21
ENDBRANCH  18  20
ENDBRANCH   1  18
TORSDOF 5
ENDMDL
MODEL 9
REMARK VINA RESULT:      -6.1      2.156      4.906
REMARK  Name = NuBBE_1371
REMARK  6 active torsions:
REMARK  status: ('A' for Active; 'I' for Inactive)
REMARK    1  A    between atoms: C_2  and  O_3
REMARK    2  A    between atoms: C_2  and  C_6
REMARK    3  A    between atoms: O_3  and  C_4
REMARK    4  A    between atoms: C_4  and  C_5
REMARK    5  A    between atoms: C_6  and  C_7
REMARK    6  A    between atoms: C_7  and  O_8
REMARK                            x       y       z     vdW  Elec       q    Type
REMARK                         _______ _______ _______ _____ _____    ______ ____
ROOT
ATOM      1  C   LIG A   1      -6.183  -0.148 126.523  0.00  0.00    +0.164 C 
ATOM      2  C   LIG A   1      -6.366   0.849 125.384  0.00  0.00    -0.000 A 
ATOM      3  C   LIG A   1      -5.821   2.148 125.502  0.00  0.00    +0.007 A 
ATOM      4  C   LIG A   1      -6.018   3.102 124.511  0.00  0.00    +0.000 A 
ATOM      5  C   LIG A   1      -6.751   2.773 123.381  0.00  0.00    +0.001 A 
ATOM      6  C   LIG A   1      -7.283   1.487 123.244  0.00  0.00    +0.009 A 
ATOM      7  C   LIG A   1      -7.121   0.503 124.241  0.00  0.00    -0.011 A 
ATOM      8  C   LIG A   1      -7.704  -0.856 124.122  0.00  0.00    -0.007 A 
ATOM      9  C   LIG A   1      -8.679  -1.190 123.165  0.00  0.00    +0.009 A 
ATOM     10  C   LIG A   1      -9.216  -2.482 123.079  0.00  0.00    +0.001 A 
ATOM     11  C   LIG A   1      -8.784  -3.480 123.943  0.00  0.00    +0.001 A 
ATOM     12  C   LIG A   1      -7.817  -3.187 124.897  0.00  0.00    +0.012 A 
ATOM     13  C   LIG A   1      -7.297  -1.886 124.989  0.00  0.00    +0.028 A 
ATOM     14  C   LIG A   1      -6.318  -1.600 126.058  0.00  0.00    +0.200 C 
ATOM     15  O   LIG A   1      -5.708  -2.518 126.606  0.00  0.00    -0.289 OA
ENDROOT
BRANCH   1  16
ATOM     16  O   LIG A   1      -4.855   0.021 127.035  0.00  0.00    -0.375 OA
ATOM     17  H   LIG A   1      -4.317   0.371 126.294  0.00  0.00    +0.211 HD
ENDBRANCH   1  16
BRANCH   1  18
ATOM     18  C   LIG A   1      -7.219   0.140 127.620  0.00  0.00    +0.168 C 
BRANCH  18  20
ATOM     19  O   LIG A   1      -6.230   1.338 129.471  0.00  0.00    -0.251 OA
ATOM     20  C   LIG A   1      -6.571   0.276 128.976  0.00  0.00    +0.311 C 
BRANCH  20  21
ATOM     21  O   LIG A   1      -6.418  -0.951 129.552  0.00  0.00    -0.465 OA
BRANCH  21  22
ATOM     22  C   LIG A   1      -7.595  -1.774 129.571  0.00  0.00    +0.228 C 
ATOM     23  C   LIG A   1      -7.481  -2.859 130.628  0.00  0.00    +0.048 C 
ENDBRANCH  21  22
ENDBRANCH  20  21
ENDBRANCH  18  20
ENDBRANCH   1  18
TORSDOF 5
ENDMDL
