MODEL 1
REMARK VINA RESULT:      -7.3      0.000      0.000
REMARK  Name = NuBBE_1831
REMARK  7 active torsions:
REMARK  status: ('A' for Active; 'I' for Inactive)
REMARK    1  A    between atoms: C_1  and  C_2
REMARK    2  A    between atoms: C_4  and  C_19
REMARK    3  A    between atoms: C_9  and  O_10
REMARK    4  A    between atoms: O_10  and  C_11
REMARK    5  A    between atoms: C_11  and  C_12
REMARK    6  A    between atoms: C_14  and  O_15
REMARK    7  A    between atoms: O_15  and  C_16
REMARK                            x       y       z     vdW  Elec       q    Type
REMARK                         _______ _______ _______ _____ _____    ______ ____
ROOT
ATOM      1  C   LIG A   1      -8.875  -2.843 123.011  0.00  0.00    +0.016 C 
ATOM      2  C   LIG A   1      -8.189  -2.249 124.239  0.00  0.00    +0.065 C 
ATOM      3  C   LIG A   1      -8.943  -2.530 125.564  0.00  0.00    +0.211 C 
ATOM      4  O   LIG A   1      -9.815  -1.400 125.832  0.00  0.00    -0.483 OA
ATOM      5  C   LIG A   1      -9.230  -0.357 125.162  0.00  0.00    +0.129 A 
ATOM      6  C   LIG A   1      -9.468   0.971 125.414  0.00  0.00    +0.095 A 
ATOM      7  C   LIG A   1      -8.715   1.921 124.715  0.00  0.00    +0.166 A 
ATOM      8  C   LIG A   1      -7.826   1.521 123.696  0.00  0.00    +0.162 A 
ATOM      9  C   LIG A   1      -7.607   0.150 123.460  0.00  0.00    +0.057 A 
ATOM     10  C   LIG A   1      -8.301  -0.769 124.226  0.00  0.00    +0.005 A 
ENDROOT
BRANCH   3  11
ATOM     11  C   LIG A   1      -8.073  -2.720 126.807  0.00  0.00    -0.003 A 
ATOM     12  C   LIG A   1      -6.751  -2.237 126.880  0.00  0.00    +0.056 A 
ATOM     13  C   LIG A   1      -6.052  -2.392 128.056  0.00  0.00    +0.167 A 
ATOM     14  O   LIG A   1      -4.776  -1.980 128.277  0.00  0.00    -0.453 OA
ATOM     15  C   LIG A   1      -4.590  -2.404 129.643  0.00  0.00    +0.466 C 
ATOM     16  O   LIG A   1      -5.754  -3.039 130.211  0.00  0.00    -0.453 OA
ATOM     17  C   LIG A   1      -6.609  -2.996 129.155  0.00  0.00    +0.166 A 
ATOM     18  C   LIG A   1      -7.902  -3.469 129.140  0.00  0.00    +0.050 A 
ATOM     19  C   LIG A   1      -8.637  -3.327 127.957  0.00  0.00    +0.011 A 
ENDBRANCH   3  11
BRANCH   8  20
ATOM     20  O   LIG A   1      -7.251   2.476 122.901  0.00  0.00    -0.491 OA
ATOM     21  C   LIG A   1      -8.148   3.121 121.994  0.00  0.00    +0.277 C 
ENDBRANCH   8  20
BRANCH   7  22
ATOM     22  O   LIG A   1      -8.882   3.199 125.186  0.00  0.00    -0.484 OA
BRANCH  22  23
ATOM     23  C   LIG A   1      -7.897   3.765 126.065  0.00  0.00    +0.256 C 
BRANCH  23  24
ATOM     24  C   LIG A   1      -7.020   4.826 125.440  0.00  0.00    +0.006 C 
ATOM     25  C   LIG A   1      -5.741   4.625 125.098  0.00  0.00    +0.007 C 
ENDBRANCH  23  24
ENDBRANCH  22  23
ENDBRANCH   7  22
TORSDOF 5
ENDMDL
MODEL 2
REMARK VINA RESULT:      -7.3      7.463      9.933
REMARK  Name = NuBBE_1831
REMARK  7 active torsions:
REMARK  status: ('A' for Active; 'I' for Inactive)
REMARK    1  A    between atoms: C_1  and  C_2
REMARK    2  A    between atoms: C_4  and  C_19
REMARK    3  A    between atoms: C_9  and  O_10
REMARK    4  A    between atoms: O_10  and  C_11
REMARK    5  A    between atoms: C_11  and  C_12
REMARK    6  A    between atoms: C_14  and  O_15
REMARK    7  A    between atoms: O_15  and  C_16
REMARK                            x       y       z     vdW  Elec       q    Type
REMARK                         _______ _______ _______ _____ _____    ______ ____
ROOT
ATOM      1  C   LIG A   1      -8.409   4.975 134.198  0.00  0.00    +0.016 C 
ATOM      2  C   LIG A   1      -8.753   5.714 132.907  0.00  0.00    +0.065 C 
ATOM      3  C   LIG A   1      -9.729   4.934 131.990  0.00  0.00    +0.211 C 
ATOM      4  O   LIG A   1      -8.938   4.179 131.034  0.00  0.00    -0.483 OA
ATOM      5  C   LIG A   1      -7.755   4.866 130.959  0.00  0.00    +0.129 A 
ATOM      6  C   LIG A   1      -6.849   4.761 129.933  0.00  0.00    +0.095 A 
ATOM      7  C   LIG A   1      -5.734   5.606 129.947  0.00  0.00    +0.166 A 
ATOM      8  C   LIG A   1      -5.492   6.452 131.049  0.00  0.00    +0.162 A 
ATOM      9  C   LIG A   1      -6.439   6.533 132.088  0.00  0.00    +0.057 A 
ATOM     10  C   LIG A   1      -7.576   5.750 132.004  0.00  0.00    +0.005 A 
ENDROOT
BRANCH   3  11
ATOM     11  C   LIG A   1     -10.713   5.779 131.178  0.00  0.00    -0.003 A 
ATOM     12  C   LIG A   1     -10.754   5.739 129.771  0.00  0.00    +0.056 A 
ATOM     13  C   LIG A   1     -11.710   6.481 129.114  0.00  0.00    +0.167 A 
ATOM     14  O   LIG A   1     -11.874   6.544 127.766  0.00  0.00    -0.453 OA
ATOM     15  C   LIG A   1     -12.990   7.451 127.673  0.00  0.00    +0.466 C 
ATOM     16  O   LIG A   1     -13.479   7.895 128.957  0.00  0.00    -0.453 OA
ATOM     17  C   LIG A   1     -12.621   7.251 129.792  0.00  0.00    +0.166 A 
ATOM     18  C   LIG A   1     -12.632   7.311 131.168  0.00  0.00    +0.050 A 
ATOM     19  C   LIG A   1     -11.671   6.567 131.863  0.00  0.00    +0.011 A 
ENDBRANCH   3  11
BRANCH   8  20
ATOM     20  O   LIG A   1      -4.299   7.120 131.126  0.00  0.00    -0.491 OA
ATOM     21  C   LIG A   1      -3.391   6.616 132.107  0.00  0.00    +0.277 C 
ENDBRANCH   8  20
BRANCH   7  22
ATOM     22  O   LIG A   1      -5.009   5.566 128.783  0.00  0.00    -0.484 OA
BRANCH  22  23
ATOM     23  C   LIG A   1      -3.865   4.702 128.689  0.00  0.00    +0.256 C 
BRANCH  23  24
ATOM     24  C   LIG A   1      -2.634   5.338 128.084  0.00  0.00    +0.006 C 
ATOM     25  C   LIG A   1      -2.248   6.594 128.337  0.00  0.00    +0.007 C 
ENDBRANCH  23  24
ENDBRANCH  22  23
ENDBRANCH   7  22
TORSDOF 5
ENDMDL
MODEL 3
REMARK VINA RESULT:      -7.2      1.868      7.052
REMARK  Name = NuBBE_1831
REMARK  7 active torsions:
REMARK  status: ('A' for Active; 'I' for Inactive)
REMARK    1  A    between atoms: C_1  and  C_2
REMARK    2  A    between atoms: C_4  and  C_19
REMARK    3  A    between atoms: C_9  and  O_10
REMARK    4  A    between atoms: O_10  and  C_11
REMARK    5  A    between atoms: C_11  and  C_12
REMARK    6  A    between atoms: C_14  and  O_15
REMARK    7  A    between atoms: O_15  and  C_16
REMARK                            x       y       z     vdW  Elec       q    Type
REMARK                         _______ _______ _______ _____ _____    ______ ____
ROOT
ATOM      1  C   LIG A   1      -8.152   2.468 128.584  0.00  0.00    +0.016 C 
ATOM      2  C   LIG A   1      -7.615   2.094 127.205  0.00  0.00    +0.065 C 
ATOM      3  C   LIG A   1      -8.294   2.868 126.046  0.00  0.00    +0.211 C 
ATOM      4  O   LIG A   1      -9.391   2.057 125.548  0.00  0.00    -0.483 OA
ATOM      5  C   LIG A   1      -9.044   0.776 125.887  0.00  0.00    +0.129 A 
ATOM      6  C   LIG A   1      -9.564  -0.358 125.315  0.00  0.00    +0.095 A 
ATOM      7  C   LIG A   1      -9.033  -1.594 125.696  0.00  0.00    +0.166 A 
ATOM      8  C   LIG A   1      -8.075  -1.674 126.728  0.00  0.00    +0.162 A 
ATOM      9  C   LIG A   1      -7.564  -0.493 127.298  0.00  0.00    +0.057 A 
ATOM     10  C   LIG A   1      -8.045   0.721 126.840  0.00  0.00    +0.005 A 
ENDROOT
BRANCH   3  11
ATOM     11  C   LIG A   1      -7.407   3.197 124.845  0.00  0.00    -0.003 A 
ATOM     12  C   LIG A   1      -7.879   3.121 123.519  0.00  0.00    +0.056 A 
ATOM     13  C   LIG A   1      -7.039   3.494 122.493  0.00  0.00    +0.167 A 
ATOM     14  O   LIG A   1      -7.351   3.474 121.170  0.00  0.00    -0.453 OA
ATOM     15  C   LIG A   1      -6.117   3.953 120.598  0.00  0.00    +0.466 C 
ATOM     16  O   LIG A   1      -5.109   4.264 121.582  0.00  0.00    -0.453 OA
ATOM     17  C   LIG A   1      -5.764   3.941 122.729  0.00  0.00    +0.166 A 
ATOM     18  C   LIG A   1      -5.262   4.050 124.007  0.00  0.00    +0.050 A 
ATOM     19  C   LIG A   1      -6.093   3.677 125.070  0.00  0.00    +0.011 A 
ENDBRANCH   3  11
BRANCH   8  20
ATOM     20  O   LIG A   1      -7.719  -2.904 127.212  0.00  0.00    -0.491 OA
ATOM     21  C   LIG A   1      -8.542  -3.393 128.273  0.00  0.00    +0.277 C 
ENDBRANCH   8  20
BRANCH   7  22
ATOM     22  O   LIG A   1      -9.475  -2.637 124.920  0.00  0.00    -0.484 OA
BRANCH  22  23
ATOM     23  C   LIG A   1      -8.944  -2.811 123.597  0.00  0.00    +0.256 C 
BRANCH  23  24
ATOM     24  C   LIG A   1      -7.443  -2.666 123.488  0.00  0.00    +0.006 C 
ATOM     25  C   LIG A   1      -6.840  -1.733 122.740  0.00  0.00    +0.007 C 
ENDBRANCH  23  24
ENDBRANCH  22  23
ENDBRANCH   7  22
TORSDOF 5
ENDMDL
MODEL 4
REMARK VINA RESULT:      -6.9      2.653      5.018
REMARK  Name = NuBBE_1831
REMARK  7 active torsions:
REMARK  status: ('A' for Active; 'I' for Inactive)
REMARK    1  A    between atoms: C_1  and  C_2
REMARK    2  A    between atoms: C_4  and  C_19
REMARK    3  A    between atoms: C_9  and  O_10
REMARK    4  A    between atoms: O_10  and  C_11
REMARK    5  A    between atoms: C_11  and  C_12
REMARK    6  A    between atoms: C_14  and  O_15
REMARK    7  A    between atoms: O_15  and  C_16
REMARK                            x       y       z     vdW  Elec       q    Type
REMARK                         _______ _______ _______ _____ _____    ______ ____
ROOT
ATOM      1  C   LIG A   1      -6.363   3.474 121.617  0.00  0.00    +0.016 C 
ATOM      2  C   LIG A   1      -6.496   2.561 122.834  0.00  0.00    +0.065 C 
ATOM      3  C   LIG A   1      -7.862   1.832 122.913  0.00  0.00    +0.211 C 
ATOM      4  O   LIG A   1      -8.747   2.629 123.745  0.00  0.00    -0.483 OA
ATOM      5  C   LIG A   1      -7.899   3.351 124.543  0.00  0.00    +0.129 A 
ATOM      6  C   LIG A   1      -8.253   3.953 125.724  0.00  0.00    +0.095 A 
ATOM      7  C   LIG A   1      -7.249   4.570 126.479  0.00  0.00    +0.166 A 
ATOM      8  C   LIG A   1      -5.936   4.671 125.976  0.00  0.00    +0.162 A 
ATOM      9  C   LIG A   1      -5.606   4.046 124.758  0.00  0.00    +0.057 A 
ATOM     10  C   LIG A   1      -6.599   3.368 124.075  0.00  0.00    +0.005 A 
ENDROOT
BRANCH   3  11
ATOM     11  C   LIG A   1      -7.841   0.425 123.512  0.00  0.00    -0.003 A 
ATOM     12  C   LIG A   1      -8.868  -0.049 124.353  0.00  0.00    +0.056 A 
ATOM     13  C   LIG A   1      -8.810  -1.349 124.802  0.00  0.00    +0.167 A 
ATOM     14  O   LIG A   1      -9.722  -1.946 125.615  0.00  0.00    -0.453 OA
ATOM     15  C   LIG A   1      -9.147  -3.262 125.741  0.00  0.00    +0.466 C 
ATOM     16  O   LIG A   1      -7.925  -3.430 124.993  0.00  0.00    -0.453 OA
ATOM     17  C   LIG A   1      -7.787  -2.192 124.449  0.00  0.00    +0.166 A 
ATOM     18  C   LIG A   1      -6.769  -1.782 123.617  0.00  0.00    +0.050 A 
ATOM     19  C   LIG A   1      -6.801  -0.464 123.145  0.00  0.00    +0.011 A 
ENDBRANCH   3  11
BRANCH   8  20
ATOM     20  O   LIG A   1      -5.025   5.445 126.643  0.00  0.00    -0.491 OA
ATOM     21  C   LIG A   1      -3.894   4.735 127.154  0.00  0.00    +0.277 C 
ENDBRANCH   8  20
BRANCH   7  22
ATOM     22  O   LIG A   1      -7.668   4.955 127.727  0.00  0.00    -0.484 OA
BRANCH  22  23
ATOM     23  C   LIG A   1      -7.524   4.050 128.834  0.00  0.00    +0.256 C 
BRANCH  23  24
ATOM     24  C   LIG A   1      -8.791   3.797 129.620  0.00  0.00    +0.006 C 
ATOM     25  C   LIG A   1      -9.124   2.603 130.125  0.00  0.00    +0.007 C 
ENDBRANCH  23  24
ENDBRANCH  22  23
ENDBRANCH   7  22
TORSDOF 5
ENDMDL
MODEL 5
REMARK VINA RESULT:      -6.9      5.838      9.918
REMARK  Name = NuBBE_1831
REMARK  7 active torsions:
REMARK  status: ('A' for Active; 'I' for Inactive)
REMARK    1  A    between atoms: C_1  and  C_2
REMARK    2  A    between atoms: C_4  and  C_19
REMARK    3  A    between atoms: C_9  and  O_10
REMARK    4  A    between atoms: O_10  and  C_11
REMARK    5  A    between atoms: C_11  and  C_12
REMARK    6  A    between atoms: C_14  and  O_15
REMARK    7  A    between atoms: O_15  and  C_16
REMARK                            x       y       z     vdW  Elec       q    Type
REMARK                         _______ _______ _______ _____ _____    ______ ____
ROOT
ATOM      1  C   LIG A   1      -6.510   5.832 133.529  0.00  0.00    +0.016 C 
ATOM      2  C   LIG A   1      -7.463   5.690 132.344  0.00  0.00    +0.065 C 
ATOM      3  C   LIG A   1      -8.958   5.811 132.736  0.00  0.00    +0.211 C 
ATOM      4  O   LIG A   1      -9.469   4.471 132.967  0.00  0.00    -0.483 OA
ATOM      5  C   LIG A   1      -8.642   3.663 132.232  0.00  0.00    +0.129 A 
ATOM      6  C   LIG A   1      -8.942   2.383 131.836  0.00  0.00    +0.095 A 
ATOM      7  C   LIG A   1      -8.036   1.721 131.000  0.00  0.00    +0.166 A 
ATOM      8  C   LIG A   1      -6.798   2.312 130.675  0.00  0.00    +0.162 A 
ATOM      9  C   LIG A   1      -6.519   3.625 131.100  0.00  0.00    +0.057 A 
ATOM     10  C   LIG A   1      -7.471   4.289 131.854  0.00  0.00    +0.005 A 
ENDROOT
BRANCH   3  11
ATOM     11  C   LIG A   1      -9.876   6.460 131.699  0.00  0.00    -0.003 A 
ATOM     12  C   LIG A   1      -9.379   7.040 130.515  0.00  0.00    +0.056 A 
ATOM     13  C   LIG A   1     -10.274   7.550 129.600  0.00  0.00    +0.167 A 
ATOM     14  O   LIG A   1      -9.948   8.137 128.418  0.00  0.00    -0.453 OA
ATOM     15  C   LIG A   1     -11.257   8.463 127.910  0.00  0.00    +0.466 C 
ATOM     16  O   LIG A   1     -12.331   8.051 128.782  0.00  0.00    -0.453 OA
ATOM     17  C   LIG A   1     -11.629   7.502 129.809  0.00  0.00    +0.166 A 
ATOM     18  C   LIG A   1     -12.164   6.931 130.943  0.00  0.00    +0.050 A 
ATOM     19  C   LIG A   1     -11.279   6.405 131.891  0.00  0.00    +0.011 A 
ENDBRANCH   3  11
BRANCH   8  20
ATOM     20  O   LIG A   1      -5.856   1.567 130.020  0.00  0.00    -0.491 OA
ATOM     21  C   LIG A   1      -4.842   1.009 130.859  0.00  0.00    +0.277 C 
ENDBRANCH   8  20
BRANCH   7  22
ATOM     22  O   LIG A   1      -8.524   0.540 130.500  0.00  0.00    -0.484 OA
BRANCH  22  23
ATOM     23  C   LIG A   1      -8.300  -0.682 131.221  0.00  0.00    +0.256 C 
BRANCH  23  24
ATOM     24  C   LIG A   1      -7.685  -1.798 130.409  0.00  0.00    +0.006 C 
ATOM     25  C   LIG A   1      -7.394  -3.006 130.909  0.00  0.00    +0.007 C 
ENDBRANCH  23  24
ENDBRANCH  22  23
ENDBRANCH   7  22
TORSDOF 5
ENDMDL
MODEL 6
REMARK VINA RESULT:      -6.9      3.408      7.122
REMARK  Name = NuBBE_1831
REMARK  7 active torsions:
REMARK  status: ('A' for Active; 'I' for Inactive)
REMARK    1  A    between atoms: C_1  and  C_2
REMARK    2  A    between atoms: C_4  and  C_19
REMARK    3  A    between atoms: C_9  and  O_10
REMARK    4  A    between atoms: O_10  and  C_11
REMARK    5  A    between atoms: C_11  and  C_12
REMARK    6  A    between atoms: C_14  and  O_15
REMARK    7  A    between atoms: O_15  and  C_16
REMARK                            x       y       z     vdW  Elec       q    Type
REMARK                         _______ _______ _______ _____ _____    ______ ____
ROOT
ATOM      1  C   LIG A   1      -4.276  -3.765 130.132  0.00  0.00    +0.016 C 
ATOM      2  C   LIG A   1      -5.667  -3.349 129.663  0.00  0.00    +0.065 C 
ATOM      3  C   LIG A   1      -5.646  -2.340 128.485  0.00  0.00    +0.211 C 
ATOM      4  O   LIG A   1      -5.723  -1.001 129.042  0.00  0.00    -0.483 OA
ATOM      5  C   LIG A   1      -6.328  -1.176 130.259  0.00  0.00    +0.129 A 
ATOM      6  C   LIG A   1      -6.946  -0.184 130.979  0.00  0.00    +0.095 A 
ATOM      7  C   LIG A   1      -7.610  -0.540 132.158  0.00  0.00    +0.166 A 
ATOM      8  C   LIG A   1      -7.539  -1.860 132.649  0.00  0.00    +0.162 A 
ATOM      9  C   LIG A   1      -6.893  -2.853 131.888  0.00  0.00    +0.057 A 
ATOM     10  C   LIG A   1      -6.320  -2.490 130.683  0.00  0.00    +0.005 A 
ENDROOT
BRANCH   3  11
ATOM     11  C   LIG A   1      -6.786  -2.463 127.473  0.00  0.00    -0.003 A 
ATOM     12  C   LIG A   1      -6.678  -1.970 126.157  0.00  0.00    +0.056 A 
ATOM     13  C   LIG A   1      -7.723  -2.174 125.284  0.00  0.00    +0.167 A 
ATOM     14  O   LIG A   1      -7.765  -1.760 123.990  0.00  0.00    -0.453 OA
ATOM     15  C   LIG A   1      -9.065  -2.242 123.596  0.00  0.00    +0.466 C 
ATOM     16  O   LIG A   1      -9.760  -2.945 124.647  0.00  0.00    -0.453 OA
ATOM     17  C   LIG A   1      -8.858  -2.847 125.660  0.00  0.00    +0.166 A 
ATOM     18  C   LIG A   1      -9.005  -3.362 126.928  0.00  0.00    +0.050 A 
ATOM     19  C   LIG A   1      -7.959  -3.169 127.838  0.00  0.00    +0.011 A 
ENDBRANCH   3  11
BRANCH   8  20
ATOM     20  O   LIG A   1      -8.030  -2.133 133.897  0.00  0.00    -0.491 OA
ATOM     21  C   LIG A   1      -8.195  -3.523 134.186  0.00  0.00    +0.277 C 
ENDBRANCH   8  20
BRANCH   7  22
ATOM     22  O   LIG A   1      -8.362   0.479 132.686  0.00  0.00    -0.484 OA
BRANCH  22  23
ATOM     23  C   LIG A   1      -9.376   1.102 131.882  0.00  0.00    +0.256 C 
BRANCH  23  24
ATOM     24  C   LIG A   1      -9.800   2.477 132.343  0.00  0.00    +0.006 C 
ATOM     25  C   LIG A   1      -9.226   3.128 133.362  0.00  0.00    +0.007 C 
ENDBRANCH  23  24
ENDBRANCH  22  23
ENDBRANCH   7  22
TORSDOF 5
ENDMDL
MODEL 7
REMARK VINA RESULT:      -6.8      7.501      9.062
REMARK  Name = NuBBE_1831
REMARK  7 active torsions:
REMARK  status: ('A' for Active; 'I' for Inactive)
REMARK    1  A    between atoms: C_1  and  C_2
REMARK    2  A    between atoms: C_4  and  C_19
REMARK    3  A    between atoms: C_9  and  O_10
REMARK    4  A    between atoms: O_10  and  C_11
REMARK    5  A    between atoms: C_11  and  C_12
REMARK    6  A    between atoms: C_14  and  O_15
REMARK    7  A    between atoms: O_15  and  C_16
REMARK                            x       y       z     vdW  Elec       q    Type
REMARK                         _______ _______ _______ _____ _____    ______ ____
ROOT
ATOM      1  C   LIG A   1      -9.936   1.728 132.088  0.00  0.00    +0.016 C 
ATOM      2  C   LIG A   1      -8.878   2.802 132.331  0.00  0.00    +0.065 C 
ATOM      3  C   LIG A   1      -9.091   3.594 133.646  0.00  0.00    +0.211 C 
ATOM      4  O   LIG A   1      -9.852   4.790 133.330  0.00  0.00    -0.483 OA
ATOM      5  C   LIG A   1      -9.589   5.015 132.005  0.00  0.00    +0.129 A 
ATOM      6  C   LIG A   1      -9.773   6.213 131.360  0.00  0.00    +0.095 A 
ATOM      7  C   LIG A   1      -9.361   6.315 130.027  0.00  0.00    +0.166 A 
ATOM      8  C   LIG A   1      -8.884   5.182 129.336  0.00  0.00    +0.162 A 
ATOM      9  C   LIG A   1      -8.712   3.967 130.025  0.00  0.00    +0.057 A 
ATOM     10  C   LIG A   1      -9.045   3.918 131.367  0.00  0.00    +0.005 A 
ENDROOT
BRANCH   3  11
ATOM     11  C   LIG A   1      -7.824   4.054 134.369  0.00  0.00    -0.003 A 
ATOM     12  C   LIG A   1      -7.801   5.199 135.190  0.00  0.00    +0.056 A 
ATOM     13  C   LIG A   1      -6.638   5.514 135.857  0.00  0.00    +0.167 A 
ATOM     14  O   LIG A   1      -6.463   6.581 136.680  0.00  0.00    -0.453 OA
ATOM     15  C   LIG A   1      -5.088   6.396 137.070  0.00  0.00    +0.466 C 
ATOM     16  O   LIG A   1      -4.479   5.223 136.492  0.00  0.00    -0.453 OA
ATOM     17  C   LIG A   1      -5.509   4.741 135.748  0.00  0.00    +0.166 A 
ATOM     18  C   LIG A   1      -5.486   3.604 134.972  0.00  0.00    +0.050 A 
ATOM     19  C   LIG A   1      -6.654   3.259 134.281  0.00  0.00    +0.011 A 
ENDBRANCH   3  11
BRANCH   8  20
ATOM     20  O   LIG A   1      -8.674   5.265 127.986  0.00  0.00    -0.491 OA
ATOM     21  C   LIG A   1      -7.809   4.261 127.451  0.00  0.00    +0.277 C 
ENDBRANCH   8  20
BRANCH   7  22
ATOM     22  O   LIG A   1      -9.397   7.600 129.545  0.00  0.00    -0.484 OA
BRANCH  22  23
ATOM     23  C   LIG A   1     -10.477   8.007 128.691  0.00  0.00    +0.256 C 
BRANCH  23  24
ATOM     24  C   LIG A   1     -11.809   8.181 129.385  0.00  0.00    +0.006 C 
ATOM     25  C   LIG A   1     -12.664   9.174 129.112  0.00  0.00    +0.007 C 
ENDBRANCH  23  24
ENDBRANCH  22  23
ENDBRANCH   7  22
TORSDOF 5
ENDMDL
MODEL 8
REMARK VINA RESULT:      -6.7      3.343      5.997
REMARK  Name = NuBBE_1831
REMARK  7 active torsions:
REMARK  status: ('A' for Active; 'I' for Inactive)
REMARK    1  A    between atoms: C_1  and  C_2
REMARK    2  A    between atoms: C_4  and  C_19
REMARK    3  A    between atoms: C_9  and  O_10
REMARK    4  A    between atoms: O_10  and  C_11
REMARK    5  A    between atoms: C_11  and  C_12
REMARK    6  A    between atoms: C_14  and  O_15
REMARK    7  A    between atoms: O_15  and  C_16
REMARK                            x       y       z     vdW  Elec       q    Type
REMARK                         _______ _______ _______ _____ _____    ______ ____
ROOT
ATOM      1  C   LIG A   1      -5.313   4.448 123.017  0.00  0.00    +0.016 C 
ATOM      2  C   LIG A   1      -6.034   3.264 123.655  0.00  0.00    +0.065 C 
ATOM      3  C   LIG A   1      -7.543   3.199 123.308  0.00  0.00    +0.211 C 
ATOM      4  O   LIG A   1      -8.275   3.874 124.366  0.00  0.00    -0.483 OA
ATOM      5  C   LIG A   1      -7.447   3.790 125.454  0.00  0.00    +0.129 A 
ATOM      6  C   LIG A   1      -7.846   3.945 126.759  0.00  0.00    +0.095 A 
ATOM      7  C   LIG A   1      -6.902   3.727 127.768  0.00  0.00    +0.166 A 
ATOM      8  C   LIG A   1      -5.553   3.474 127.445  0.00  0.00    +0.162 A 
ATOM      9  C   LIG A   1      -5.176   3.324 126.096  0.00  0.00    +0.057 A 
ATOM     10  C   LIG A   1      -6.148   3.459 125.122  0.00  0.00    +0.005 A 
ENDROOT
BRANCH   3  11
ATOM     11  C   LIG A   1      -8.146   1.800 123.178  0.00  0.00    -0.003 A 
ATOM     12  C   LIG A   1      -7.412   0.635 123.477  0.00  0.00    +0.056 A 
ATOM     13  C   LIG A   1      -8.043  -0.586 123.396  0.00  0.00    +0.167 A 
ATOM     14  O   LIG A   1      -7.469  -1.791 123.653  0.00  0.00    -0.453 OA
ATOM     15  C   LIG A   1      -8.581  -2.676 123.407  0.00  0.00    +0.466 C 
ATOM     16  O   LIG A   1      -9.791  -1.987 123.030  0.00  0.00    -0.453 OA
ATOM     17  C   LIG A   1      -9.364  -0.696 123.040  0.00  0.00    +0.166 A 
ATOM     18  C   LIG A   1     -10.128   0.413 122.755  0.00  0.00    +0.050 A 
ATOM     19  C   LIG A   1      -9.513   1.668 122.828  0.00  0.00    +0.011 A 
ENDBRANCH   3  11
BRANCH   8  20
ATOM     20  O   LIG A   1      -4.620   3.458 128.445  0.00  0.00    -0.491 OA
ATOM     21  C   LIG A   1      -4.147   2.158 128.805  0.00  0.00    +0.277 C 
ENDBRANCH   8  20
BRANCH   7  22
ATOM     22  O   LIG A   1      -7.449   3.705 129.026  0.00  0.00    -0.484 OA
BRANCH  22  23
ATOM     23  C   LIG A   1      -8.324   2.629 129.401  0.00  0.00    +0.256 C 
BRANCH  23  24
ATOM     24  C   LIG A   1      -9.577   3.051 130.132  0.00  0.00    +0.006 C 
ATOM     25  C   LIG A   1      -9.918   4.329 130.345  0.00  0.00    +0.007 C 
ENDBRANCH  23  24
ENDBRANCH  22  23
ENDBRANCH   7  22
TORSDOF 5
ENDMDL
MODEL 9
REMARK VINA RESULT:      -6.6      2.209      3.905
REMARK  Name = NuBBE_1831
REMARK  7 active torsions:
REMARK  status: ('A' for Active; 'I' for Inactive)
REMARK    1  A    between atoms: C_1  and  C_2
REMARK    2  A    between atoms: C_4  and  C_19
REMARK    3  A    between atoms: C_9  and  O_10
REMARK    4  A    between atoms: O_10  and  C_11
REMARK    5  A    between atoms: C_11  and  C_12
REMARK    6  A    between atoms: C_14  and  O_15
REMARK    7  A    between atoms: O_15  and  C_16
REMARK                            x       y       z     vdW  Elec       q    Type
REMARK                         _______ _______ _______ _____ _____    ______ ____
ROOT
ATOM      1  C   LIG A   1      -9.702  -4.146 128.135  0.00  0.00    +0.016 C 
ATOM      2  C   LIG A   1      -8.253  -3.689 128.290  0.00  0.00    +0.065 C 
ATOM      3  C   LIG A   1      -8.024  -2.767 129.515  0.00  0.00    +0.211 C 
ATOM      4  O   LIG A   1      -8.133  -1.391 129.066  0.00  0.00    -0.483 OA
ATOM      5  C   LIG A   1      -7.836  -1.447 127.730  0.00  0.00    +0.129 A 
ATOM      6  C   LIG A   1      -7.447  -0.376 126.966  0.00  0.00    +0.095 A 
ATOM      7  C   LIG A   1      -7.077  -0.612 125.637  0.00  0.00    +0.166 A 
ATOM      8  C   LIG A   1      -7.217  -1.896 125.073  0.00  0.00    +0.162 A 
ATOM      9  C   LIG A   1      -7.623  -2.974 125.883  0.00  0.00    +0.057 A 
ATOM     10  C   LIG A   1      -7.899  -2.727 127.216  0.00  0.00    +0.005 A 
ENDROOT
BRANCH   3  11
ATOM     11  C   LIG A   1      -6.669  -2.898 130.213  0.00  0.00    -0.003 A 
ATOM     12  C   LIG A   1      -6.095  -1.840 130.944  0.00  0.00    +0.056 A 
ATOM     13  C   LIG A   1      -4.902  -2.054 131.597  0.00  0.00    +0.167 A 
ATOM     14  O   LIG A   1      -4.230  -1.134 132.337  0.00  0.00    -0.453 OA
ATOM     15  C   LIG A   1      -3.087  -1.909 132.754  0.00  0.00    +0.466 C 
ATOM     16  O   LIG A   1      -3.109  -3.269 132.274  0.00  0.00    -0.453 OA
ATOM     17  C   LIG A   1      -4.265  -3.269 131.558  0.00  0.00    +0.166 A 
ATOM     18  C   LIG A   1      -4.793  -4.339 130.872  0.00  0.00    +0.050 A 
ATOM     19  C   LIG A   1      -6.005  -4.150 130.197  0.00  0.00    +0.011 A 
ENDBRANCH   3  11
BRANCH   8  20
ATOM     20  O   LIG A   1      -7.034  -2.055 123.726  0.00  0.00    -0.491 OA
ATOM     21  C   LIG A   1      -8.239  -2.135 122.961  0.00  0.00    +0.277 C 
ENDBRANCH   8  20
BRANCH   7  22
ATOM     22  O   LIG A   1      -6.512   0.481 125.029  0.00  0.00    -0.484 OA
BRANCH  22  23
ATOM     23  C   LIG A   1      -7.302   1.661 124.814  0.00  0.00    +0.256 C 
BRANCH  23  24
ATOM     24  C   LIG A   1      -8.444   1.494 123.837  0.00  0.00    +0.006 C 
ATOM     25  C   LIG A   1      -9.733   1.627 124.173  0.00  0.00    +0.007 C 
ENDBRANCH  23  24
ENDBRANCH  22  23
ENDBRANCH   7  22
TORSDOF 5
ENDMDL
