MODEL 1
REMARK VINA RESULT:      -9.0      0.000      0.000
REMARK  Name = NuBBE_1569
REMARK  17 active torsions:
REMARK  status: ('A' for Active; 'I' for Inactive)
REMARK    1  A    between atoms: C_1  and  C_2
REMARK    2  A    between atoms: C_8  and  C_22
REMARK    3  A    between atoms: C_9  and  C_11
REMARK    4  A    between atoms: C_11  and  C_13
REMARK    5  A    between atoms: C_11  and  C_14
REMARK    6  A    between atoms: C_14  and  C_15
REMARK    7  A    between atoms: C_15  and  C_16
REMARK    8  A    between atoms: C_16  and  C_17
REMARK    9  A    between atoms: C_17  and  C_18
REMARK   10  A    between atoms: C_17  and  C_19
REMARK   11  A    between atoms: C_26  and  C_27
REMARK   12  A    between atoms: C_26  and  C_39
REMARK   13  A    between atoms: C_28  and  O_30
REMARK   14  A    between atoms: O_30  and  C_31
REMARK   15  A    between atoms: C_31  and  C_32
REMARK   16  A    between atoms: C_32  and  C_33
REMARK   17  A    between atoms: C_34  and  C_35
REMARK                            x       y       z     vdW  Elec       q    Type
REMARK                         _______ _______ _______ _____ _____    ______ ____
ROOT
ATOM      1  C   LIG A   1      -2.900   2.656 128.200  0.00  0.00    +0.012 C 
ATOM      2  C   LIG A   1      -3.726   3.964 128.283  0.00  0.00    -0.023 C 
ATOM      3  C   LIG A   1      -4.877   3.989 127.198  0.00  0.00    +0.002 C 
ATOM      4  C   LIG A   1      -6.070   3.065 127.569  0.00  0.00    -0.019 C 
ATOM      5  C   LIG A   1      -6.026   2.503 128.974  0.00  0.00    +0.008 C 
ATOM      6  C   LIG A   1      -5.688   3.604 129.966  0.00  0.00    +0.008 C 
ATOM      7  C   LIG A   1      -4.335   4.318 129.706  0.00  0.00    -0.023 C 
ATOM      8  C   LIG A   1      -4.525   5.885 129.585  0.00  0.00    -0.002 C 
ATOM      9  C   LIG A   1      -3.298   6.351 128.777  0.00  0.00    +0.005 C 
ATOM     10  C   LIG A   1      -2.725   5.128 128.074  0.00  0.00    +0.008 C 
ATOM     11  C   LIG A   1      -3.376   3.963 130.866  0.00  0.00    +0.012 C 
ATOM     12  C   LIG A   1      -6.865   2.331 126.463  0.00  0.00    -0.019 C 
ATOM     13  C   LIG A   1      -6.318   2.421 125.039  0.00  0.00    +0.005 C 
ATOM     14  C   LIG A   1      -7.420   2.059 123.996  0.00  0.00    +0.005 C 
ATOM     15  C   LIG A   1      -8.677   2.951 124.117  0.00  0.00    +0.015 C 
ATOM     16  C   LIG A   1      -7.776   0.558 124.258  0.00  0.00    +0.183 C 
ATOM     17  C   LIG A   1      -8.367   0.383 125.665  0.00  0.00    +0.046 C 
ATOM     18  C   LIG A   1      -7.504   0.980 126.789  0.00  0.00    +0.011 C 
ATOM     19  C   LIG A   1      -6.901   2.258 122.556  0.00  0.00    +0.015 C 
ATOM     20  C   LIG A   1      -5.532   3.704 124.769  0.00  0.00    +0.005 C 
ATOM     21  C   LIG A   1      -4.376   3.765 125.763  0.00  0.00    +0.005 C 
ATOM     22  C   LIG A   1      -7.440   3.558 127.131  0.00  0.00    +0.015 C 
ENDROOT
BRANCH   8  23
ATOM     23  C   LIG A   1      -4.759   6.761 130.857  0.00  0.00    -0.010 C 
ATOM     24  C   LIG A   1      -6.245   7.071 131.085  0.00  0.00    +0.008 C 
BRANCH  23  25
ATOM     25  C   LIG A   1      -3.940   8.090 130.764  0.00  0.00    +0.003 C 
BRANCH  25  26
ATOM     26  C   LIG A   1      -2.932   8.268 131.907  0.00  0.00    +0.000 C 
BRANCH  26  27
ATOM     27  C   LIG A   1      -2.841   7.056 132.842  0.00  0.00    +0.003 C 
BRANCH  27  28
ATOM     28  C   LIG A   1      -1.410   6.478 132.922  0.00  0.00    -0.017 C 
ATOM     29  C   LIG A   1      -0.769   6.429 131.534  0.00  0.00    +0.007 C 
ATOM     30  C   LIG A   1      -0.504   7.274 133.867  0.00  0.00    +0.007 C 
ENDBRANCH  27  28
ENDBRANCH  26  27
ENDBRANCH  25  26
ENDBRANCH  23  25
ENDBRANCH   8  23
BRANCH  16  31
ATOM     31  O   LIG A   1      -6.567  -0.249 124.235  0.00  0.00    -0.458 OA
BRANCH  31  32
ATOM     32  C   LIG A   1      -6.520  -1.357 123.473  0.00  0.00    +0.335 C 
ATOM     33  O   LIG A   1      -6.990  -1.475 122.365  0.00  0.00    -0.245 OA
BRANCH  32  34
ATOM     34  C   LIG A   1      -5.691  -2.399 124.188  0.00  0.00    +0.029 C 
ATOM     35  C   LIG A   1      -5.595  -2.386 125.689  0.00  0.00    +0.051 C 
ATOM     36  C   LIG A   1      -5.046  -3.298 123.410  0.00  0.00    -0.020 C 
ATOM     37  C   LIG A   1      -4.178  -4.426 123.864  0.00  0.00    +0.035 C 
ENDBRANCH  32  34
ENDBRANCH  31  32
ENDBRANCH  16  31
TORSDOF 8
ENDMDL
MODEL 2
REMARK VINA RESULT:      -8.7      1.669      1.988
REMARK  Name = NuBBE_1569
REMARK  17 active torsions:
REMARK  status: ('A' for Active; 'I' for Inactive)
REMARK    1  A    between atoms: C_1  and  C_2
REMARK    2  A    between atoms: C_8  and  C_22
REMARK    3  A    between atoms: C_9  and  C_11
REMARK    4  A    between atoms: C_11  and  C_13
REMARK    5  A    between atoms: C_11  and  C_14
REMARK    6  A    between atoms: C_14  and  C_15
REMARK    7  A    between atoms: C_15  and  C_16
REMARK    8  A    between atoms: C_16  and  C_17
REMARK    9  A    between atoms: C_17  and  C_18
REMARK   10  A    between atoms: C_17  and  C_19
REMARK   11  A    between atoms: C_26  and  C_27
REMARK   12  A    between atoms: C_26  and  C_39
REMARK   13  A    between atoms: C_28  and  O_30
REMARK   14  A    between atoms: O_30  and  C_31
REMARK   15  A    between atoms: C_31  and  C_32
REMARK   16  A    between atoms: C_32  and  C_33
REMARK   17  A    between atoms: C_34  and  C_35
REMARK                            x       y       z     vdW  Elec       q    Type
REMARK                         _______ _______ _______ _____ _____    ______ ____
ROOT
ATOM      1  C   LIG A   1      -4.319   1.481 129.389  0.00  0.00    +0.012 C 
ATOM      2  C   LIG A   1      -4.583   2.984 129.122  0.00  0.00    -0.023 C 
ATOM      3  C   LIG A   1      -5.397   3.197 127.782  0.00  0.00    +0.002 C 
ATOM      4  C   LIG A   1      -6.899   2.832 127.928  0.00  0.00    -0.019 C 
ATOM      5  C   LIG A   1      -7.354   2.569 129.349  0.00  0.00    +0.008 C 
ATOM      6  C   LIG A   1      -6.827   3.653 130.274  0.00  0.00    +0.008 C 
ATOM      7  C   LIG A   1      -5.281   3.791 130.297  0.00  0.00    -0.023 C 
ATOM      8  C   LIG A   1      -4.831   5.273 129.970  0.00  0.00    -0.002 C 
ATOM      9  C   LIG A   1      -3.384   5.123 129.460  0.00  0.00    +0.005 C 
ATOM     10  C   LIG A   1      -3.194   3.666 129.056  0.00  0.00    +0.008 C 
ATOM     11  C   LIG A   1      -4.782   3.355 131.694  0.00  0.00    +0.012 C 
ATOM     12  C   LIG A   1      -7.676   2.222 126.739  0.00  0.00    -0.019 C 
ATOM     13  C   LIG A   1      -6.865   1.843 125.500  0.00  0.00    +0.005 C 
ATOM     14  C   LIG A   1      -7.790   1.692 124.253  0.00  0.00    +0.005 C 
ATOM     15  C   LIG A   1      -8.608   2.970 123.955  0.00  0.00    +0.015 C 
ATOM     16  C   LIG A   1      -8.736   0.486 124.569  0.00  0.00    +0.183 C 
ATOM     17  C   LIG A   1      -9.616   0.799 125.789  0.00  0.00    +0.046 C 
ATOM     18  C   LIG A   1      -8.833   1.263 127.028  0.00  0.00    +0.011 C 
ATOM     19  C   LIG A   1      -6.958   1.421 122.982  0.00  0.00    +0.015 C 
ATOM     20  C   LIG A   1      -5.612   2.699 125.309  0.00  0.00    +0.005 C 
ATOM     21  C   LIG A   1      -4.743   2.544 126.554  0.00  0.00    +0.005 C 
ATOM     22  C   LIG A   1      -7.861   3.675 127.106  0.00  0.00    +0.015 C 
ENDROOT
BRANCH   8  23
ATOM     23  C   LIG A   1      -4.962   6.401 131.042  0.00  0.00    -0.010 C 
ATOM     24  C   LIG A   1      -6.380   6.985 131.103  0.00  0.00    +0.008 C 
BRANCH  23  25
ATOM     25  C   LIG A   1      -3.923   7.539 130.769  0.00  0.00    +0.003 C 
BRANCH  25  26
ATOM     26  C   LIG A   1      -3.014   7.837 131.968  0.00  0.00    +0.000 C 
BRANCH  26  27
ATOM     27  C   LIG A   1      -2.968   6.705 133.002  0.00  0.00    +0.003 C 
BRANCH  27  28
ATOM     28  C   LIG A   1      -1.554   6.099 133.151  0.00  0.00    -0.017 C 
ATOM     29  C   LIG A   1      -1.506   4.689 132.560  0.00  0.00    +0.007 C 
ATOM     30  C   LIG A   1      -0.470   6.958 132.492  0.00  0.00    +0.007 C 
ENDBRANCH  27  28
ENDBRANCH  26  27
ENDBRANCH  25  26
ENDBRANCH  23  25
ENDBRANCH   8  23
BRANCH  16  31
ATOM     31  O   LIG A   1      -7.947  -0.678 124.940  0.00  0.00    -0.458 OA
BRANCH  31  32
ATOM     32  C   LIG A   1      -8.556  -1.862 125.128  0.00  0.00    +0.335 C 
ATOM     33  O   LIG A   1      -9.256  -2.434 124.326  0.00  0.00    -0.245 OA
BRANCH  32  34
ATOM     34  C   LIG A   1      -8.135  -2.413 126.471  0.00  0.00    +0.029 C 
ATOM     35  C   LIG A   1      -6.860  -1.939 127.113  0.00  0.00    +0.051 C 
ATOM     36  C   LIG A   1      -8.944  -3.343 127.025  0.00  0.00    -0.020 C 
ATOM     37  C   LIG A   1      -8.761  -4.032 128.339  0.00  0.00    +0.035 C 
ENDBRANCH  32  34
ENDBRANCH  31  32
ENDBRANCH  16  31
TORSDOF 8
ENDMDL
MODEL 3
REMARK VINA RESULT:      -8.7      2.591      3.942
REMARK  Name = NuBBE_1569
REMARK  17 active torsions:
REMARK  status: ('A' for Active; 'I' for Inactive)
REMARK    1  A    between atoms: C_1  and  C_2
REMARK    2  A    between atoms: C_8  and  C_22
REMARK    3  A    between atoms: C_9  and  C_11
REMARK    4  A    between atoms: C_11  and  C_13
REMARK    5  A    between atoms: C_11  and  C_14
REMARK    6  A    between atoms: C_14  and  C_15
REMARK    7  A    between atoms: C_15  and  C_16
REMARK    8  A    between atoms: C_16  and  C_17
REMARK    9  A    between atoms: C_17  and  C_18
REMARK   10  A    between atoms: C_17  and  C_19
REMARK   11  A    between atoms: C_26  and  C_27
REMARK   12  A    between atoms: C_26  and  C_39
REMARK   13  A    between atoms: C_28  and  O_30
REMARK   14  A    between atoms: O_30  and  C_31
REMARK   15  A    between atoms: C_31  and  C_32
REMARK   16  A    between atoms: C_32  and  C_33
REMARK   17  A    between atoms: C_34  and  C_35
REMARK                            x       y       z     vdW  Elec       q    Type
REMARK                         _______ _______ _______ _____ _____    ______ ____
ROOT
ATOM      1  C   LIG A   1      -4.770  -0.167 129.717  0.00  0.00    +0.012 C 
ATOM      2  C   LIG A   1      -5.692   1.005 130.137  0.00  0.00    -0.023 C 
ATOM      3  C   LIG A   1      -6.401   1.659 128.883  0.00  0.00    +0.002 C 
ATOM      4  C   LIG A   1      -7.558   0.785 128.325  0.00  0.00    -0.019 C 
ATOM      5  C   LIG A   1      -7.944  -0.390 129.199  0.00  0.00    +0.008 C 
ATOM      6  C   LIG A   1      -8.068   0.054 130.646  0.00  0.00    +0.008 C 
ATOM      7  C   LIG A   1      -6.779   0.677 131.246  0.00  0.00    -0.023 C 
ATOM      8  C   LIG A   1      -7.060   2.115 131.845  0.00  0.00    -0.002 C 
ATOM      9  C   LIG A   1      -5.680   2.801 131.840  0.00  0.00    +0.005 C 
ATOM     10  C   LIG A   1      -4.791   2.027 130.875  0.00  0.00    +0.008 C 
ATOM     11  C   LIG A   1      -6.245  -0.283 132.335  0.00  0.00    +0.012 C 
ATOM     12  C   LIG A   1      -7.857   0.757 126.808  0.00  0.00    -0.019 C 
ATOM     13  C   LIG A   1      -6.868   1.476 125.892  0.00  0.00    +0.005 C 
ATOM     14  C   LIG A   1      -7.509   1.769 124.500  0.00  0.00    +0.005 C 
ATOM     15  C   LIG A   1      -8.808   2.602 124.602  0.00  0.00    +0.015 C 
ATOM     16  C   LIG A   1      -7.793   0.370 123.861  0.00  0.00    +0.183 C 
ATOM     17  C   LIG A   1      -8.810  -0.412 124.707  0.00  0.00    +0.046 C 
ATOM     18  C   LIG A   1      -8.441  -0.518 126.195  0.00  0.00    +0.011 C 
ATOM     19  C   LIG A   1      -6.550   2.594 123.616  0.00  0.00    +0.015 C 
ATOM     20  C   LIG A   1      -6.158   2.651 126.567  0.00  0.00    +0.005 C 
ATOM     21  C   LIG A   1      -5.421   2.116 127.790  0.00  0.00    +0.005 C 
ATOM     22  C   LIG A   1      -8.736   1.551 127.744  0.00  0.00    +0.015 C 
ENDROOT
BRANCH   8  23
ATOM     23  C   LIG A   1      -7.794   2.281 133.213  0.00  0.00    -0.010 C 
ATOM     24  C   LIG A   1      -9.296   2.544 133.042  0.00  0.00    +0.008 C 
BRANCH  23  25
ATOM     25  C   LIG A   1      -7.139   3.428 134.051  0.00  0.00    +0.003 C 
BRANCH  25  26
ATOM     26  C   LIG A   1      -8.128   4.524 134.465  0.00  0.00    +0.000 C 
BRANCH  26  27
ATOM     27  C   LIG A   1      -7.849   5.884 133.814  0.00  0.00    +0.003 C 
BRANCH  27  28
ATOM     28  C   LIG A   1      -7.782   5.797 132.272  0.00  0.00    -0.017 C 
ATOM     29  C   LIG A   1      -9.042   6.392 131.641  0.00  0.00    +0.007 C 
ATOM     30  C   LIG A   1      -6.550   6.501 131.694  0.00  0.00    +0.007 C 
ENDBRANCH  27  28
ENDBRANCH  26  27
ENDBRANCH  25  26
ENDBRANCH  23  25
ENDBRANCH   8  23
BRANCH  16  31
ATOM     31  O   LIG A   1      -6.579  -0.431 123.863  0.00  0.00    -0.458 OA
BRANCH  31  32
ATOM     32  C   LIG A   1      -6.564  -1.618 123.231  0.00  0.00    +0.335 C 
ATOM     33  O   LIG A   1      -7.111  -1.870 122.183  0.00  0.00    -0.245 OA
BRANCH  32  34
ATOM     34  C   LIG A   1      -5.662  -2.560 123.995  0.00  0.00    +0.029 C 
ATOM     35  C   LIG A   1      -5.528  -2.430 125.488  0.00  0.00    +0.051 C 
ATOM     36  C   LIG A   1      -4.990  -3.479 123.267  0.00  0.00    -0.020 C 
ATOM     37  C   LIG A   1      -4.050  -4.524 123.776  0.00  0.00    +0.035 C 
ENDBRANCH  32  34
ENDBRANCH  31  32
ENDBRANCH  16  31
TORSDOF 8
ENDMDL
MODEL 4
REMARK VINA RESULT:      -8.4      1.148      2.531
REMARK  Name = NuBBE_1569
REMARK  17 active torsions:
REMARK  status: ('A' for Active; 'I' for Inactive)
REMARK    1  A    between atoms: C_1  and  C_2
REMARK    2  A    between atoms: C_8  and  C_22
REMARK    3  A    between atoms: C_9  and  C_11
REMARK    4  A    between atoms: C_11  and  C_13
REMARK    5  A    between atoms: C_11  and  C_14
REMARK    6  A    between atoms: C_14  and  C_15
REMARK    7  A    between atoms: C_15  and  C_16
REMARK    8  A    between atoms: C_16  and  C_17
REMARK    9  A    between atoms: C_17  and  C_18
REMARK   10  A    between atoms: C_17  and  C_19
REMARK   11  A    between atoms: C_26  and  C_27
REMARK   12  A    between atoms: C_26  and  C_39
REMARK   13  A    between atoms: C_28  and  O_30
REMARK   14  A    between atoms: O_30  and  C_31
REMARK   15  A    between atoms: C_31  and  C_32
REMARK   16  A    between atoms: C_32  and  C_33
REMARK   17  A    between atoms: C_34  and  C_35
REMARK                            x       y       z     vdW  Elec       q    Type
REMARK                         _______ _______ _______ _____ _____    ______ ____
ROOT
ATOM      1  C   LIG A   1      -2.779   2.984 128.169  0.00  0.00    +0.012 C 
ATOM      2  C   LIG A   1      -3.616   4.288 128.202  0.00  0.00    -0.023 C 
ATOM      3  C   LIG A   1      -4.797   4.241 127.152  0.00  0.00    +0.002 C 
ATOM      4  C   LIG A   1      -5.970   3.330 127.607  0.00  0.00    -0.019 C 
ATOM      5  C   LIG A   1      -5.880   2.848 129.041  0.00  0.00    +0.008 C 
ATOM      6  C   LIG A   1      -5.525   4.006 129.958  0.00  0.00    +0.008 C 
ATOM      7  C   LIG A   1      -4.187   4.716 129.620  0.00  0.00    -0.023 C 
ATOM      8  C   LIG A   1      -4.396   6.272 129.417  0.00  0.00    -0.002 C 
ATOM      9  C   LIG A   1      -3.197   6.702 128.549  0.00  0.00    +0.005 C 
ATOM     10  C   LIG A   1      -2.632   5.446 127.899  0.00  0.00    +0.008 C 
ATOM     11  C   LIG A   1      -3.192   4.435 130.770  0.00  0.00    +0.012 C 
ATOM     12  C   LIG A   1      -6.789   2.528 126.569  0.00  0.00    -0.019 C 
ATOM     13  C   LIG A   1      -6.284   2.542 125.126  0.00  0.00    +0.005 C 
ATOM     14  C   LIG A   1      -7.411   2.113 124.137  0.00  0.00    +0.005 C 
ATOM     15  C   LIG A   1      -8.673   3.000 124.244  0.00  0.00    +0.015 C 
ATOM     16  C   LIG A   1      -7.744   0.626 124.493  0.00  0.00    +0.183 C 
ATOM     17  C   LIG A   1      -8.293   0.526 125.925  0.00  0.00    +0.046 C 
ATOM     18  C   LIG A   1      -7.404   1.192 126.988  0.00  0.00    +0.011 C 
ATOM     19  C   LIG A   1      -6.935   2.235 122.675  0.00  0.00    +0.015 C 
ATOM     20  C   LIG A   1      -5.518   3.815 124.762  0.00  0.00    +0.005 C 
ATOM     21  C   LIG A   1      -4.335   3.942 125.717  0.00  0.00    +0.005 C 
ATOM     22  C   LIG A   1      -7.357   3.786 127.182  0.00  0.00    +0.015 C 
ENDROOT
BRANCH   8  23
ATOM     23  C   LIG A   1      -4.603   7.216 130.643  0.00  0.00    -0.010 C 
ATOM     24  C   LIG A   1      -3.296   7.475 131.406  0.00  0.00    +0.008 C 
BRANCH  23  25
ATOM     25  C   LIG A   1      -5.682   6.630 131.611  0.00  0.00    +0.003 C 
BRANCH  25  26
ATOM     26  C   LIG A   1      -7.122   6.932 131.177  0.00  0.00    +0.000 C 
BRANCH  26  27
ATOM     27  C   LIG A   1      -8.181   6.166 131.979  0.00  0.00    +0.003 C 
BRANCH  27  28
ATOM     28  C   LIG A   1      -7.556   5.196 133.007  0.00  0.00    -0.017 C 
ATOM     29  C   LIG A   1      -7.995   5.559 134.428  0.00  0.00    +0.007 C 
ATOM     30  C   LIG A   1      -7.912   3.732 132.730  0.00  0.00    +0.007 C 
ENDBRANCH  27  28
ENDBRANCH  26  27
ENDBRANCH  25  26
ENDBRANCH  23  25
ENDBRANCH   8  23
BRANCH  16  31
ATOM     31  O   LIG A   1      -6.528  -0.171 124.480  0.00  0.00    -0.458 OA
BRANCH  31  32
ATOM     32  C   LIG A   1      -6.417  -1.203 123.625  0.00  0.00    +0.335 C 
ATOM     33  O   LIG A   1      -6.792  -1.213 122.475  0.00  0.00    -0.245 OA
BRANCH  32  34
ATOM     34  C   LIG A   1      -5.650  -2.313 124.305  0.00  0.00    +0.029 C 
ATOM     35  C   LIG A   1      -5.550  -2.350 125.805  0.00  0.00    +0.051 C 
ATOM     36  C   LIG A   1      -5.063  -3.226 123.499  0.00  0.00    -0.020 C 
ATOM     37  C   LIG A   1      -4.263  -4.417 123.916  0.00  0.00    +0.035 C 
ENDBRANCH  32  34
ENDBRANCH  31  32
ENDBRANCH  16  31
TORSDOF 8
ENDMDL
MODEL 5
REMARK VINA RESULT:      -8.1      3.760      5.777
REMARK  Name = NuBBE_1569
REMARK  17 active torsions:
REMARK  status: ('A' for Active; 'I' for Inactive)
REMARK    1  A    between atoms: C_1  and  C_2
REMARK    2  A    between atoms: C_8  and  C_22
REMARK    3  A    between atoms: C_9  and  C_11
REMARK    4  A    between atoms: C_11  and  C_13
REMARK    5  A    between atoms: C_11  and  C_14
REMARK    6  A    between atoms: C_14  and  C_15
REMARK    7  A    between atoms: C_15  and  C_16
REMARK    8  A    between atoms: C_16  and  C_17
REMARK    9  A    between atoms: C_17  and  C_18
REMARK   10  A    between atoms: C_17  and  C_19
REMARK   11  A    between atoms: C_26  and  C_27
REMARK   12  A    between atoms: C_26  and  C_39
REMARK   13  A    between atoms: C_28  and  O_30
REMARK   14  A    between atoms: O_30  and  C_31
REMARK   15  A    between atoms: C_31  and  C_32
REMARK   16  A    between atoms: C_32  and  C_33
REMARK   17  A    between atoms: C_34  and  C_35
REMARK                            x       y       z     vdW  Elec       q    Type
REMARK                         _______ _______ _______ _____ _____    ______ ____
ROOT
ATOM      1  C   LIG A   1      -9.944   2.969 130.900  0.00  0.00    +0.012 C 
ATOM      2  C   LIG A   1      -8.769   3.026 131.907  0.00  0.00    -0.023 C 
ATOM      3  C   LIG A   1      -7.867   1.729 131.816  0.00  0.00    +0.002 C 
ATOM      4  C   LIG A   1      -6.953   1.722 130.560  0.00  0.00    -0.019 C 
ATOM      5  C   LIG A   1      -6.917   3.028 129.793  0.00  0.00    +0.008 C 
ATOM      6  C   LIG A   1      -6.739   4.192 130.754  0.00  0.00    +0.008 C 
ATOM      7  C   LIG A   1      -7.847   4.316 131.834  0.00  0.00    -0.023 C 
ATOM      8  C   LIG A   1      -7.229   4.343 133.291  0.00  0.00    -0.002 C 
ATOM      9  C   LIG A   1      -8.386   3.880 134.198  0.00  0.00    +0.005 C 
ATOM     10  C   LIG A   1      -9.405   3.176 133.312  0.00  0.00    +0.008 C 
ATOM     11  C   LIG A   1      -8.652   5.605 131.548  0.00  0.00    +0.012 C 
ATOM     12  C   LIG A   1      -6.612   0.393 129.847  0.00  0.00    -0.019 C 
ATOM     13  C   LIG A   1      -7.346  -0.860 130.325  0.00  0.00    +0.005 C 
ATOM     14  C   LIG A   1      -6.597  -2.151 129.872  0.00  0.00    +0.005 C 
ATOM     15  C   LIG A   1      -5.132  -2.199 130.366  0.00  0.00    +0.015 C 
ATOM     16  C   LIG A   1      -6.658  -2.151 128.309  0.00  0.00    +0.183 C 
ATOM     17  C   LIG A   1      -5.910  -0.935 127.741  0.00  0.00    +0.046 C 
ATOM     18  C   LIG A   1      -6.352   0.411 128.339  0.00  0.00    +0.011 C 
ATOM     19  C   LIG A   1      -7.275  -3.411 130.450  0.00  0.00    +0.015 C 
ATOM     20  C   LIG A   1      -7.755  -0.800 131.797  0.00  0.00    +0.005 C 
ATOM     21  C   LIG A   1      -8.652   0.419 131.987  0.00  0.00    +0.005 C 
ATOM     22  C   LIG A   1      -5.596   1.061 130.742  0.00  0.00    +0.015 C 
ENDROOT
BRANCH   8  23
ATOM     23  C   LIG A   1      -6.532   5.629 133.838  0.00  0.00    -0.010 C 
ATOM     24  C   LIG A   1      -5.309   6.030 133.002  0.00  0.00    +0.008 C 
BRANCH  23  25
ATOM     25  C   LIG A   1      -6.119   5.434 135.335  0.00  0.00    +0.003 C 
BRANCH  25  26
ATOM     26  C   LIG A   1      -4.839   4.608 135.513  0.00  0.00    +0.000 C 
BRANCH  26  27
ATOM     27  C   LIG A   1      -5.090   3.191 136.042  0.00  0.00    +0.003 C 
BRANCH  27  28
ATOM     28  C   LIG A   1      -4.626   2.100 135.049  0.00  0.00    -0.017 C 
ATOM     29  C   LIG A   1      -5.795   1.196 134.655  0.00  0.00    +0.007 C 
ATOM     30  C   LIG A   1      -3.992   2.685 133.783  0.00  0.00    +0.007 C 
ENDBRANCH  27  28
ENDBRANCH  26  27
ENDBRANCH  25  26
ENDBRANCH  23  25
ENDBRANCH   8  23
BRANCH  16  31
ATOM     31  O   LIG A   1      -8.035  -2.009 127.867  0.00  0.00    -0.458 OA
BRANCH  31  32
ATOM     32  C   LIG A   1      -8.602  -2.980 127.129  0.00  0.00    +0.335 C 
ATOM     33  O   LIG A   1      -8.890  -4.088 127.518  0.00  0.00    -0.245 OA
BRANCH  32  34
ATOM     34  C   LIG A   1      -8.916  -2.425 125.759  0.00  0.00    +0.029 C 
ATOM     35  C   LIG A   1      -9.052  -0.940 125.561  0.00  0.00    +0.051 C 
ATOM     36  C   LIG A   1      -9.081  -3.324 124.764  0.00  0.00    -0.020 C 
ATOM     37  C   LIG A   1      -9.386  -3.038 123.329  0.00  0.00    +0.035 C 
ENDBRANCH  32  34
ENDBRANCH  31  32
ENDBRANCH  16  31
TORSDOF 8
ENDMDL
MODEL 6
REMARK VINA RESULT:      -8.0      3.501      9.670
REMARK  Name = NuBBE_1569
REMARK  17 active torsions:
REMARK  status: ('A' for Active; 'I' for Inactive)
REMARK    1  A    between atoms: C_1  and  C_2
REMARK    2  A    between atoms: C_8  and  C_22
REMARK    3  A    between atoms: C_9  and  C_11
REMARK    4  A    between atoms: C_11  and  C_13
REMARK    5  A    between atoms: C_11  and  C_14
REMARK    6  A    between atoms: C_14  and  C_15
REMARK    7  A    between atoms: C_15  and  C_16
REMARK    8  A    between atoms: C_16  and  C_17
REMARK    9  A    between atoms: C_17  and  C_18
REMARK   10  A    between atoms: C_17  and  C_19
REMARK   11  A    between atoms: C_26  and  C_27
REMARK   12  A    between atoms: C_26  and  C_39
REMARK   13  A    between atoms: C_28  and  O_30
REMARK   14  A    between atoms: O_30  and  C_31
REMARK   15  A    between atoms: C_31  and  C_32
REMARK   16  A    between atoms: C_32  and  C_33
REMARK   17  A    between atoms: C_34  and  C_35
REMARK                            x       y       z     vdW  Elec       q    Type
REMARK                         _______ _______ _______ _____ _____    ______ ____
ROOT
ATOM      1  C   LIG A   1      -5.068   0.114 129.199  0.00  0.00    +0.012 C 
ATOM      2  C   LIG A   1      -6.495   0.043 128.601  0.00  0.00    -0.023 C 
ATOM      3  C   LIG A   1      -7.499   0.978 129.390  0.00  0.00    +0.002 C 
ATOM      4  C   LIG A   1      -7.301   2.483 129.061  0.00  0.00    -0.019 C 
ATOM      5  C   LIG A   1      -6.369   2.763 127.900  0.00  0.00    +0.008 C 
ATOM      6  C   LIG A   1      -6.705   1.852 126.731  0.00  0.00    +0.008 C 
ATOM      7  C   LIG A   1      -6.617   0.334 127.045  0.00  0.00    -0.023 C 
ATOM      8  C   LIG A   1      -7.971  -0.406 126.692  0.00  0.00    -0.002 C 
ATOM      9  C   LIG A   1      -7.943  -1.676 127.565  0.00  0.00    +0.005 C 
ATOM     10  C   LIG A   1      -6.927  -1.443 128.675  0.00  0.00    +0.008 C 
ATOM     11  C   LIG A   1      -5.436  -0.254 126.237  0.00  0.00    +0.012 C 
ATOM     12  C   LIG A   1      -7.533   3.559 130.147  0.00  0.00    -0.019 C 
ATOM     13  C   LIG A   1      -7.788   3.065 131.571  0.00  0.00    +0.005 C 
ATOM     14  C   LIG A   1      -8.452   4.180 132.437  0.00  0.00    +0.005 C 
ATOM     15  C   LIG A   1      -9.777   4.700 131.833  0.00  0.00    +0.015 C 
ATOM     16  C   LIG A   1      -7.395   5.330 132.532  0.00  0.00    +0.183 C 
ATOM     17  C   LIG A   1      -7.104   5.909 131.139  0.00  0.00    +0.046 C 
ATOM     18  C   LIG A   1      -6.722   4.855 130.086  0.00  0.00    +0.011 C 
ATOM     19  C   LIG A   1      -8.812   3.645 133.839  0.00  0.00    +0.015 C 
ATOM     20  C   LIG A   1      -8.449   1.687 131.627  0.00  0.00    +0.005 C 
ATOM     21  C   LIG A   1      -7.539   0.700 130.901  0.00  0.00    +0.005 C 
ATOM     22  C   LIG A   1      -8.566   3.326 129.070  0.00  0.00    +0.015 C 
ENDROOT
BRANCH   8  23
ATOM     23  C   LIG A   1      -8.346  -0.720 125.209  0.00  0.00    -0.010 C 
ATOM     24  C   LIG A   1      -9.345   0.293 124.633  0.00  0.00    +0.008 C 
BRANCH  23  25
ATOM     25  C   LIG A   1      -8.918  -2.171 125.084  0.00  0.00    +0.003 C 
BRANCH  25  26
ATOM     26  C   LIG A   1      -8.221  -3.012 124.008  0.00  0.00    +0.000 C 
BRANCH  26  27
ATOM     27  C   LIG A   1      -6.882  -3.607 124.462  0.00  0.00    +0.003 C 
BRANCH  27  28
ATOM     28  C   LIG A   1      -5.671  -2.893 123.820  0.00  0.00    -0.017 C 
ATOM     29  C   LIG A   1      -4.554  -3.893 123.515  0.00  0.00    +0.007 C 
ATOM     30  C   LIG A   1      -6.040  -2.144 122.536  0.00  0.00    +0.007 C 
ENDBRANCH  27  28
ENDBRANCH  26  27
ENDBRANCH  25  26
ENDBRANCH  23  25
ENDBRANCH   8  23
BRANCH  16  31
ATOM     31  O   LIG A   1      -6.129   4.800 133.011  0.00  0.00    -0.458 OA
BRANCH  31  32
ATOM     32  C   LIG A   1      -5.326   5.573 133.764  0.00  0.00    +0.335 C 
ATOM     33  O   LIG A   1      -5.604   6.044 134.842  0.00  0.00    -0.245 OA
BRANCH  32  34
ATOM     34  C   LIG A   1      -3.977   5.669 133.088  0.00  0.00    +0.029 C 
ATOM     35  C   LIG A   1      -3.636   6.873 132.255  0.00  0.00    +0.051 C 
ATOM     36  C   LIG A   1      -3.138   4.623 133.261  0.00  0.00    -0.020 C 
ATOM     37  C   LIG A   1      -1.755   4.476 132.713  0.00  0.00    +0.035 C 
ENDBRANCH  32  34
ENDBRANCH  31  32
ENDBRANCH  16  31
TORSDOF 8
ENDMDL
MODEL 7
REMARK VINA RESULT:      -8.0      3.174      8.983
REMARK  Name = NuBBE_1569
REMARK  17 active torsions:
REMARK  status: ('A' for Active; 'I' for Inactive)
REMARK    1  A    between atoms: C_1  and  C_2
REMARK    2  A    between atoms: C_8  and  C_22
REMARK    3  A    between atoms: C_9  and  C_11
REMARK    4  A    between atoms: C_11  and  C_13
REMARK    5  A    between atoms: C_11  and  C_14
REMARK    6  A    between atoms: C_14  and  C_15
REMARK    7  A    between atoms: C_15  and  C_16
REMARK    8  A    between atoms: C_16  and  C_17
REMARK    9  A    between atoms: C_17  and  C_18
REMARK   10  A    between atoms: C_17  and  C_19
REMARK   11  A    between atoms: C_26  and  C_27
REMARK   12  A    between atoms: C_26  and  C_39
REMARK   13  A    between atoms: C_28  and  O_30
REMARK   14  A    between atoms: O_30  and  C_31
REMARK   15  A    between atoms: C_31  and  C_32
REMARK   16  A    between atoms: C_32  and  C_33
REMARK   17  A    between atoms: C_34  and  C_35
REMARK                            x       y       z     vdW  Elec       q    Type
REMARK                         _______ _______ _______ _____ _____    ______ ____
ROOT
ATOM      1  C   LIG A   1      -6.149   1.646 125.253  0.00  0.00    +0.012 C 
ATOM      2  C   LIG A   1      -6.327   0.299 125.997  0.00  0.00    -0.023 C 
ATOM      3  C   LIG A   1      -6.149   0.474 127.559  0.00  0.00    +0.002 C 
ATOM      4  C   LIG A   1      -7.376   1.149 128.230  0.00  0.00    -0.019 C 
ATOM      5  C   LIG A   1      -8.588   1.300 127.333  0.00  0.00    +0.008 C 
ATOM      6  C   LIG A   1      -8.851   0.002 126.590  0.00  0.00    +0.008 C 
ATOM      7  C   LIG A   1      -7.673  -0.489 125.705  0.00  0.00    -0.023 C 
ATOM      8  C   LIG A   1      -7.256  -1.971 126.073  0.00  0.00    -0.002 C 
ATOM      9  C   LIG A   1      -5.799  -2.083 125.583  0.00  0.00    +0.005 C 
ATOM     10  C   LIG A   1      -5.267  -0.667 125.410  0.00  0.00    +0.008 C 
ATOM     11  C   LIG A   1      -8.112  -0.387 124.225  0.00  0.00    +0.012 C 
ATOM     12  C   LIG A   1      -7.188   2.087 129.445  0.00  0.00    -0.019 C 
ATOM     13  C   LIG A   1      -5.752   2.446 129.829  0.00  0.00    +0.005 C 
ATOM     14  C   LIG A   1      -5.685   2.984 131.291  0.00  0.00    +0.005 C 
ATOM     15  C   LIG A   1      -6.255   1.985 132.325  0.00  0.00    +0.015 C 
ATOM     16  C   LIG A   1      -6.507   4.316 131.292  0.00  0.00    +0.183 C 
ATOM     17  C   LIG A   1      -7.979   4.039 130.946  0.00  0.00    +0.046 C 
ATOM     18  C   LIG A   1      -8.180   3.233 129.653  0.00  0.00    +0.011 C 
ATOM     19  C   LIG A   1      -4.224   3.240 131.716  0.00  0.00    +0.015 C 
ATOM     20  C   LIG A   1      -4.736   1.363 129.463  0.00  0.00    +0.005 C 
ATOM     21  C   LIG A   1      -4.818   1.132 127.957  0.00  0.00    +0.005 C 
ATOM     22  C   LIG A   1      -7.692   0.678 129.641  0.00  0.00    +0.015 C 
ENDROOT
BRANCH   8  23
ATOM     23  C   LIG A   1      -8.126  -3.183 125.611  0.00  0.00    -0.010 C 
ATOM     24  C   LIG A   1      -8.725  -2.972 124.214  0.00  0.00    +0.008 C 
BRANCH  23  25
ATOM     25  C   LIG A   1      -9.264  -3.467 126.647  0.00  0.00    +0.003 C 
BRANCH  25  26
ATOM     26  C   LIG A   1      -8.751  -4.031 127.978  0.00  0.00    +0.000 C 
BRANCH  26  27
ATOM     27  C   LIG A   1      -8.424  -2.953 129.018  0.00  0.00    +0.003 C 
BRANCH  27  28
ATOM     28  C   LIG A   1      -7.213  -3.332 129.901  0.00  0.00    -0.017 C 
ATOM     29  C   LIG A   1      -5.916  -2.781 129.304  0.00  0.00    +0.007 C 
ATOM     30  C   LIG A   1      -7.354  -2.834 131.343  0.00  0.00    +0.007 C 
ENDBRANCH  27  28
ENDBRANCH  26  27
ENDBRANCH  25  26
ENDBRANCH  23  25
ENDBRANCH   8  23
BRANCH  16  31
ATOM     31  O   LIG A   1      -6.016   5.201 130.249  0.00  0.00    -0.458 OA
BRANCH  31  32
ATOM     32  C   LIG A   1      -5.782   6.496 130.530  0.00  0.00    +0.335 C 
ATOM     33  O   LIG A   1      -6.608   7.305 130.879  0.00  0.00    -0.245 OA
BRANCH  32  34
ATOM     34  C   LIG A   1      -4.294   6.747 130.440  0.00  0.00    +0.029 C 
ATOM     35  C   LIG A   1      -3.597   7.535 131.514  0.00  0.00    +0.051 C 
ATOM     36  C   LIG A   1      -3.661   6.250 129.354  0.00  0.00    -0.020 C 
ATOM     37  C   LIG A   1      -2.204   6.349 129.034  0.00  0.00    +0.035 C 
ENDBRANCH  32  34
ENDBRANCH  31  32
ENDBRANCH  16  31
TORSDOF 8
ENDMDL
MODEL 8
REMARK VINA RESULT:      -8.0      2.007      3.663
REMARK  Name = NuBBE_1569
REMARK  17 active torsions:
REMARK  status: ('A' for Active; 'I' for Inactive)
REMARK    1  A    between atoms: C_1  and  C_2
REMARK    2  A    between atoms: C_8  and  C_22
REMARK    3  A    between atoms: C_9  and  C_11
REMARK    4  A    between atoms: C_11  and  C_13
REMARK    5  A    between atoms: C_11  and  C_14
REMARK    6  A    between atoms: C_14  and  C_15
REMARK    7  A    between atoms: C_15  and  C_16
REMARK    8  A    between atoms: C_16  and  C_17
REMARK    9  A    between atoms: C_17  and  C_18
REMARK   10  A    between atoms: C_17  and  C_19
REMARK   11  A    between atoms: C_26  and  C_27
REMARK   12  A    between atoms: C_26  and  C_39
REMARK   13  A    between atoms: C_28  and  O_30
REMARK   14  A    between atoms: O_30  and  C_31
REMARK   15  A    between atoms: C_31  and  C_32
REMARK   16  A    between atoms: C_32  and  C_33
REMARK   17  A    between atoms: C_34  and  C_35
REMARK                            x       y       z     vdW  Elec       q    Type
REMARK                         _______ _______ _______ _____ _____    ______ ____
ROOT
ATOM      1  C   LIG A   1      -4.165   1.838 129.353  0.00  0.00    +0.012 C 
ATOM      2  C   LIG A   1      -4.601   3.304 129.108  0.00  0.00    -0.023 C 
ATOM      3  C   LIG A   1      -5.458   3.438 127.786  0.00  0.00    +0.002 C 
ATOM      4  C   LIG A   1      -6.907   2.905 127.954  0.00  0.00    -0.019 C 
ATOM      5  C   LIG A   1      -7.302   2.578 129.379  0.00  0.00    +0.008 C 
ATOM      6  C   LIG A   1      -6.883   3.705 130.308  0.00  0.00    +0.008 C 
ATOM      7  C   LIG A   1      -5.362   4.016 130.305  0.00  0.00    -0.023 C 
ATOM      8  C   LIG A   1      -5.088   5.543 129.988  0.00  0.00    -0.002 C 
ATOM      9  C   LIG A   1      -3.643   5.561 129.450  0.00  0.00    +0.005 C 
ATOM     10  C   LIG A   1      -3.298   4.139 129.026  0.00  0.00    +0.008 C 
ATOM     11  C   LIG A   1      -4.791   3.625 131.688  0.00  0.00    +0.012 C 
ATOM     12  C   LIG A   1      -7.633   2.223 126.771  0.00  0.00    -0.019 C 
ATOM     13  C   LIG A   1      -6.808   1.949 125.514  0.00  0.00    +0.005 C 
ATOM     14  C   LIG A   1      -7.734   1.708 124.282  0.00  0.00    +0.005 C 
ATOM     15  C   LIG A   1      -8.696   2.889 124.014  0.00  0.00    +0.015 C 
ATOM     16  C   LIG A   1      -8.532   0.401 124.601  0.00  0.00    +0.183 C 
ATOM     17  C   LIG A   1      -9.419   0.600 125.839  0.00  0.00    +0.046 C 
ATOM     18  C   LIG A   1      -8.670   1.137 127.070  0.00  0.00    +0.011 C 
ATOM     19  C   LIG A   1      -6.901   1.544 122.993  0.00  0.00    +0.015 C 
ATOM     20  C   LIG A   1      -5.663   2.943 125.311  0.00  0.00    +0.005 C 
ATOM     21  C   LIG A   1      -4.759   2.875 126.538  0.00  0.00    +0.005 C 
ATOM     22  C   LIG A   1      -7.973   3.642 127.159  0.00  0.00    +0.015 C 
ENDROOT
BRANCH   8  23
ATOM     23  C   LIG A   1      -5.324   6.639 131.075  0.00  0.00    -0.010 C 
ATOM     24  C   LIG A   1      -4.164   6.725 132.077  0.00  0.00    +0.008 C 
BRANCH  23  25
ATOM     25  C   LIG A   1      -6.669   6.382 131.830  0.00  0.00    +0.003 C 
BRANCH  25  26
ATOM     26  C   LIG A   1      -7.906   6.841 131.048  0.00  0.00    +0.000 C 
BRANCH  26  27
ATOM     27  C   LIG A   1      -9.229   6.331 131.633  0.00  0.00    +0.003 C 
BRANCH  27  28
ATOM     28  C   LIG A   1     -10.209   5.845 130.541  0.00  0.00    -0.017 C 
ATOM     29  C   LIG A   1      -9.692   6.214 129.149  0.00  0.00    +0.007 C 
ATOM     30  C   LIG A   1     -10.458   4.334 130.601  0.00  0.00    +0.007 C 
ENDBRANCH  27  28
ENDBRANCH  26  27
ENDBRANCH  25  26
ENDBRANCH  23  25
ENDBRANCH   8  23
BRANCH  16  31
ATOM     31  O   LIG A   1      -7.611  -0.671 124.943  0.00  0.00    -0.458 OA
BRANCH  31  32
ATOM     32  C   LIG A   1      -8.061  -1.936 125.022  0.00  0.00    +0.335 C 
ATOM     33  O   LIG A   1      -8.502  -2.589 124.104  0.00  0.00    -0.245 OA
BRANCH  32  34
ATOM     34  C   LIG A   1      -7.825  -2.446 126.425  0.00  0.00    +0.029 C 
ATOM     35  C   LIG A   1      -6.561  -2.086 127.155  0.00  0.00    +0.051 C 
ATOM     36  C   LIG A   1      -8.787  -3.238 126.951  0.00  0.00    -0.020 C 
ATOM     37  C   LIG A   1      -8.802  -3.858 128.311  0.00  0.00    +0.035 C 
ENDBRANCH  32  34
ENDBRANCH  31  32
ENDBRANCH  16  31
TORSDOF 8
ENDMDL
MODEL 9
REMARK VINA RESULT:      -8.0      5.447      7.939
REMARK  Name = NuBBE_1569
REMARK  17 active torsions:
REMARK  status: ('A' for Active; 'I' for Inactive)
REMARK    1  A    between atoms: C_1  and  C_2
REMARK    2  A    between atoms: C_8  and  C_22
REMARK    3  A    between atoms: C_9  and  C_11
REMARK    4  A    between atoms: C_11  and  C_13
REMARK    5  A    between atoms: C_11  and  C_14
REMARK    6  A    between atoms: C_14  and  C_15
REMARK    7  A    between atoms: C_15  and  C_16
REMARK    8  A    between atoms: C_16  and  C_17
REMARK    9  A    between atoms: C_17  and  C_18
REMARK   10  A    between atoms: C_17  and  C_19
REMARK   11  A    between atoms: C_26  and  C_27
REMARK   12  A    between atoms: C_26  and  C_39
REMARK   13  A    between atoms: C_28  and  O_30
REMARK   14  A    between atoms: O_30  and  C_31
REMARK   15  A    between atoms: C_31  and  C_32
REMARK   16  A    between atoms: C_32  and  C_33
REMARK   17  A    between atoms: C_34  and  C_35
REMARK                            x       y       z     vdW  Elec       q    Type
REMARK                         _______ _______ _______ _____ _____    ______ ____
ROOT
ATOM      1  C   LIG A   1      -6.618   1.734 133.930  0.00  0.00    +0.012 C 
ATOM      2  C   LIG A   1      -7.017   2.277 132.535  0.00  0.00    -0.023 C 
ATOM      3  C   LIG A   1      -6.495   1.333 131.378  0.00  0.00    +0.002 C 
ATOM      4  C   LIG A   1      -7.329   0.030 131.246  0.00  0.00    -0.019 C 
ATOM      5  C   LIG A   1      -8.601   0.003 132.069  0.00  0.00    +0.008 C 
ATOM      6  C   LIG A   1      -9.357   1.310 131.904  0.00  0.00    +0.008 C 
ATOM      7  C   LIG A   1      -8.560   2.577 132.317  0.00  0.00    -0.023 C 
ATOM      8  C   LIG A   1      -8.511   3.635 131.140  0.00  0.00    -0.002 C 
ATOM      9  C   LIG A   1      -7.268   4.490 131.456  0.00  0.00    +0.005 C 
ATOM     10  C   LIG A   1      -6.405   3.697 132.428  0.00  0.00    +0.008 C 
ATOM     11  C   LIG A   1      -9.232   3.176 133.574  0.00  0.00    +0.012 C 
ATOM     12  C   LIG A   1      -6.652  -1.294 130.820  0.00  0.00    -0.019 C 
ATOM     13  C   LIG A   1      -5.128  -1.290 130.710  0.00  0.00    +0.005 C 
ATOM     14  C   LIG A   1      -4.629  -2.491 129.848  0.00  0.00    +0.005 C 
ATOM     15  C   LIG A   1      -5.242  -2.506 128.428  0.00  0.00    +0.015 C 
ATOM     16  C   LIG A   1      -5.029  -3.778 130.642  0.00  0.00    +0.183 C 
ATOM     17  C   LIG A   1      -6.557  -3.878 130.770  0.00  0.00    +0.046 C 
ATOM     18  C   LIG A   1      -7.224  -2.615 131.338  0.00  0.00    +0.011 C 
ATOM     19  C   LIG A   1      -3.100  -2.422 129.644  0.00  0.00    +0.015 C 
ATOM     20  C   LIG A   1      -4.548   0.080 130.356  0.00  0.00    +0.005 C 
ATOM     21  C   LIG A   1      -4.983   1.068 131.434  0.00  0.00    +0.005 C 
ATOM     22  C   LIG A   1      -7.483  -0.509 129.833  0.00  0.00    +0.015 C 
ENDROOT
BRANCH   8  23
ATOM     23  C   LIG A   1      -9.758   4.512 130.803  0.00  0.00    -0.010 C 
ATOM     24  C   LIG A   1     -10.925   3.680 130.253  0.00  0.00    +0.008 C 
BRANCH  23  25
ATOM     25  C   LIG A   1      -9.377   5.640 129.789  0.00  0.00    +0.003 C 
BRANCH  25  26
ATOM     26  C   LIG A   1      -9.736   7.049 130.278  0.00  0.00    +0.000 C 
BRANCH  26  27
ATOM     27  C   LIG A   1     -10.915   7.680 129.526  0.00  0.00    +0.003 C 
BRANCH  27  28
ATOM     28  C   LIG A   1     -12.257   6.979 129.839  0.00  0.00    -0.017 C 
ATOM     29  C   LIG A   1     -12.819   7.462 131.178  0.00  0.00    +0.007 C 
ATOM     30  C   LIG A   1     -13.307   7.199 128.744  0.00  0.00    +0.007 C 
ENDBRANCH  27  28
ENDBRANCH  26  27
ENDBRANCH  25  26
ENDBRANCH  23  25
ENDBRANCH   8  23
BRANCH  16  31
ATOM     31  O   LIG A   1      -4.523  -3.698 132.002  0.00  0.00    -0.458 OA
BRANCH  31  32
ATOM     32  C   LIG A   1      -4.837  -4.661 132.887  0.00  0.00    +0.335 C 
ATOM     33  O   LIG A   1      -4.500  -5.821 132.822  0.00  0.00    -0.245 OA
BRANCH  32  34
ATOM     34  C   LIG A   1      -5.593  -4.033 134.035  0.00  0.00    +0.029 C 
ATOM     35  C   LIG A   1      -6.605  -4.840 134.802  0.00  0.00    +0.051 C 
ATOM     36  C   LIG A   1      -5.322  -2.736 134.302  0.00  0.00    -0.020 C 
ATOM     37  C   LIG A   1      -5.919  -1.892 135.381  0.00  0.00    +0.035 C 
ENDBRANCH  32  34
ENDBRANCH  31  32
ENDBRANCH  16  31
TORSDOF 8
ENDMDL
