MODEL 1
REMARK VINA RESULT:      -6.3      0.000      0.000
REMARK  Name = NuBBE_474
REMARK  6 active torsions:
REMARK  status: ('A' for Active; 'I' for Inactive)
REMARK    1  A    between atoms: C_2  and  C_3
REMARK    2  A    between atoms: C_2  and  O_20
REMARK    3  A    between atoms: C_6  and  O_19
REMARK    4  A    between atoms: C_10  and  O_16
REMARK    5  A    between atoms: C_13  and  C_15
REMARK    6  A    between atoms: O_20  and  C_21
REMARK                            x       y       z     vdW  Elec       q    Type
REMARK                         _______ _______ _______ _____ _____    ______ ____
ROOT
ATOM      1  C   LIG A   1     -12.692   8.384 129.929  0.00  0.00    +0.077 C 
ATOM      2  C   LIG A   1     -12.905   7.911 131.170  0.00  0.00    +0.201 C 
ATOM      3  O   LIG A   1     -12.420   6.731 131.673  0.00  0.00    -0.470 OA
ATOM      4  C   LIG A   1     -11.938   5.826 130.679  0.00  0.00    +0.308 C 
ATOM      5  C   LIG A   1     -11.046   6.497 129.636  0.00  0.00    +0.071 C 
ATOM      6  C   LIG A   1     -11.826   7.634 128.939  0.00  0.00    +0.067 C 
ATOM      7  C   LIG A   1     -10.706   8.473 128.290  0.00  0.00    +0.123 C 
ATOM      8  C   LIG A   1      -9.402   8.146 129.025  0.00  0.00    +0.035 C 
ATOM      9  C   LIG A   1      -9.788   7.208 130.174  0.00  0.00    -0.002 C 
ATOM     10  C   LIG A   1      -8.636   6.284 130.546  0.00  0.00    +0.008 C 
ENDROOT
BRANCH   1  12
ATOM     11  O   LIG A   1     -13.886   9.768 128.395  0.00  0.00    -0.245 OA
ATOM     12  C   LIG A   1     -13.347   9.642 129.484  0.00  0.00    +0.338 C 
BRANCH  12  13
ATOM     13  O   LIG A   1     -13.226  10.614 130.421  0.00  0.00    -0.465 OA
ATOM     14  C   LIG A   1     -13.820  11.868 130.078  0.00  0.00    +0.280 C 
ENDBRANCH  12  13
ENDBRANCH   1  12
BRANCH   7  15
ATOM     15  O   LIG A   1     -10.568   8.076 126.926  0.00  0.00    -0.391 OA
ATOM     16  H   LIG A   1     -11.284   7.446 126.733  0.00  0.00    +0.210 HD
ENDBRANCH   7  15
BRANCH   4  17
ATOM     17  O   LIG A   1     -11.251   4.777 131.337  0.00  0.00    -0.357 OA
ATOM     18  H   LIG A   1     -11.953   4.293 131.805  0.00  0.00    +0.213 HD
ENDBRANCH   4  17
TORSDOF 4
ENDMDL
MODEL 2
REMARK VINA RESULT:      -5.7      2.578      4.380
REMARK  Name = NuBBE_474
REMARK  6 active torsions:
REMARK  status: ('A' for Active; 'I' for Inactive)
REMARK    1  A    between atoms: C_2  and  C_3
REMARK    2  A    between atoms: C_2  and  O_20
REMARK    3  A    between atoms: C_6  and  O_19
REMARK    4  A    between atoms: C_10  and  O_16
REMARK    5  A    between atoms: C_13  and  C_15
REMARK    6  A    between atoms: O_20  and  C_21
REMARK                            x       y       z     vdW  Elec       q    Type
REMARK                         _______ _______ _______ _____ _____    ______ ____
ROOT
ATOM      1  C   LIG A   1     -10.620   6.463 130.420  0.00  0.00    +0.077 C 
ATOM      2  C   LIG A   1      -9.944   7.483 129.861  0.00  0.00    +0.201 C 
ATOM      3  O   LIG A   1      -8.588   7.680 129.931  0.00  0.00    -0.470 OA
ATOM      4  C   LIG A   1      -7.937   6.911 130.943  0.00  0.00    +0.308 C 
ATOM      5  C   LIG A   1      -8.378   5.448 130.966  0.00  0.00    +0.071 C 
ATOM      6  C   LIG A   1      -9.906   5.369 131.184  0.00  0.00    +0.067 C 
ATOM      7  C   LIG A   1     -10.244   3.933 130.733  0.00  0.00    +0.123 C 
ATOM      8  C   LIG A   1      -9.104   3.455 129.828  0.00  0.00    +0.035 C 
ATOM      9  C   LIG A   1      -8.165   4.654 129.661  0.00  0.00    -0.002 C 
ATOM     10  C   LIG A   1      -6.732   4.205 129.407  0.00  0.00    +0.008 C 
ENDROOT
BRANCH   1  12
ATOM     11  O   LIG A   1     -12.837   6.697 131.272  0.00  0.00    -0.245 OA
ATOM     12  C   LIG A   1     -12.104   6.413 130.337  0.00  0.00    +0.338 C 
BRANCH  12  13
ATOM     13  O   LIG A   1     -12.511   5.981 129.119  0.00  0.00    -0.465 OA
ATOM     14  C   LIG A   1     -13.390   6.866 128.421  0.00  0.00    +0.280 C 
ENDBRANCH  12  13
ENDBRANCH   1  12
BRANCH   7  15
ATOM     15  O   LIG A   1     -10.292   3.091 131.884  0.00  0.00    -0.391 OA
ATOM     16  H   LIG A   1     -11.015   2.454 131.749  0.00  0.00    +0.210 HD
ENDBRANCH   7  15
BRANCH   4  17
ATOM     17  O   LIG A   1      -6.539   7.018 130.744  0.00  0.00    -0.357 OA
ATOM     18  H   LIG A   1      -6.189   6.173 131.076  0.00  0.00    +0.213 HD
ENDBRANCH   4  17
TORSDOF 4
ENDMDL
MODEL 3
REMARK VINA RESULT:      -5.7      1.798      4.935
REMARK  Name = NuBBE_474
REMARK  6 active torsions:
REMARK  status: ('A' for Active; 'I' for Inactive)
REMARK    1  A    between atoms: C_2  and  C_3
REMARK    2  A    between atoms: C_2  and  O_20
REMARK    3  A    between atoms: C_6  and  O_19
REMARK    4  A    between atoms: C_10  and  O_16
REMARK    5  A    between atoms: C_13  and  C_15
REMARK    6  A    between atoms: O_20  and  C_21
REMARK                            x       y       z     vdW  Elec       q    Type
REMARK                         _______ _______ _______ _____ _____    ______ ____
ROOT
ATOM      1  C   LIG A   1     -10.626   6.724 129.384  0.00  0.00    +0.077 C 
ATOM      2  C   LIG A   1     -10.238   6.900 128.109  0.00  0.00    +0.201 C 
ATOM      3  O   LIG A   1     -11.068   7.127 127.040  0.00  0.00    -0.470 OA
ATOM      4  C   LIG A   1     -12.440   6.823 127.293  0.00  0.00    +0.308 C 
ATOM      5  C   LIG A   1     -12.943   7.370 128.628  0.00  0.00    +0.071 C 
ATOM      6  C   LIG A   1     -12.086   6.799 129.780  0.00  0.00    +0.067 C 
ATOM      7  C   LIG A   1     -12.394   7.759 130.947  0.00  0.00    +0.123 C 
ATOM      8  C   LIG A   1     -12.934   9.059 130.343  0.00  0.00    +0.035 C 
ATOM      9  C   LIG A   1     -12.828   8.896 128.823  0.00  0.00    -0.002 C 
ATOM     10  C   LIG A   1     -13.887   9.719 128.102  0.00  0.00    +0.008 C 
ENDROOT
BRANCH   1  12
ATOM     11  O   LIG A   1      -9.767   5.497 131.242  0.00  0.00    -0.245 OA
ATOM     12  C   LIG A   1      -9.625   6.404 130.435  0.00  0.00    +0.338 C 
BRANCH  12  13
ATOM     13  O   LIG A   1      -8.580   7.265 130.394  0.00  0.00    -0.465 OA
ATOM     14  C   LIG A   1      -7.431   6.866 131.145  0.00  0.00    +0.280 C 
ENDBRANCH  12  13
ENDBRANCH   1  12
BRANCH   7  15
ATOM     15  O   LIG A   1     -13.415   7.179 131.759  0.00  0.00    -0.391 OA
ATOM     16  H   LIG A   1     -13.160   6.256 131.931  0.00  0.00    +0.210 HD
ENDBRANCH   7  15
BRANCH   4  17
ATOM     17  O   LIG A   1     -13.207   7.329 126.215  0.00  0.00    -0.357 OA
ATOM     18  H   LIG A   1     -13.011   8.282 126.214  0.00  0.00    +0.213 HD
ENDBRANCH   4  17
TORSDOF 4
ENDMDL
MODEL 4
REMARK VINA RESULT:      -5.5     10.282     12.601
REMARK  Name = NuBBE_474
REMARK  6 active torsions:
REMARK  status: ('A' for Active; 'I' for Inactive)
REMARK    1  A    between atoms: C_2  and  C_3
REMARK    2  A    between atoms: C_2  and  O_20
REMARK    3  A    between atoms: C_6  and  O_19
REMARK    4  A    between atoms: C_10  and  O_16
REMARK    5  A    between atoms: C_13  and  C_15
REMARK    6  A    between atoms: O_20  and  C_21
REMARK                            x       y       z     vdW  Elec       q    Type
REMARK                         _______ _______ _______ _____ _____    ______ ____
ROOT
ATOM      1  C   LIG A   1      -6.549  -2.106 125.390  0.00  0.00    +0.077 C 
ATOM      2  C   LIG A   1      -5.478  -1.690 126.088  0.00  0.00    +0.201 C 
ATOM      3  O   LIG A   1      -5.508  -1.064 127.309  0.00  0.00    -0.470 OA
ATOM      4  C   LIG A   1      -6.791  -0.550 127.669  0.00  0.00    +0.308 C 
ATOM      5  C   LIG A   1      -7.928  -1.541 127.424  0.00  0.00    +0.071 C 
ATOM      6  C   LIG A   1      -7.953  -1.944 125.932  0.00  0.00    +0.067 C 
ATOM      7  C   LIG A   1      -8.801  -3.233 125.938  0.00  0.00    +0.123 C 
ATOM      8  C   LIG A   1      -8.775  -3.793 127.364  0.00  0.00    +0.035 C 
ATOM      9  C   LIG A   1      -7.819  -2.895 128.155  0.00  0.00    -0.002 C 
ATOM     10  C   LIG A   1      -8.186  -2.859 129.633  0.00  0.00    +0.008 C 
ENDROOT
BRANCH   1  12
ATOM     11  O   LIG A   1      -6.725  -2.135 123.010  0.00  0.00    -0.245 OA
ATOM     12  C   LIG A   1      -6.378  -2.699 124.037  0.00  0.00    +0.338 C 
BRANCH  12  13
ATOM     13  O   LIG A   1      -5.833  -3.937 124.111  0.00  0.00    -0.465 OA
ATOM     14  C   LIG A   1      -4.524  -4.061 123.551  0.00  0.00    +0.280 C 
ENDBRANCH  12  13
ENDBRANCH   1  12
BRANCH   7  15
ATOM     15  O   LIG A   1     -10.147  -2.897 125.608  0.00  0.00    -0.391 OA
ATOM     16  H   LIG A   1     -10.261  -1.946 125.782  0.00  0.00    +0.210 HD
ENDBRANCH   7  15
BRANCH   4  17
ATOM     17  O   LIG A   1      -6.741  -0.161 129.030  0.00  0.00    -0.357 OA
ATOM     18  H   LIG A   1      -6.709  -1.003 129.515  0.00  0.00    +0.213 HD
ENDBRANCH   4  17
TORSDOF 4
ENDMDL
MODEL 5
REMARK VINA RESULT:      -5.4      9.238     10.903
REMARK  Name = NuBBE_474
REMARK  6 active torsions:
REMARK  status: ('A' for Active; 'I' for Inactive)
REMARK    1  A    between atoms: C_2  and  C_3
REMARK    2  A    between atoms: C_2  and  O_20
REMARK    3  A    between atoms: C_6  and  O_19
REMARK    4  A    between atoms: C_10  and  O_16
REMARK    5  A    between atoms: C_13  and  C_15
REMARK    6  A    between atoms: O_20  and  C_21
REMARK                            x       y       z     vdW  Elec       q    Type
REMARK                         _______ _______ _______ _____ _____    ______ ____
ROOT
ATOM      1  C   LIG A   1      -8.334   0.552 123.363  0.00  0.00    +0.077 C 
ATOM      2  C   LIG A   1      -9.569   0.265 122.914  0.00  0.00    +0.201 C 
ATOM      3  O   LIG A   1     -10.143  -0.981 122.883  0.00  0.00    -0.470 OA
ATOM      4  C   LIG A   1      -9.216  -2.055 123.043  0.00  0.00    +0.308 C 
ATOM      5  C   LIG A   1      -8.223  -1.830 124.183  0.00  0.00    +0.071 C 
ATOM      6  C   LIG A   1      -7.435  -0.523 123.936  0.00  0.00    +0.067 C 
ATOM      7  C   LIG A   1      -6.849  -0.207 125.327  0.00  0.00    +0.123 C 
ATOM      8  C   LIG A   1      -7.690  -0.959 126.363  0.00  0.00    +0.035 C 
ATOM      9  C   LIG A   1      -8.834  -1.616 125.583  0.00  0.00    -0.002 C 
ATOM     10  C   LIG A   1      -9.319  -2.884 126.274  0.00  0.00    +0.008 C 
ENDROOT
BRANCH   1  12
ATOM     11  O   LIG A   1      -6.713   2.203 122.781  0.00  0.00    -0.245 OA
ATOM     12  C   LIG A   1      -7.803   1.937 123.263  0.00  0.00    +0.338 C 
BRANCH  12  13
ATOM     13  O   LIG A   1      -8.665   2.831 123.806  0.00  0.00    -0.465 OA
ATOM     14  C   LIG A   1      -8.213   3.462 125.006  0.00  0.00    +0.280 C 
ENDBRANCH  12  13
ENDBRANCH   1  12
BRANCH   7  15
ATOM     15  O   LIG A   1      -5.512  -0.703 125.383  0.00  0.00    -0.391 OA
ATOM     16  H   LIG A   1      -4.918   0.033 125.151  0.00  0.00    +0.210 HD
ENDBRANCH   7  15
BRANCH   4  17
ATOM     17  O   LIG A   1      -9.954  -3.247 123.241  0.00  0.00    -0.357 OA
ATOM     18  H   LIG A   1      -9.489  -3.905 122.697  0.00  0.00    +0.213 HD
ENDBRANCH   4  17
TORSDOF 4
ENDMDL
MODEL 6
REMARK VINA RESULT:      -5.4      2.364      3.820
REMARK  Name = NuBBE_474
REMARK  6 active torsions:
REMARK  status: ('A' for Active; 'I' for Inactive)
REMARK    1  A    between atoms: C_2  and  C_3
REMARK    2  A    between atoms: C_2  and  O_20
REMARK    3  A    between atoms: C_6  and  O_19
REMARK    4  A    between atoms: C_10  and  O_16
REMARK    5  A    between atoms: C_13  and  C_15
REMARK    6  A    between atoms: O_20  and  C_21
REMARK                            x       y       z     vdW  Elec       q    Type
REMARK                         _______ _______ _______ _____ _____    ______ ____
ROOT
ATOM      1  C   LIG A   1     -10.532   6.164 129.778  0.00  0.00    +0.077 C 
ATOM      2  C   LIG A   1     -11.516   5.255 129.901  0.00  0.00    +0.201 C 
ATOM      3  O   LIG A   1     -11.361   3.955 130.312  0.00  0.00    -0.470 OA
ATOM      4  C   LIG A   1     -10.011   3.491 130.282  0.00  0.00    +0.308 C 
ATOM      5  C   LIG A   1      -9.019   4.481 130.889  0.00  0.00    +0.071 C 
ATOM      6  C   LIG A   1      -9.100   5.827 130.133  0.00  0.00    +0.067 C 
ATOM      7  C   LIG A   1      -8.423   6.811 131.109  0.00  0.00    +0.123 C 
ATOM      8  C   LIG A   1      -8.467   6.179 132.504  0.00  0.00    +0.035 C 
ATOM      9  C   LIG A   1      -9.271   4.883 132.356  0.00  0.00    -0.002 C 
ATOM     10  C   LIG A   1      -8.848   3.847 133.389  0.00  0.00    +0.008 C 
ENDROOT
BRANCH   1  12
ATOM     11  O   LIG A   1     -11.636   8.280 129.751  0.00  0.00    -0.245 OA
ATOM     12  C   LIG A   1     -10.827   7.519 129.242  0.00  0.00    +0.338 C 
BRANCH  12  13
ATOM     13  O   LIG A   1     -10.115   7.763 128.114  0.00  0.00    -0.465 OA
ATOM     14  C   LIG A   1     -10.886   7.847 126.914  0.00  0.00    +0.280 C 
ENDBRANCH  12  13
ENDBRANCH   1  12
BRANCH   7  15
ATOM     15  O   LIG A   1      -7.058   6.969 130.726  0.00  0.00    -0.391 OA
ATOM     16  H   LIG A   1      -7.046   7.209 129.783  0.00  0.00    +0.210 HD
ENDBRANCH   7  15
BRANCH   4  17
ATOM     17  O   LIG A   1      -9.961   2.245 130.954  0.00  0.00    -0.357 OA
ATOM     18  H   LIG A   1     -10.416   1.633 130.350  0.00  0.00    +0.213 HD
ENDBRANCH   4  17
TORSDOF 4
ENDMDL
MODEL 7
REMARK VINA RESULT:      -5.4      8.196      9.883
REMARK  Name = NuBBE_474
REMARK  6 active torsions:
REMARK  status: ('A' for Active; 'I' for Inactive)
REMARK    1  A    between atoms: C_2  and  C_3
REMARK    2  A    between atoms: C_2  and  O_20
REMARK    3  A    between atoms: C_6  and  O_19
REMARK    4  A    between atoms: C_10  and  O_16
REMARK    5  A    between atoms: C_13  and  C_15
REMARK    6  A    between atoms: O_20  and  C_21
REMARK                            x       y       z     vdW  Elec       q    Type
REMARK                         _______ _______ _______ _____ _____    ______ ____
ROOT
ATOM      1  C   LIG A   1      -8.065   1.803 124.858  0.00  0.00    +0.077 C 
ATOM      2  C   LIG A   1      -6.924   1.162 125.167  0.00  0.00    +0.201 C 
ATOM      3  O   LIG A   1      -6.815  -0.162 125.510  0.00  0.00    -0.470 OA
ATOM      4  C   LIG A   1      -8.053  -0.777 125.866  0.00  0.00    +0.308 C 
ATOM      5  C   LIG A   1      -9.188  -0.454 124.895  0.00  0.00    +0.071 C 
ATOM      6  C   LIG A   1      -9.393   1.076 124.826  0.00  0.00    +0.067 C 
ATOM      7  C   LIG A   1     -10.201   1.256 123.525  0.00  0.00    +0.123 C 
ATOM      8  C   LIG A   1      -9.981   0.005 122.669  0.00  0.00    +0.035 C 
ATOM      9  C   LIG A   1      -8.955  -0.848 123.422  0.00  0.00    -0.002 C 
ATOM     10  C   LIG A   1      -9.131  -2.329 123.116  0.00  0.00    +0.008 C 
ENDROOT
BRANCH   1  12
ATOM     11  O   LIG A   1      -8.777   4.061 125.164  0.00  0.00    -0.245 OA
ATOM     12  C   LIG A   1      -8.054   3.264 124.584  0.00  0.00    +0.338 C 
BRANCH  12  13
ATOM     13  O   LIG A   1      -7.177   3.569 123.597  0.00  0.00    -0.465 OA
ATOM     14  C   LIG A   1      -6.046   4.343 124.003  0.00  0.00    +0.280 C 
ENDBRANCH  12  13
ENDBRANCH   1  12
BRANCH   7  15
ATOM     15  O   LIG A   1     -11.587   1.341 123.855  0.00  0.00    -0.391 OA
ATOM     16  H   LIG A   1     -11.698   2.103 124.450  0.00  0.00    +0.210 HD
ENDBRANCH   7  15
BRANCH   4  17
ATOM     17  O   LIG A   1      -7.839  -2.174 125.952  0.00  0.00    -0.357 OA
ATOM     18  H   LIG A   1      -6.873  -2.261 126.024  0.00  0.00    +0.213 HD
ENDBRANCH   4  17
TORSDOF 4
ENDMDL
MODEL 8
REMARK VINA RESULT:      -5.3      9.341     10.914
REMARK  Name = NuBBE_474
REMARK  6 active torsions:
REMARK  status: ('A' for Active; 'I' for Inactive)
REMARK    1  A    between atoms: C_2  and  C_3
REMARK    2  A    between atoms: C_2  and  O_20
REMARK    3  A    between atoms: C_6  and  O_19
REMARK    4  A    between atoms: C_10  and  O_16
REMARK    5  A    between atoms: C_13  and  C_15
REMARK    6  A    between atoms: O_20  and  C_21
REMARK                            x       y       z     vdW  Elec       q    Type
REMARK                         _______ _______ _______ _____ _____    ______ ____
ROOT
ATOM      1  C   LIG A   1      -8.510   0.404 124.939  0.00  0.00    +0.077 C 
ATOM      2  C   LIG A   1      -7.444   0.895 125.596  0.00  0.00    +0.201 C 
ATOM      3  O   LIG A   1      -6.430   0.154 126.149  0.00  0.00    -0.470 OA
ATOM      4  C   LIG A   1      -6.735  -1.232 126.297  0.00  0.00    +0.308 C 
ATOM      5  C   LIG A   1      -7.377  -1.845 125.052  0.00  0.00    +0.071 C 
ATOM      6  C   LIG A   1      -8.676  -1.083 124.710  0.00  0.00    +0.067 C 
ATOM      7  C   LIG A   1      -8.938  -1.489 123.244  0.00  0.00    +0.123 C 
ATOM      8  C   LIG A   1      -7.610  -1.982 122.660  0.00  0.00    +0.035 C 
ATOM      9  C   LIG A   1      -6.557  -1.752 123.749  0.00  0.00    -0.002 C 
ATOM     10  C   LIG A   1      -5.413  -2.751 123.635  0.00  0.00    +0.008 C 
ENDROOT
BRANCH   1  12
ATOM     11  O   LIG A   1     -10.767   1.023 124.472  0.00  0.00    -0.245 OA
ATOM     12  C   LIG A   1      -9.581   1.317 124.460  0.00  0.00    +0.338 C 
BRANCH  12  13
ATOM     13  O   LIG A   1      -9.060   2.475 123.985  0.00  0.00    -0.465 OA
ATOM     14  C   LIG A   1      -8.901   2.535 122.566  0.00  0.00    +0.280 C 
ENDBRANCH  12  13
ENDBRANCH   1  12
BRANCH   7  15
ATOM     15  O   LIG A   1      -9.869  -2.570 123.229  0.00  0.00    -0.391 OA
ATOM     16  H   LIG A   1     -10.683  -2.260 123.661  0.00  0.00    +0.210 HD
ENDBRANCH   7  15
BRANCH   4  17
ATOM     17  O   LIG A   1      -5.539  -1.910 126.637  0.00  0.00    -0.357 OA
ATOM     18  H   LIG A   1      -5.570  -2.725 126.106  0.00  0.00    +0.213 HD
ENDBRANCH   4  17
TORSDOF 4
ENDMDL
MODEL 9
REMARK VINA RESULT:      -5.3      9.847     11.918
REMARK  Name = NuBBE_474
REMARK  6 active torsions:
REMARK  status: ('A' for Active; 'I' for Inactive)
REMARK    1  A    between atoms: C_2  and  C_3
REMARK    2  A    between atoms: C_2  and  O_20
REMARK    3  A    between atoms: C_6  and  O_19
REMARK    4  A    between atoms: C_10  and  O_16
REMARK    5  A    between atoms: C_13  and  C_15
REMARK    6  A    between atoms: O_20  and  C_21
REMARK                            x       y       z     vdW  Elec       q    Type
REMARK                         _______ _______ _______ _____ _____    ______ ____
ROOT
ATOM      1  C   LIG A   1      -6.950  -0.341 125.389  0.00  0.00    +0.077 C 
ATOM      2  C   LIG A   1      -8.130   0.284 125.555  0.00  0.00    +0.201 C 
ATOM      3  O   LIG A   1      -9.191   0.239 124.685  0.00  0.00    -0.470 OA
ATOM      4  C   LIG A   1      -8.859  -0.244 123.384  0.00  0.00    +0.308 C 
ATOM      5  C   LIG A   1      -7.994  -1.504 123.411  0.00  0.00    +0.071 C 
ATOM      6  C   LIG A   1      -6.687  -1.220 124.185  0.00  0.00    +0.067 C 
ATOM      7  C   LIG A   1      -6.169  -2.636 124.516  0.00  0.00    +0.123 C 
ATOM      8  C   LIG A   1      -7.359  -3.595 124.420  0.00  0.00    +0.035 C 
ATOM      9  C   LIG A   1      -8.588  -2.720 124.150  0.00  0.00    -0.002 C 
ATOM     10  C   LIG A   1      -9.655  -3.485 123.377  0.00  0.00    +0.008 C 
ENDROOT
BRANCH   1  12
ATOM     11  O   LIG A   1      -5.852  -0.642 127.486  0.00  0.00    -0.245 OA
ATOM     12  C   LIG A   1      -5.852  -0.141 126.372  0.00  0.00    +0.338 C 
BRANCH  12  13
ATOM     13  O   LIG A   1      -4.899   0.685 125.878  0.00  0.00    -0.465 OA
ATOM     14  C   LIG A   1      -4.757   1.931 126.564  0.00  0.00    +0.280 C 
ENDBRANCH  12  13
ENDBRANCH   1  12
BRANCH   7  15
ATOM     15  O   LIG A   1      -5.205  -3.010 123.532  0.00  0.00    -0.391 OA
ATOM     16  H   LIG A   1      -4.324  -2.895 123.929  0.00  0.00    +0.210 HD
ENDBRANCH   7  15
BRANCH   4  17
ATOM     17  O   LIG A   1     -10.066  -0.472 122.679  0.00  0.00    -0.357 OA
ATOM     18  H   LIG A   1     -10.413  -1.294 123.066  0.00  0.00    +0.213 HD
ENDBRANCH   4  17
TORSDOF 4
ENDMDL
