MODEL 1
REMARK VINA RESULT:      -7.1      0.000      0.000
REMARK  Name = NuBBE_1247
REMARK  7 active torsions:
REMARK  status: ('A' for Active; 'I' for Inactive)
REMARK    1  A    between atoms: C_4  and  C_14
REMARK    2  A    between atoms: C_8  and  O_9
REMARK    3  A    between atoms: C_14  and  C_15
REMARK    4  A    between atoms: C_15  and  C_16
REMARK    5  A    between atoms: C_16  and  O_17
REMARK    6  A    between atoms: C_16  and  C_18
REMARK    7  A    between atoms: C_16  and  C_19
REMARK                            x       y       z     vdW  Elec       q    Type
REMARK                         _______ _______ _______ _____ _____    ______ ____
ROOT
ATOM      1  O   LIG A   1     -13.520   7.214 131.451  0.00  0.00    -0.287 OA
ATOM      2  C   LIG A   1     -12.387   7.017 131.036  0.00  0.00    +0.190 A 
ATOM      3  C   LIG A   1     -11.310   6.579 131.960  0.00  0.00    +0.072 A 
ATOM      4  C   LIG A   1     -10.078   6.329 131.481  0.00  0.00    +0.020 A 
ATOM      5  N   LIG A   1      -9.772   6.462 130.143  0.00  0.00    -0.358 N 
ATOM      6  C   LIG A   1     -10.717   6.901 129.203  0.00  0.00    +0.054 A 
ATOM      7  C   LIG A   1     -10.349   7.140 127.875  0.00  0.00    +0.071 A 
ATOM      8  C   LIG A   1     -11.277   7.683 126.987  0.00  0.00    +0.119 A 
ATOM      9  C   LIG A   1     -12.577   7.976 127.390  0.00  0.00    +0.046 A 
ATOM     10  C   LIG A   1     -12.958   7.738 128.710  0.00  0.00    +0.017 A 
ATOM     11  C   LIG A   1     -12.024   7.218 129.612  0.00  0.00    +0.045 A 
ATOM     12  H   LIG A   1      -8.891   6.085 129.811  0.00  0.00    +0.166 HD
ENDROOT
BRANCH   8  13
ATOM     13  O   LIG A   1     -10.937   7.969 125.697  0.00  0.00    -0.507 OA
ATOM     14  H   LIG A   1     -10.891   8.933 125.588  0.00  0.00    +0.292 HD
ENDBRANCH   8  13
BRANCH   4  15
ATOM     15  C   LIG A   1      -8.973   5.863 132.409  0.00  0.00    +0.056 C 
BRANCH  15  16
ATOM     16  C   LIG A   1      -8.469   4.452 132.052  0.00  0.00    +0.040 C 
BRANCH  16  17
ATOM     17  C   LIG A   1      -8.858   3.367 133.081  0.00  0.00    +0.061 C 
ATOM     18  C   LIG A   1      -9.605   2.214 132.399  0.00  0.00    +0.041 C 
ATOM     19  C   LIG A   1      -7.641   2.806 133.819  0.00  0.00    +0.041 C 
BRANCH  17  20
ATOM     20  O   LIG A   1      -9.724   3.946 134.059  0.00  0.00    -0.389 OA
ATOM     21  H   LIG A   1     -10.572   4.154 133.629  0.00  0.00    +0.210 HD
ENDBRANCH  17  20
ENDBRANCH  16  17
ENDBRANCH  15  16
ENDBRANCH   4  15
TORSDOF 5
ENDMDL
MODEL 2
REMARK VINA RESULT:      -6.6      9.523     11.422
REMARK  Name = NuBBE_1247
REMARK  7 active torsions:
REMARK  status: ('A' for Active; 'I' for Inactive)
REMARK    1  A    between atoms: C_4  and  C_14
REMARK    2  A    between atoms: C_8  and  O_9
REMARK    3  A    between atoms: C_14  and  C_15
REMARK    4  A    between atoms: C_15  and  C_16
REMARK    5  A    between atoms: C_16  and  O_17
REMARK    6  A    between atoms: C_16  and  C_18
REMARK    7  A    between atoms: C_16  and  C_19
REMARK                            x       y       z     vdW  Elec       q    Type
REMARK                         _______ _______ _______ _____ _____    ______ ____
ROOT
ATOM      1  O   LIG A   1     -11.002   0.134 122.591  0.00  0.00    -0.287 OA
ATOM      2  C   LIG A   1      -9.821   0.334 122.835  0.00  0.00    +0.190 A 
ATOM      3  C   LIG A   1      -9.245   1.697 122.711  0.00  0.00    +0.072 A 
ATOM      4  C   LIG A   1      -7.954   1.908 123.020  0.00  0.00    +0.020 A 
ATOM      5  N   LIG A   1      -7.130   0.892 123.458  0.00  0.00    -0.358 N 
ATOM      6  C   LIG A   1      -7.578  -0.432 123.574  0.00  0.00    +0.054 A 
ATOM      7  C   LIG A   1      -6.693  -1.462 123.906  0.00  0.00    +0.071 A 
ATOM      8  C   LIG A   1      -7.137  -2.784 123.905  0.00  0.00    +0.119 A 
ATOM      9  C   LIG A   1      -8.457  -3.102 123.597  0.00  0.00    +0.046 A 
ATOM     10  C   LIG A   1      -9.352  -2.084 123.270  0.00  0.00    +0.017 A 
ATOM     11  C   LIG A   1      -8.905  -0.759 123.243  0.00  0.00    +0.045 A 
ATOM     12  H   LIG A   1      -6.228   1.139 123.851  0.00  0.00    +0.166 HD
ENDROOT
BRANCH   8  13
ATOM     13  O   LIG A   1      -6.288  -3.816 124.181  0.00  0.00    -0.507 OA
ATOM     14  H   LIG A   1      -5.612  -3.511 124.807  0.00  0.00    +0.292 HD
ENDBRANCH   8  13
BRANCH   4  15
ATOM     15  C   LIG A   1      -7.356   3.299 122.917  0.00  0.00    +0.056 C 
BRANCH  15  16
ATOM     16  C   LIG A   1      -7.189   3.755 121.456  0.00  0.00    +0.040 C 
BRANCH  16  17
ATOM     17  C   LIG A   1      -5.721   3.989 121.035  0.00  0.00    +0.061 C 
ATOM     18  C   LIG A   1      -5.647   4.888 119.794  0.00  0.00    +0.041 C 
ATOM     19  C   LIG A   1      -4.890   4.616 122.156  0.00  0.00    +0.041 C 
BRANCH  17  20
ATOM     20  O   LIG A   1      -5.126   2.729 120.712  0.00  0.00    -0.389 OA
ATOM     21  H   LIG A   1      -5.840   2.082 120.578  0.00  0.00    +0.210 HD
ENDBRANCH  17  20
ENDBRANCH  16  17
ENDBRANCH  15  16
ENDBRANCH   4  15
TORSDOF 5
ENDMDL
MODEL 3
REMARK VINA RESULT:      -6.5      2.147      2.642
REMARK  Name = NuBBE_1247
REMARK  7 active torsions:
REMARK  status: ('A' for Active; 'I' for Inactive)
REMARK    1  A    between atoms: C_4  and  C_14
REMARK    2  A    between atoms: C_8  and  O_9
REMARK    3  A    between atoms: C_14  and  C_15
REMARK    4  A    between atoms: C_15  and  C_16
REMARK    5  A    between atoms: C_16  and  O_17
REMARK    6  A    between atoms: C_16  and  C_18
REMARK    7  A    between atoms: C_16  and  C_19
REMARK                            x       y       z     vdW  Elec       q    Type
REMARK                         _______ _______ _______ _____ _____    ______ ____
ROOT
ATOM      1  O   LIG A   1     -13.143   6.855 131.566  0.00  0.00    -0.287 OA
ATOM      2  C   LIG A   1     -12.064   6.806 130.994  0.00  0.00    +0.190 A 
ATOM      3  C   LIG A   1     -10.812   6.590 131.762  0.00  0.00    +0.072 A 
ATOM      4  C   LIG A   1      -9.636   6.500 131.114  0.00  0.00    +0.020 A 
ATOM      5  N   LIG A   1      -9.547   6.597 129.741  0.00  0.00    -0.358 N 
ATOM      6  C   LIG A   1     -10.673   6.833 128.938  0.00  0.00    +0.054 A 
ATOM      7  C   LIG A   1     -10.539   7.046 127.562  0.00  0.00    +0.071 A 
ATOM      8  C   LIG A   1     -11.658   7.390 126.802  0.00  0.00    +0.119 A 
ATOM      9  C   LIG A   1     -12.917   7.509 127.384  0.00  0.00    +0.046 A 
ATOM     10  C   LIG A   1     -13.065   7.294 128.754  0.00  0.00    +0.017 A 
ATOM     11  C   LIG A   1     -11.942   6.975 129.525  0.00  0.00    +0.045 A 
ATOM     12  H   LIG A   1      -8.675   6.338 129.296  0.00  0.00    +0.166 HD
ENDROOT
BRANCH   8  13
ATOM     13  O   LIG A   1     -11.554   7.647 125.467  0.00  0.00    -0.507 OA
ATOM     14  H   LIG A   1     -12.370   8.074 125.161  0.00  0.00    +0.292 HD
ENDBRANCH   8  13
BRANCH   4  15
ATOM     15  C   LIG A   1      -8.351   6.260 131.883  0.00  0.00    +0.056 C 
BRANCH  15  16
ATOM     16  C   LIG A   1      -7.139   6.940 131.220  0.00  0.00    +0.040 C 
BRANCH  16  17
ATOM     17  C   LIG A   1      -5.944   5.992 130.974  0.00  0.00    +0.061 C 
ATOM     18  C   LIG A   1      -4.616   6.710 131.244  0.00  0.00    +0.041 C 
ATOM     19  C   LIG A   1      -6.017   4.734 131.841  0.00  0.00    +0.041 C 
BRANCH  17  20
ATOM     20  O   LIG A   1      -5.958   5.574 129.607  0.00  0.00    -0.389 OA
ATOM     21  H   LIG A   1      -5.387   6.175 129.099  0.00  0.00    +0.210 HD
ENDBRANCH  17  20
ENDBRANCH  16  17
ENDBRANCH  15  16
ENDBRANCH   4  15
TORSDOF 5
ENDMDL
MODEL 4
REMARK VINA RESULT:      -6.5      8.057      9.261
REMARK  Name = NuBBE_1247
REMARK  7 active torsions:
REMARK  status: ('A' for Active; 'I' for Inactive)
REMARK    1  A    between atoms: C_4  and  C_14
REMARK    2  A    between atoms: C_8  and  O_9
REMARK    3  A    between atoms: C_14  and  C_15
REMARK    4  A    between atoms: C_15  and  C_16
REMARK    5  A    between atoms: C_16  and  O_17
REMARK    6  A    between atoms: C_16  and  C_18
REMARK    7  A    between atoms: C_16  and  C_19
REMARK                            x       y       z     vdW  Elec       q    Type
REMARK                         _______ _______ _______ _____ _____    ______ ____
ROOT
ATOM      1  O   LIG A   1      -9.107   2.480 122.612  0.00  0.00    -0.287 OA
ATOM      2  C   LIG A   1      -7.986   2.934 122.786  0.00  0.00    +0.190 A 
ATOM      3  C   LIG A   1      -7.342   2.863 124.122  0.00  0.00    +0.072 A 
ATOM      4  C   LIG A   1      -6.093   3.333 124.289  0.00  0.00    +0.020 A 
ATOM      5  N   LIG A   1      -5.372   3.883 123.249  0.00  0.00    -0.358 N 
ATOM      6  C   LIG A   1      -5.912   4.021 121.961  0.00  0.00    +0.054 A 
ATOM      7  C   LIG A   1      -5.205   4.689 120.956  0.00  0.00    +0.071 A 
ATOM      8  C   LIG A   1      -5.808   4.913 119.718  0.00  0.00    +0.119 A 
ATOM      9  C   LIG A   1      -7.098   4.465 119.452  0.00  0.00    +0.046 A 
ATOM     10  C   LIG A   1      -7.812   3.792 120.443  0.00  0.00    +0.017 A 
ATOM     11  C   LIG A   1      -7.223   3.589 121.696  0.00  0.00    +0.045 A 
ATOM     12  H   LIG A   1      -4.381   4.047 123.384  0.00  0.00    +0.166 HD
ENDROOT
BRANCH   8  13
ATOM     13  O   LIG A   1      -5.163   5.600 118.732  0.00  0.00    -0.507 OA
ATOM     14  H   LIG A   1      -4.781   6.409 119.107  0.00  0.00    +0.292 HD
ENDBRANCH   8  13
BRANCH   4  15
ATOM     15  C   LIG A   1      -5.414   3.249 125.643  0.00  0.00    +0.056 C 
BRANCH  15  16
ATOM     16  C   LIG A   1      -3.996   3.850 125.623  0.00  0.00    +0.040 C 
BRANCH  16  17
ATOM     17  C   LIG A   1      -3.204   3.634 126.931  0.00  0.00    +0.061 C 
ATOM     18  C   LIG A   1      -3.945   2.666 127.862  0.00  0.00    +0.041 C 
ATOM     19  C   LIG A   1      -1.794   3.096 126.671  0.00  0.00    +0.041 C 
BRANCH  17  20
ATOM     20  O   LIG A   1      -3.068   4.888 127.603  0.00  0.00    -0.389 OA
ATOM     21  H   LIG A   1      -3.937   5.325 127.608  0.00  0.00    +0.210 HD
ENDBRANCH  17  20
ENDBRANCH  16  17
ENDBRANCH  15  16
ENDBRANCH   4  15
TORSDOF 5
ENDMDL
MODEL 5
REMARK VINA RESULT:      -6.5      1.972      3.128
REMARK  Name = NuBBE_1247
REMARK  7 active torsions:
REMARK  status: ('A' for Active; 'I' for Inactive)
REMARK    1  A    between atoms: C_4  and  C_14
REMARK    2  A    between atoms: C_8  and  O_9
REMARK    3  A    between atoms: C_14  and  C_15
REMARK    4  A    between atoms: C_15  and  C_16
REMARK    5  A    between atoms: C_16  and  O_17
REMARK    6  A    between atoms: C_16  and  C_18
REMARK    7  A    between atoms: C_16  and  C_19
REMARK                            x       y       z     vdW  Elec       q    Type
REMARK                         _______ _______ _______ _____ _____    ______ ____
ROOT
ATOM      1  O   LIG A   1      -7.373   7.257 130.744  0.00  0.00    -0.287 OA
ATOM      2  C   LIG A   1      -8.346   6.609 131.103  0.00  0.00    +0.190 A 
ATOM      3  C   LIG A   1      -8.199   5.509 132.089  0.00  0.00    +0.072 A 
ATOM      4  C   LIG A   1      -9.284   4.832 132.503  0.00  0.00    +0.020 A 
ATOM      5  N   LIG A   1     -10.551   5.127 132.044  0.00  0.00    -0.358 N 
ATOM      6  C   LIG A   1     -10.781   6.128 131.089  0.00  0.00    +0.054 A 
ATOM      7  C   LIG A   1     -12.058   6.327 130.553  0.00  0.00    +0.071 A 
ATOM      8  C   LIG A   1     -12.240   7.251 129.524  0.00  0.00    +0.119 A 
ATOM      9  C   LIG A   1     -11.176   7.999 129.028  0.00  0.00    +0.046 A 
ATOM     10  C   LIG A   1      -9.899   7.814 129.556  0.00  0.00    +0.017 A 
ATOM     11  C   LIG A   1      -9.706   6.870 130.570  0.00  0.00    +0.045 A 
ATOM     12  H   LIG A   1     -11.344   4.717 132.524  0.00  0.00    +0.166 HD
ENDROOT
BRANCH   8  13
ATOM     13  O   LIG A   1     -13.464   7.437 128.950  0.00  0.00    -0.507 OA
ATOM     14  H   LIG A   1     -13.435   7.122 128.032  0.00  0.00    +0.292 HD
ENDBRANCH   8  13
BRANCH   4  15
ATOM     15  C   LIG A   1      -9.152   3.717 133.524  0.00  0.00    +0.056 C 
BRANCH  15  16
ATOM     16  C   LIG A   1      -8.392   2.500 132.964  0.00  0.00    +0.040 C 
BRANCH  16  17
ATOM     17  C   LIG A   1      -9.168   1.723 131.876  0.00  0.00    +0.061 C 
ATOM     18  C   LIG A   1      -8.734   2.170 130.475  0.00  0.00    +0.041 C 
ATOM     19  C   LIG A   1      -8.976   0.210 131.999  0.00  0.00    +0.041 C 
BRANCH  17  20
ATOM     20  O   LIG A   1     -10.564   1.992 132.022  0.00  0.00    -0.389 OA
ATOM     21  H   LIG A   1     -10.681   2.954 132.104  0.00  0.00    +0.210 HD
ENDBRANCH  17  20
ENDBRANCH  16  17
ENDBRANCH  15  16
ENDBRANCH   4  15
TORSDOF 5
ENDMDL
MODEL 6
REMARK VINA RESULT:      -6.5      2.045      6.585
REMARK  Name = NuBBE_1247
REMARK  7 active torsions:
REMARK  status: ('A' for Active; 'I' for Inactive)
REMARK    1  A    between atoms: C_4  and  C_14
REMARK    2  A    between atoms: C_8  and  O_9
REMARK    3  A    between atoms: C_14  and  C_15
REMARK    4  A    between atoms: C_15  and  C_16
REMARK    5  A    between atoms: C_16  and  O_17
REMARK    6  A    between atoms: C_16  and  C_18
REMARK    7  A    between atoms: C_16  and  C_19
REMARK                            x       y       z     vdW  Elec       q    Type
REMARK                         _______ _______ _______ _____ _____    ______ ____
ROOT
ATOM      1  O   LIG A   1      -7.483   7.253 130.720  0.00  0.00    -0.287 OA
ATOM      2  C   LIG A   1      -8.452   6.535 130.917  0.00  0.00    +0.190 A 
ATOM      3  C   LIG A   1      -9.822   7.013 130.602  0.00  0.00    +0.072 A 
ATOM      4  C   LIG A   1     -10.875   6.197 130.787  0.00  0.00    +0.020 A 
ATOM      5  N   LIG A   1     -10.729   4.910 131.261  0.00  0.00    -0.358 N 
ATOM      6  C   LIG A   1      -9.477   4.385 131.615  0.00  0.00    +0.054 A 
ATOM      7  C   LIG A   1      -9.372   3.121 132.204  0.00  0.00    +0.071 A 
ATOM      8  C   LIG A   1      -8.130   2.667 132.650  0.00  0.00    +0.119 A 
ATOM      9  C   LIG A   1      -6.983   3.441 132.504  0.00  0.00    +0.046 A 
ATOM     10  C   LIG A   1      -7.073   4.701 131.913  0.00  0.00    +0.017 A 
ATOM     11  C   LIG A   1      -8.320   5.172 131.488  0.00  0.00    +0.045 A 
ATOM     12  H   LIG A   1     -11.524   4.284 131.205  0.00  0.00    +0.166 HD
ENDROOT
BRANCH   8  13
ATOM     13  O   LIG A   1      -8.000   1.458 133.269  0.00  0.00    -0.507 OA
ATOM     14  H   LIG A   1      -8.868   1.024 133.302  0.00  0.00    +0.292 HD
ENDBRANCH   8  13
BRANCH   4  15
ATOM     15  C   LIG A   1     -12.278   6.665 130.452  0.00  0.00    +0.056 C 
BRANCH  15  16
ATOM     16  C   LIG A   1     -12.321   8.157 130.073  0.00  0.00    +0.040 C 
BRANCH  16  17
ATOM     17  C   LIG A   1     -12.668   8.419 128.590  0.00  0.00    +0.061 C 
ATOM     18  C   LIG A   1     -11.410   8.348 127.716  0.00  0.00    +0.041 C 
ATOM     19  C   LIG A   1     -13.704   7.427 128.056  0.00  0.00    +0.041 C 
BRANCH  17  20
ATOM     20  O   LIG A   1     -13.226   9.729 128.469  0.00  0.00    -0.389 OA
ATOM     21  H   LIG A   1     -12.736  10.323 129.063  0.00  0.00    +0.210 HD
ENDBRANCH  17  20
ENDBRANCH  16  17
ENDBRANCH  15  16
ENDBRANCH   4  15
TORSDOF 5
ENDMDL
MODEL 7
REMARK VINA RESULT:      -6.4      8.768     10.107
REMARK  Name = NuBBE_1247
REMARK  7 active torsions:
REMARK  status: ('A' for Active; 'I' for Inactive)
REMARK    1  A    between atoms: C_4  and  C_14
REMARK    2  A    between atoms: C_8  and  O_9
REMARK    3  A    between atoms: C_14  and  C_15
REMARK    4  A    between atoms: C_15  and  C_16
REMARK    5  A    between atoms: C_16  and  O_17
REMARK    6  A    between atoms: C_16  and  C_18
REMARK    7  A    between atoms: C_16  and  C_19
REMARK                            x       y       z     vdW  Elec       q    Type
REMARK                         _______ _______ _______ _____ _____    ______ ____
ROOT
ATOM      1  O   LIG A   1      -5.107   3.811 124.335  0.00  0.00    -0.287 OA
ATOM      2  C   LIG A   1      -6.020   3.613 123.547  0.00  0.00    +0.190 A 
ATOM      3  C   LIG A   1      -7.219   2.840 123.960  0.00  0.00    +0.072 A 
ATOM      4  C   LIG A   1      -8.233   2.664 123.094  0.00  0.00    +0.020 A 
ATOM      5  N   LIG A   1      -8.204   3.185 121.817  0.00  0.00    -0.358 N 
ATOM      6  C   LIG A   1      -7.099   3.900 121.330  0.00  0.00    +0.054 A 
ATOM      7  C   LIG A   1      -7.046   4.314 119.995  0.00  0.00    +0.071 A 
ATOM      8  C   LIG A   1      -5.890   4.924 119.505  0.00  0.00    +0.119 A 
ATOM      9  C   LIG A   1      -4.789   5.148 120.326  0.00  0.00    +0.046 A 
ATOM     10  C   LIG A   1      -4.831   4.745 121.660  0.00  0.00    +0.017 A 
ATOM     11  C   LIG A   1      -5.977   4.109 122.150  0.00  0.00    +0.045 A 
ATOM     12  H   LIG A   1      -9.061   3.183 121.277  0.00  0.00    +0.166 HD
ENDROOT
BRANCH   8  13
ATOM     13  O   LIG A   1      -5.790   5.300 118.198  0.00  0.00    -0.507 OA
ATOM     14  H   LIG A   1      -6.552   4.952 117.708  0.00  0.00    +0.292 HD
ENDBRANCH   8  13
BRANCH   4  15
ATOM     15  C   LIG A   1      -9.473   1.894 123.507  0.00  0.00    +0.056 C 
BRANCH  15  16
ATOM     16  C   LIG A   1      -9.584   0.538 122.785  0.00  0.00    +0.040 C 
BRANCH  16  17
ATOM     17  C   LIG A   1      -9.009  -0.650 123.588  0.00  0.00    +0.061 C 
ATOM     18  C   LIG A   1      -7.556  -0.928 123.183  0.00  0.00    +0.041 C 
ATOM     19  C   LIG A   1      -9.069  -0.410 125.098  0.00  0.00    +0.041 C 
BRANCH  17  20
ATOM     20  O   LIG A   1      -9.784  -1.818 123.308  0.00  0.00    -0.389 OA
ATOM     21  H   LIG A   1      -9.243  -2.419 122.769  0.00  0.00    +0.210 HD
ENDBRANCH  17  20
ENDBRANCH  16  17
ENDBRANCH  15  16
ENDBRANCH   4  15
TORSDOF 5
ENDMDL
MODEL 8
REMARK VINA RESULT:      -6.4      8.324     10.123
REMARK  Name = NuBBE_1247
REMARK  7 active torsions:
REMARK  status: ('A' for Active; 'I' for Inactive)
REMARK    1  A    between atoms: C_4  and  C_14
REMARK    2  A    between atoms: C_8  and  O_9
REMARK    3  A    between atoms: C_14  and  C_15
REMARK    4  A    between atoms: C_15  and  C_16
REMARK    5  A    between atoms: C_16  and  O_17
REMARK    6  A    between atoms: C_16  and  C_18
REMARK    7  A    between atoms: C_16  and  C_19
REMARK                            x       y       z     vdW  Elec       q    Type
REMARK                         _______ _______ _______ _____ _____    ______ ____
ROOT
ATOM      1  O   LIG A   1     -10.894   0.404 122.518  0.00  0.00    -0.287 OA
ATOM      2  C   LIG A   1      -9.729   0.557 122.855  0.00  0.00    +0.190 A 
ATOM      3  C   LIG A   1      -9.120   1.911 122.872  0.00  0.00    +0.072 A 
ATOM      4  C   LIG A   1      -7.849   2.069 123.282  0.00  0.00    +0.020 A 
ATOM      5  N   LIG A   1      -7.077   1.004 123.699  0.00  0.00    -0.358 N 
ATOM      6  C   LIG A   1      -7.558  -0.314 123.686  0.00  0.00    +0.054 A 
ATOM      7  C   LIG A   1      -6.718  -1.386 124.001  0.00  0.00    +0.071 A 
ATOM      8  C   LIG A   1      -7.186  -2.694 123.871  0.00  0.00    +0.119 A 
ATOM      9  C   LIG A   1      -8.487  -2.957 123.452  0.00  0.00    +0.046 A 
ATOM     10  C   LIG A   1      -9.338  -1.897 123.141  0.00  0.00    +0.017 A 
ATOM     11  C   LIG A   1      -8.865  -0.584 123.243  0.00  0.00    +0.045 A 
ATOM     12  H   LIG A   1      -6.201   1.200 124.170  0.00  0.00    +0.166 HD
ENDROOT
BRANCH   8  13
ATOM     13  O   LIG A   1      -6.378  -3.763 124.128  0.00  0.00    -0.507 OA
ATOM     14  H   LIG A   1      -5.671  -3.488 124.732  0.00  0.00    +0.292 HD
ENDBRANCH   8  13
BRANCH   4  15
ATOM     15  C   LIG A   1      -7.220   3.448 123.324  0.00  0.00    +0.056 C 
BRANCH  15  16
ATOM     16  C   LIG A   1      -6.077   3.536 124.352  0.00  0.00    +0.040 C 
BRANCH  16  17
ATOM     17  C   LIG A   1      -6.332   4.551 125.489  0.00  0.00    +0.061 C 
ATOM     18  C   LIG A   1      -7.565   4.150 126.309  0.00  0.00    +0.041 C 
ATOM     19  C   LIG A   1      -5.130   4.683 126.427  0.00  0.00    +0.041 C 
BRANCH  17  20
ATOM     20  O   LIG A   1      -6.573   5.838 124.916  0.00  0.00    -0.389 OA
ATOM     21  H   LIG A   1      -7.079   5.714 124.094  0.00  0.00    +0.210 HD
ENDBRANCH  17  20
ENDBRANCH  16  17
ENDBRANCH  15  16
ENDBRANCH   4  15
TORSDOF 5
ENDMDL
MODEL 9
REMARK VINA RESULT:      -6.3      8.163     10.854
REMARK  Name = NuBBE_1247
REMARK  7 active torsions:
REMARK  status: ('A' for Active; 'I' for Inactive)
REMARK    1  A    between atoms: C_4  and  C_14
REMARK    2  A    between atoms: C_8  and  O_9
REMARK    3  A    between atoms: C_14  and  C_15
REMARK    4  A    between atoms: C_15  and  C_16
REMARK    5  A    between atoms: C_16  and  O_17
REMARK    6  A    between atoms: C_16  and  C_18
REMARK    7  A    between atoms: C_16  and  C_19
REMARK                            x       y       z     vdW  Elec       q    Type
REMARK                         _______ _______ _______ _____ _____    ______ ____
ROOT
ATOM      1  O   LIG A   1      -9.686  -3.145 124.293  0.00  0.00    -0.287 OA
ATOM      2  C   LIG A   1      -9.015  -2.323 124.900  0.00  0.00    +0.190 A 
ATOM      3  C   LIG A   1      -8.474  -1.129 124.204  0.00  0.00    +0.072 A 
ATOM      4  C   LIG A   1      -7.769  -0.214 124.894  0.00  0.00    +0.020 A 
ATOM      5  N   LIG A   1      -7.530  -0.342 126.246  0.00  0.00    -0.358 N 
ATOM      6  C   LIG A   1      -7.975  -1.453 126.979  0.00  0.00    +0.054 A 
ATOM      7  C   LIG A   1      -7.617  -1.616 128.321  0.00  0.00    +0.071 A 
ATOM      8  C   LIG A   1      -7.977  -2.782 128.997  0.00  0.00    +0.119 A 
ATOM      9  C   LIG A   1      -8.705  -3.786 128.366  0.00  0.00    +0.046 A 
ATOM     10  C   LIG A   1      -9.073  -3.635 127.029  0.00  0.00    +0.017 A 
ATOM     11  C   LIG A   1      -8.692  -2.479 126.339  0.00  0.00    +0.045 A 
ATOM     12  H   LIG A   1      -7.161   0.458 126.747  0.00  0.00    +0.166 HD
ENDROOT
BRANCH   8  13
ATOM     13  O   LIG A   1      -7.606  -2.991 130.292  0.00  0.00    -0.507 OA
ATOM     14  H   LIG A   1      -6.702  -3.346 130.310  0.00  0.00    +0.292 HD
ENDBRANCH   8  13
BRANCH   4  15
ATOM     15  C   LIG A   1      -7.226   1.021 124.201  0.00  0.00    +0.056 C 
BRANCH  15  16
ATOM     16  C   LIG A   1      -8.215   1.591 123.166  0.00  0.00    +0.040 C 
BRANCH  16  17
ATOM     17  C   LIG A   1      -7.875   3.023 122.696  0.00  0.00    +0.061 C 
ATOM     18  C   LIG A   1      -6.373   3.162 122.419  0.00  0.00    +0.041 C 
ATOM     19  C   LIG A   1      -8.654   3.420 121.440  0.00  0.00    +0.041 C 
BRANCH  17  20
ATOM     20  O   LIG A   1      -8.228   3.946 123.730  0.00  0.00    -0.389 OA
ATOM     21  H   LIG A   1      -8.914   4.542 123.383  0.00  0.00    +0.210 HD
ENDBRANCH  17  20
ENDBRANCH  16  17
ENDBRANCH  15  16
ENDBRANCH   4  15
TORSDOF 5
ENDMDL
