MODEL 1
REMARK VINA RESULT:      -6.8      0.000      0.000
REMARK  Name = NuBBE_2055
REMARK  7 active torsions:
REMARK  status: ('A' for Active; 'I' for Inactive)
REMARK    1  A    between atoms: C_6  and  O_7
REMARK    2  A    between atoms: O_7  and  C_8
REMARK    3  A    between atoms: C_8  and  C_9
REMARK    4  A    between atoms: C_11  and  C_12
REMARK    5  A    between atoms: C_11  and  C_13
REMARK    6  A    between atoms: C_14  and  O_15
REMARK    7  A    between atoms: O_15  and  C_16
REMARK                            x       y       z     vdW  Elec       q    Type
REMARK                         _______ _______ _______ _____ _____    ______ ____
ROOT
ATOM      1  O   LIG A   1      -7.263   4.502 118.517  0.00  0.00    -0.245 OA
ATOM      2  C   LIG A   1      -6.982   4.239 119.680  0.00  0.00    +0.337 A 
ATOM      3  O   LIG A   1      -7.919   3.743 120.574  0.00  0.00    -0.422 OA
ATOM      4  C   LIG A   1      -7.577   3.491 121.919  0.00  0.00    +0.143 A 
ATOM      5  C   LIG A   1      -8.602   3.042 122.743  0.00  0.00    +0.096 A 
ATOM      6  C   LIG A   1      -8.357   2.785 124.097  0.00  0.00    +0.166 A 
ATOM      7  C   LIG A   1      -7.051   2.959 124.596  0.00  0.00    +0.162 A 
ATOM      8  C   LIG A   1      -6.028   3.411 123.733  0.00  0.00    +0.061 A 
ATOM      9  C   LIG A   1      -6.289   3.686 122.387  0.00  0.00    +0.021 A 
ATOM     10  C   LIG A   1      -5.277   4.169 121.463  0.00  0.00    +0.019 A 
ATOM     11  C   LIG A   1      -5.621   4.430 120.191  0.00  0.00    +0.092 A 
ENDROOT
BRANCH   7  12
ATOM     12  O   LIG A   1      -6.596   2.748 125.874  0.00  0.00    -0.491 OA
ATOM     13  C   LIG A   1      -5.553   1.804 126.079  0.00  0.00    +0.277 C 
ENDBRANCH   7  12
BRANCH   6  14
ATOM     14  O   LIG A   1      -9.340   2.304 124.922  0.00  0.00    -0.485 OA
BRANCH  14  15
ATOM     15  C   LIG A   1      -9.899   1.031 124.584  0.00  0.00    +0.263 C 
BRANCH  15  16
ATOM     16  C   LIG A   1      -9.209  -0.021 125.389  0.00  0.00    +0.188 C 
ATOM     17  O   LIG A   1      -9.391  -1.351 124.873  0.00  0.00    -0.362 OA
ATOM     18  C   LIG A   1      -8.039  -0.870 124.898  0.00  0.00    +0.094 C 
ATOM     19  C   LIG A   1      -7.434  -0.719 123.533  0.00  0.00    +0.044 C 
ATOM     20  C   LIG A   1      -7.182  -1.561 125.914  0.00  0.00    +0.044 C 
ENDBRANCH  15  16
ENDBRANCH  14  15
ENDBRANCH   6  14
TORSDOF 4
ENDMDL
MODEL 2
REMARK VINA RESULT:      -6.5      2.529      4.618
REMARK  Name = NuBBE_2055
REMARK  7 active torsions:
REMARK  status: ('A' for Active; 'I' for Inactive)
REMARK    1  A    between atoms: C_6  and  O_7
REMARK    2  A    between atoms: O_7  and  C_8
REMARK    3  A    between atoms: C_8  and  C_9
REMARK    4  A    between atoms: C_11  and  C_12
REMARK    5  A    between atoms: C_11  and  C_13
REMARK    6  A    between atoms: C_14  and  O_15
REMARK    7  A    between atoms: O_15  and  C_16
REMARK                            x       y       z     vdW  Elec       q    Type
REMARK                         _______ _______ _______ _____ _____    ______ ____
ROOT
ATOM      1  O   LIG A   1      -4.329   6.194 120.633  0.00  0.00    -0.245 OA
ATOM      2  C   LIG A   1      -4.954   5.271 121.139  0.00  0.00    +0.337 A 
ATOM      3  O   LIG A   1      -4.968   5.049 122.508  0.00  0.00    -0.422 OA
ATOM      4  C   LIG A   1      -5.663   3.951 123.058  0.00  0.00    +0.143 A 
ATOM      5  C   LIG A   1      -5.572   3.790 124.435  0.00  0.00    +0.096 A 
ATOM      6  C   LIG A   1      -6.214   2.717 125.064  0.00  0.00    +0.166 A 
ATOM      7  C   LIG A   1      -6.973   1.826 124.281  0.00  0.00    +0.162 A 
ATOM      8  C   LIG A   1      -7.051   2.018 122.883  0.00  0.00    +0.061 A 
ATOM      9  C   LIG A   1      -6.389   3.081 122.263  0.00  0.00    +0.021 A 
ATOM     10  C   LIG A   1      -6.422   3.311 120.828  0.00  0.00    +0.019 A 
ATOM     11  C   LIG A   1      -5.737   4.345 120.314  0.00  0.00    +0.092 A 
ENDROOT
BRANCH   7  12
ATOM     12  O   LIG A   1      -7.689   0.730 124.695  0.00  0.00    -0.491 OA
ATOM     13  C   LIG A   1      -8.480   0.032 123.742  0.00  0.00    +0.277 C 
ENDBRANCH   7  12
BRANCH   6  14
ATOM     14  O   LIG A   1      -6.173   2.559 126.425  0.00  0.00    -0.485 OA
BRANCH  14  15
ATOM     15  C   LIG A   1      -4.931   2.123 126.986  0.00  0.00    +0.263 C 
BRANCH  15  16
ATOM     16  C   LIG A   1      -4.320   3.262 127.734  0.00  0.00    +0.188 C 
ATOM     17  O   LIG A   1      -3.269   2.864 128.631  0.00  0.00    -0.362 OA
ATOM     18  C   LIG A   1      -2.881   3.746 127.567  0.00  0.00    +0.094 C 
ATOM     19  C   LIG A   1      -1.917   3.127 126.600  0.00  0.00    +0.044 C 
ATOM     20  C   LIG A   1      -2.533   5.124 128.038  0.00  0.00    +0.044 C 
ENDBRANCH  15  16
ENDBRANCH  14  15
ENDBRANCH   6  14
TORSDOF 4
ENDMDL
MODEL 3
REMARK VINA RESULT:      -6.4      8.726      9.994
REMARK  Name = NuBBE_2055
REMARK  7 active torsions:
REMARK  status: ('A' for Active; 'I' for Inactive)
REMARK    1  A    between atoms: C_6  and  O_7
REMARK    2  A    between atoms: O_7  and  C_8
REMARK    3  A    between atoms: C_8  and  C_9
REMARK    4  A    between atoms: C_11  and  C_12
REMARK    5  A    between atoms: C_11  and  C_13
REMARK    6  A    between atoms: C_14  and  O_15
REMARK    7  A    between atoms: O_15  and  C_16
REMARK                            x       y       z     vdW  Elec       q    Type
REMARK                         _______ _______ _______ _____ _____    ______ ____
ROOT
ATOM      1  O   LIG A   1     -12.096   8.706 128.000  0.00  0.00    -0.245 OA
ATOM      2  C   LIG A   1     -11.727   8.120 129.010  0.00  0.00    +0.337 A 
ATOM      3  O   LIG A   1     -10.390   7.854 129.265  0.00  0.00    -0.422 OA
ATOM      4  C   LIG A   1      -9.999   7.138 130.417  0.00  0.00    +0.143 A 
ATOM      5  C   LIG A   1      -8.640   6.882 130.553  0.00  0.00    +0.096 A 
ATOM      6  C   LIG A   1      -8.165   6.162 131.654  0.00  0.00    +0.166 A 
ATOM      7  C   LIG A   1      -9.083   5.732 132.632  0.00  0.00    +0.162 A 
ATOM      8  C   LIG A   1     -10.458   6.011 132.469  0.00  0.00    +0.061 A 
ATOM      9  C   LIG A   1     -10.924   6.713 131.354  0.00  0.00    +0.021 A 
ATOM     10  C   LIG A   1     -12.329   7.010 131.131  0.00  0.00    +0.019 A 
ATOM     11  C   LIG A   1     -12.692   7.671 130.019  0.00  0.00    +0.092 A 
ENDROOT
BRANCH   7  12
ATOM     12  O   LIG A   1      -8.829   5.034 133.787  0.00  0.00    -0.491 OA
ATOM     13  C   LIG A   1      -9.000   3.623 133.784  0.00  0.00    +0.277 C 
ENDBRANCH   7  12
BRANCH   6  14
ATOM     14  O   LIG A   1      -6.825   5.930 131.832  0.00  0.00    -0.485 OA
BRANCH  14  15
ATOM     15  C   LIG A   1      -5.926   6.903 131.291  0.00  0.00    +0.263 C 
BRANCH  15  16
ATOM     16  C   LIG A   1      -4.820   6.189 130.587  0.00  0.00    +0.188 C 
ATOM     17  O   LIG A   1      -4.978   6.152 129.158  0.00  0.00    -0.362 OA
ATOM     18  C   LIG A   1      -3.818   6.847 129.640  0.00  0.00    +0.094 C 
ATOM     19  C   LIG A   1      -3.829   8.314 129.329  0.00  0.00    +0.044 C 
ATOM     20  C   LIG A   1      -2.535   6.132 129.350  0.00  0.00    +0.044 C 
ENDBRANCH  15  16
ENDBRANCH  14  15
ENDBRANCH   6  14
TORSDOF 4
ENDMDL
MODEL 4
REMARK VINA RESULT:      -6.1      8.596      9.865
REMARK  Name = NuBBE_2055
REMARK  7 active torsions:
REMARK  status: ('A' for Active; 'I' for Inactive)
REMARK    1  A    between atoms: C_6  and  O_7
REMARK    2  A    between atoms: O_7  and  C_8
REMARK    3  A    between atoms: C_8  and  C_9
REMARK    4  A    between atoms: C_11  and  C_12
REMARK    5  A    between atoms: C_11  and  C_13
REMARK    6  A    between atoms: C_14  and  O_15
REMARK    7  A    between atoms: O_15  and  C_16
REMARK                            x       y       z     vdW  Elec       q    Type
REMARK                         _______ _______ _______ _____ _____    ______ ____
ROOT
ATOM      1  O   LIG A   1      -3.674   8.468 129.277  0.00  0.00    -0.245 OA
ATOM      2  C   LIG A   1      -4.282   7.841 130.135  0.00  0.00    +0.337 A 
ATOM      3  O   LIG A   1      -5.655   7.651 130.080  0.00  0.00    -0.422 OA
ATOM      4  C   LIG A   1      -6.333   6.961 131.107  0.00  0.00    +0.143 A 
ATOM      5  C   LIG A   1      -7.714   6.868 130.981  0.00  0.00    +0.096 A 
ATOM      6  C   LIG A   1      -8.470   6.218 131.963  0.00  0.00    +0.166 A 
ATOM      7  C   LIG A   1      -7.804   5.636 133.059  0.00  0.00    +0.162 A 
ATOM      8  C   LIG A   1      -6.398   5.742 133.158  0.00  0.00    +0.061 A 
ATOM      9  C   LIG A   1      -5.655   6.412 132.182  0.00  0.00    +0.021 A 
ATOM     10  C   LIG A   1      -4.211   6.564 132.246  0.00  0.00    +0.019 A 
ATOM     11  C   LIG A   1      -3.579   7.244 131.276  0.00  0.00    +0.092 A 
ENDROOT
BRANCH   7  12
ATOM     12  O   LIG A   1      -8.347   4.945 134.113  0.00  0.00    -0.491 OA
ATOM     13  C   LIG A   1      -7.733   5.053 135.390  0.00  0.00    +0.277 C 
ENDBRANCH   7  12
BRANCH   6  14
ATOM     14  O   LIG A   1      -9.828   6.079 131.842  0.00  0.00    -0.485 OA
BRANCH  14  15
ATOM     15  C   LIG A   1     -10.300   5.291 130.744  0.00  0.00    +0.263 C 
BRANCH  15  16
ATOM     16  C   LIG A   1     -11.609   5.847 130.287  0.00  0.00    +0.188 C 
ATOM     17  O   LIG A   1     -11.711   7.273 130.436  0.00  0.00    -0.362 OA
ATOM     18  C   LIG A   1     -11.793   6.778 129.091  0.00  0.00    +0.094 C 
ATOM     19  C   LIG A   1     -10.657   7.226 128.220  0.00  0.00    +0.044 C 
ATOM     20  C   LIG A   1     -13.160   6.910 128.494  0.00  0.00    +0.044 C 
ENDBRANCH  15  16
ENDBRANCH  14  15
ENDBRANCH   6  14
TORSDOF 4
ENDMDL
MODEL 5
REMARK VINA RESULT:      -6.0      2.645      7.678
REMARK  Name = NuBBE_2055
REMARK  7 active torsions:
REMARK  status: ('A' for Active; 'I' for Inactive)
REMARK    1  A    between atoms: C_6  and  O_7
REMARK    2  A    between atoms: O_7  and  C_8
REMARK    3  A    between atoms: C_8  and  C_9
REMARK    4  A    between atoms: C_11  and  C_12
REMARK    5  A    between atoms: C_11  and  C_13
REMARK    6  A    between atoms: C_14  and  O_15
REMARK    7  A    between atoms: O_15  and  C_16
REMARK                            x       y       z     vdW  Elec       q    Type
REMARK                         _______ _______ _______ _____ _____    ______ ____
ROOT
ATOM      1  O   LIG A   1      -7.697  -2.924 130.628  0.00  0.00    -0.245 OA
ATOM      2  C   LIG A   1      -7.892  -2.875 129.421  0.00  0.00    +0.337 A 
ATOM      3  O   LIG A   1      -7.274  -1.936 128.609  0.00  0.00    -0.422 OA
ATOM      4  C   LIG A   1      -7.552  -1.876 127.227  0.00  0.00    +0.143 A 
ATOM      5  C   LIG A   1      -6.918  -0.868 126.512  0.00  0.00    +0.096 A 
ATOM      6  C   LIG A   1      -7.150  -0.722 125.140  0.00  0.00    +0.166 A 
ATOM      7  C   LIG A   1      -8.012  -1.631 124.497  0.00  0.00    +0.162 A 
ATOM      8  C   LIG A   1      -8.640  -2.649 125.248  0.00  0.00    +0.061 A 
ATOM      9  C   LIG A   1      -8.417  -2.773 126.622  0.00  0.00    +0.021 A 
ATOM     10  C   LIG A   1      -9.051  -3.791 127.443  0.00  0.00    +0.019 A 
ATOM     11  C   LIG A   1      -8.796  -3.823 128.762  0.00  0.00    +0.092 A 
ENDROOT
BRANCH   7  12
ATOM     12  O   LIG A   1      -8.360  -1.677 123.169  0.00  0.00    -0.491 OA
ATOM     13  C   LIG A   1      -9.466  -0.901 122.726  0.00  0.00    +0.277 C 
ENDBRANCH   7  12
BRANCH   6  14
ATOM     14  O   LIG A   1      -6.506   0.240 124.405  0.00  0.00    -0.485 OA
BRANCH  14  15
ATOM     15  C   LIG A   1      -7.125   1.529 124.347  0.00  0.00    +0.263 C 
BRANCH  15  16
ATOM     16  C   LIG A   1      -7.031   2.040 122.947  0.00  0.00    +0.188 C 
ATOM     17  O   LIG A   1      -7.754   3.265 122.733  0.00  0.00    -0.362 OA
ATOM     18  C   LIG A   1      -6.334   3.335 122.535  0.00  0.00    +0.094 C 
ATOM     19  C   LIG A   1      -5.639   4.237 123.511  0.00  0.00    +0.044 C 
ATOM     20  C   LIG A   1      -5.944   3.509 121.100  0.00  0.00    +0.044 C 
ENDBRANCH  15  16
ENDBRANCH  14  15
ENDBRANCH   6  14
TORSDOF 4
ENDMDL
MODEL 6
REMARK VINA RESULT:      -5.9      6.874      8.376
REMARK  Name = NuBBE_2055
REMARK  7 active torsions:
REMARK  status: ('A' for Active; 'I' for Inactive)
REMARK    1  A    between atoms: C_6  and  O_7
REMARK    2  A    between atoms: O_7  and  C_8
REMARK    3  A    between atoms: C_8  and  C_9
REMARK    4  A    between atoms: C_11  and  C_12
REMARK    5  A    between atoms: C_11  and  C_13
REMARK    6  A    between atoms: C_14  and  O_15
REMARK    7  A    between atoms: O_15  and  C_16
REMARK                            x       y       z     vdW  Elec       q    Type
REMARK                         _______ _______ _______ _____ _____    ______ ____
ROOT
ATOM      1  O   LIG A   1     -13.848   6.942 127.507  0.00  0.00    -0.245 OA
ATOM      2  C   LIG A   1     -12.788   7.012 128.115  0.00  0.00    +0.337 A 
ATOM      3  O   LIG A   1     -12.398   6.051 129.036  0.00  0.00    -0.422 OA
ATOM      4  C   LIG A   1     -11.190   6.181 129.753  0.00  0.00    +0.143 A 
ATOM      5  C   LIG A   1     -10.917   5.189 130.687  0.00  0.00    +0.096 A 
ATOM      6  C   LIG A   1      -9.750   5.248 131.458  0.00  0.00    +0.166 A 
ATOM      7  C   LIG A   1      -8.850   6.310 131.247  0.00  0.00    +0.162 A 
ATOM      8  C   LIG A   1      -9.152   7.302 130.287  0.00  0.00    +0.061 A 
ATOM      9  C   LIG A   1     -10.331   7.244 129.538  0.00  0.00    +0.021 A 
ATOM     10  C   LIG A   1     -10.696   8.247 128.552  0.00  0.00    +0.019 A 
ATOM     11  C   LIG A   1     -11.860   8.125 127.893  0.00  0.00    +0.092 A 
ENDROOT
BRANCH   7  12
ATOM     12  O   LIG A   1      -7.653   6.545 131.876  0.00  0.00    -0.491 OA
ATOM     13  C   LIG A   1      -6.463   6.552 131.098  0.00  0.00    +0.277 C 
ENDBRANCH   7  12
BRANCH   6  14
ATOM     14  O   LIG A   1      -9.438   4.262 132.358  0.00  0.00    -0.485 OA
BRANCH  14  15
ATOM     15  C   LIG A   1      -9.294   2.937 131.836  0.00  0.00    +0.263 C 
BRANCH  15  16
ATOM     16  C   LIG A   1      -7.859   2.715 131.489  0.00  0.00    +0.188 C 
ATOM     17  O   LIG A   1      -7.638   1.555 130.668  0.00  0.00    -0.362 OA
ATOM     18  C   LIG A   1      -7.274   2.814 130.082  0.00  0.00    +0.094 C 
ATOM     19  C   LIG A   1      -8.095   3.173 128.879  0.00  0.00    +0.044 C 
ATOM     20  C   LIG A   1      -5.795   2.993 129.935  0.00  0.00    +0.044 C 
ENDBRANCH  15  16
ENDBRANCH  14  15
ENDBRANCH   6  14
TORSDOF 4
ENDMDL
MODEL 7
REMARK VINA RESULT:      -5.7      3.021      7.882
REMARK  Name = NuBBE_2055
REMARK  7 active torsions:
REMARK  status: ('A' for Active; 'I' for Inactive)
REMARK    1  A    between atoms: C_6  and  O_7
REMARK    2  A    between atoms: O_7  and  C_8
REMARK    3  A    between atoms: C_8  and  C_9
REMARK    4  A    between atoms: C_11  and  C_12
REMARK    5  A    between atoms: C_11  and  C_13
REMARK    6  A    between atoms: C_14  and  O_15
REMARK    7  A    between atoms: O_15  and  C_16
REMARK                            x       y       z     vdW  Elec       q    Type
REMARK                         _______ _______ _______ _____ _____    ______ ____
ROOT
ATOM      1  O   LIG A   1      -4.920  -2.639 130.787  0.00  0.00    -0.245 OA
ATOM      2  C   LIG A   1      -5.750  -2.703 129.890  0.00  0.00    +0.337 A 
ATOM      3  O   LIG A   1      -5.607  -2.010 128.697  0.00  0.00    -0.422 OA
ATOM      4  C   LIG A   1      -6.602  -2.070 127.698  0.00  0.00    +0.143 A 
ATOM      5  C   LIG A   1      -6.384  -1.300 126.562  0.00  0.00    +0.096 A 
ATOM      6  C   LIG A   1      -7.328  -1.284 125.529  0.00  0.00    +0.166 A 
ATOM      7  C   LIG A   1      -8.482  -2.082 125.651  0.00  0.00    +0.162 A 
ATOM      8  C   LIG A   1      -8.674  -2.859 126.816  0.00  0.00    +0.061 A 
ATOM      9  C   LIG A   1      -7.735  -2.851 127.850  0.00  0.00    +0.021 A 
ATOM     10  C   LIG A   1      -7.894  -3.617 129.075  0.00  0.00    +0.019 A 
ATOM     11  C   LIG A   1      -6.952  -3.533 130.029  0.00  0.00    +0.092 A 
ENDROOT
BRANCH   7  12
ATOM     12  O   LIG A   1      -9.513  -2.225 124.757  0.00  0.00    -0.491 OA
ATOM     13  C   LIG A   1      -9.358  -3.133 123.674  0.00  0.00    +0.277 C 
ENDBRANCH   7  12
BRANCH   6  14
ATOM     14  O   LIG A   1      -7.118  -0.564 124.382  0.00  0.00    -0.485 OA
BRANCH  14  15
ATOM     15  C   LIG A   1      -6.929   0.846 124.531  0.00  0.00    +0.263 C 
BRANCH  15  16
ATOM     16  C   LIG A   1      -7.925   1.554 123.673  0.00  0.00    +0.188 C 
ATOM     17  O   LIG A   1      -8.325   2.834 124.192  0.00  0.00    -0.362 OA
ATOM     18  C   LIG A   1      -7.661   2.856 122.920  0.00  0.00    +0.094 C 
ATOM     19  C   LIG A   1      -6.338   3.565 122.949  0.00  0.00    +0.044 C 
ATOM     20  C   LIG A   1      -8.567   3.221 121.785  0.00  0.00    +0.044 C 
ENDBRANCH  15  16
ENDBRANCH  14  15
ENDBRANCH   6  14
TORSDOF 4
ENDMDL
MODEL 8
REMARK VINA RESULT:      -5.5      4.852      6.975
REMARK  Name = NuBBE_2055
REMARK  7 active torsions:
REMARK  status: ('A' for Active; 'I' for Inactive)
REMARK    1  A    between atoms: C_6  and  O_7
REMARK    2  A    between atoms: O_7  and  C_8
REMARK    3  A    between atoms: C_8  and  C_9
REMARK    4  A    between atoms: C_11  and  C_12
REMARK    5  A    between atoms: C_11  and  C_13
REMARK    6  A    between atoms: C_14  and  O_15
REMARK    7  A    between atoms: O_15  and  C_16
REMARK                            x       y       z     vdW  Elec       q    Type
REMARK                         _______ _______ _______ _____ _____    ______ ____
ROOT
ATOM      1  O   LIG A   1      -8.985  -1.310 122.516  0.00  0.00    -0.245 OA
ATOM      2  C   LIG A   1      -8.878  -1.741 123.657  0.00  0.00    +0.337 A 
ATOM      3  O   LIG A   1      -8.466  -0.944 124.714  0.00  0.00    -0.422 OA
ATOM      4  C   LIG A   1      -8.311  -1.480 126.010  0.00  0.00    +0.143 A 
ATOM      5  C   LIG A   1      -7.845  -0.608 126.987  0.00  0.00    +0.096 A 
ATOM      6  C   LIG A   1      -7.643  -1.059 128.296  0.00  0.00    +0.166 A 
ATOM      7  C   LIG A   1      -7.948  -2.398 128.608  0.00  0.00    +0.162 A 
ATOM      8  C   LIG A   1      -8.424  -3.260 127.595  0.00  0.00    +0.061 A 
ATOM      9  C   LIG A   1      -8.602  -2.804 126.286  0.00  0.00    +0.021 A 
ATOM     10  C   LIG A   1      -9.072  -3.654 125.204  0.00  0.00    +0.019 A 
ATOM     11  C   LIG A   1      -9.192  -3.139 123.970  0.00  0.00    +0.092 A 
ENDROOT
BRANCH   7  12
ATOM     12  O   LIG A   1      -7.841  -3.033 129.821  0.00  0.00    -0.491 OA
ATOM     13  C   LIG A   1      -6.605  -3.645 130.164  0.00  0.00    +0.277 C 
ENDBRANCH   7  12
BRANCH   6  14
ATOM     14  O   LIG A   1      -7.223  -0.210 129.287  0.00  0.00    -0.485 OA
BRANCH  14  15
ATOM     15  C   LIG A   1      -8.218   0.633 129.877  0.00  0.00    +0.263 C 
BRANCH  15  16
ATOM     16  C   LIG A   1      -8.025   2.024 129.370  0.00  0.00    +0.188 C 
ATOM     17  O   LIG A   1      -9.056   2.455 128.465  0.00  0.00    -0.362 OA
ATOM     18  C   LIG A   1      -8.942   3.204 129.683  0.00  0.00    +0.094 C 
ATOM     19  C   LIG A   1     -10.147   3.091 130.569  0.00  0.00    +0.044 C 
ATOM     20  C   LIG A   1      -8.415   4.591 129.479  0.00  0.00    +0.044 C 
ENDBRANCH  15  16
ENDBRANCH  14  15
ENDBRANCH   6  14
TORSDOF 4
ENDMDL
MODEL 9
REMARK VINA RESULT:      -5.4      5.700      8.154
REMARK  Name = NuBBE_2055
REMARK  7 active torsions:
REMARK  status: ('A' for Active; 'I' for Inactive)
REMARK    1  A    between atoms: C_6  and  O_7
REMARK    2  A    between atoms: O_7  and  C_8
REMARK    3  A    between atoms: C_8  and  C_9
REMARK    4  A    between atoms: C_11  and  C_12
REMARK    5  A    between atoms: C_11  and  C_13
REMARK    6  A    between atoms: C_14  and  O_15
REMARK    7  A    between atoms: O_15  and  C_16
REMARK                            x       y       z     vdW  Elec       q    Type
REMARK                         _______ _______ _______ _____ _____    ______ ____
ROOT
ATOM      1  O   LIG A   1      -9.295  -1.491 124.606  0.00  0.00    -0.245 OA
ATOM      2  C   LIG A   1      -8.964  -1.896 125.713  0.00  0.00    +0.337 A 
ATOM      3  O   LIG A   1      -8.231  -1.119 126.597  0.00  0.00    -0.422 OA
ATOM      4  C   LIG A   1      -7.826  -1.629 127.849  0.00  0.00    +0.143 A 
ATOM      5  C   LIG A   1      -7.053  -0.786 128.638  0.00  0.00    +0.096 A 
ATOM      6  C   LIG A   1      -6.592  -1.217 129.887  0.00  0.00    +0.166 A 
ATOM      7  C   LIG A   1      -6.950  -2.502 130.338  0.00  0.00    +0.162 A 
ATOM      8  C   LIG A   1      -7.741  -3.335 129.515  0.00  0.00    +0.061 A 
ATOM      9  C   LIG A   1      -8.179  -2.903 128.260  0.00  0.00    +0.021 A 
ATOM     10  C   LIG A   1      -8.979  -3.726 127.369  0.00  0.00    +0.019 A 
ATOM     11  C   LIG A   1      -9.337  -3.239 126.170  0.00  0.00    +0.092 A 
ENDROOT
BRANCH   7  12
ATOM     12  O   LIG A   1      -6.622  -3.108 131.526  0.00  0.00    -0.491 OA
ATOM     13  C   LIG A   1      -7.443  -2.870 132.662  0.00  0.00    +0.277 C 
ENDBRANCH   7  12
BRANCH   6  14
ATOM     14  O   LIG A   1      -5.861  -0.391 130.702  0.00  0.00    -0.485 OA
BRANCH  14  15
ATOM     15  C   LIG A   1      -6.198   1.000 130.678  0.00  0.00    +0.263 C 
BRANCH  15  16
ATOM     16  C   LIG A   1      -7.370   1.221 131.576  0.00  0.00    +0.188 C 
ATOM     17  O   LIG A   1      -7.616   2.608 131.869  0.00  0.00    -0.362 OA
ATOM     18  C   LIG A   1      -8.664   1.922 131.168  0.00  0.00    +0.094 C 
ATOM     19  C   LIG A   1      -8.906   2.454 129.786  0.00  0.00    +0.044 C 
ATOM     20  C   LIG A   1      -9.889   1.702 132.001  0.00  0.00    +0.044 C 
ENDBRANCH  15  16
ENDBRANCH  14  15
ENDBRANCH   6  14
TORSDOF 4
ENDMDL
