MODEL 1
REMARK VINA RESULT:      -7.8      0.000      0.000
REMARK  Name = NuBBE_1633
REMARK  12 active torsions:
REMARK  status: ('A' for Active; 'I' for Inactive)
REMARK    1  A    between atoms: C_1  and  C_2
REMARK    2  A    between atoms: C_2  and  C_3
REMARK    3  A    between atoms: C_7  and  C_8
REMARK    4  A    between atoms: C_10  and  O_11
REMARK    5  A    between atoms: O_11  and  C_12
REMARK    6  A    between atoms: C_12  and  C_13
REMARK    7  A    between atoms: C_19  and  C_20
REMARK    8  A    between atoms: C_25  and  C_27
REMARK    9  A    between atoms: C_35  and  C_36
REMARK   10  A    between atoms: C_36  and  C_37
REMARK   11  A    between atoms: C_37  and  O_38
REMARK   12  A    between atoms: O_38  and  C_39
REMARK                            x       y       z     vdW  Elec       q    Type
REMARK                         _______ _______ _______ _____ _____    ______ ____
ROOT
ATOM      1  C   LIG A   1      -6.551  -0.339 126.474  0.00  0.00    +0.065 C 
ATOM      2  C   LIG A   1      -6.381   1.181 126.660  0.00  0.00    +0.185 C 
ATOM      3  C   LIG A   1      -7.176   1.727 127.836  0.00  0.00    +0.055 C 
ATOM      4  C   LIG A   1      -6.923   1.050 129.202  0.00  0.00    +0.014 C 
ATOM      5  C   LIG A   1      -8.321   0.806 129.836  0.00  0.00    +0.015 C 
ATOM      6  C   LIG A   1      -6.182  -0.296 129.079  0.00  0.00    +0.123 C 
ATOM      7  C   LIG A   1      -5.029  -0.286 130.041  0.00  0.00    +0.157 C 
ATOM      8  C   LIG A   1      -4.910   1.009 130.751  0.00  0.00    +0.043 C 
ATOM      9  C   LIG A   1      -6.080   1.896 130.259  0.00  0.00    +0.034 C 
ATOM     10  O   LIG A   1      -6.203  -1.041 130.324  0.00  0.00    -0.359 OA
ATOM     11  C   LIG A   1      -5.988  -0.998 127.766  0.00  0.00    -0.035 C 
ATOM     12  C   LIG A   1      -5.275  -2.141 127.656  0.00  0.00    +0.011 C 
ENDROOT
BRANCH   1  19
ATOM     13  C   LIG A   1      -7.466  -2.117 122.541  0.00  0.00    +0.019 C 
ATOM     14  C   LIG A   1      -8.288  -2.277 123.833  0.00  0.00    +0.031 C 
ATOM     15  C   LIG A   1      -9.643  -2.958 123.487  0.00  0.00    +0.019 C 
ATOM     16  C   LIG A   1      -7.559  -3.308 124.703  0.00  0.00    +0.162 C 
ATOM     17  C   LIG A   1      -7.944  -3.374 126.121  0.00  0.00    +0.043 C 
ATOM     18  C   LIG A   1      -8.219  -2.234 126.746  0.00  0.00    -0.019 C 
ATOM     19  C   LIG A   1      -8.026  -0.857 126.114  0.00  0.00    +0.027 C 
ATOM     20  C   LIG A   1      -8.592  -0.924 124.606  0.00  0.00    +0.020 C 
ATOM     21  O   LIG A   1      -6.769  -4.141 124.270  0.00  0.00    -0.292 OA
BRANCH  20  22
ATOM     22  C   LIG A   1      -8.426   0.378 123.784  0.00  0.00    +0.125 C 
BRANCH  22  23
ATOM     23  C   LIG A   1      -9.596   1.014 123.036  0.00  0.00    +0.307 C 
ATOM     24  O   LIG A   1     -10.523   0.428 122.511  0.00  0.00    -0.251 OA
BRANCH  23  25
ATOM     25  O   LIG A   1      -9.402   2.369 123.052  0.00  0.00    -0.468 OA
ATOM     26  C   LIG A   1      -8.627   2.907 124.123  0.00  0.00    +0.280 C 
ENDBRANCH  23  25
ENDBRANCH  22  23
ENDBRANCH  20  22
ENDBRANCH   1  19
BRANCH   9  27
ATOM     27  C   LIG A   1      -5.659   3.287 129.862  0.00  0.00    -0.006 A 
ATOM     28  C   LIG A   1      -6.455   4.378 129.569  0.00  0.00    +0.198 A 
ATOM     29  O   LIG A   1      -5.711   5.460 129.234  0.00  0.00    -0.471 OA
ATOM     30  C   LIG A   1      -4.413   5.078 129.297  0.00  0.00    +0.195 A 
ATOM     31  C   LIG A   1      -4.321   3.758 129.670  0.00  0.00    +0.045 A 
ENDBRANCH   9  27
BRANCH   2  32
ATOM     32  O   LIG A   1      -4.988   1.563 126.773  0.00  0.00    -0.461 OA
BRANCH  32  33
ATOM     33  C   LIG A   1      -4.634   2.694 126.087  0.00  0.00    +0.304 C 
ATOM     34  C   LIG A   1      -3.212   3.074 126.361  0.00  0.00    +0.136 C 
ATOM     35  O   LIG A   1      -5.374   3.351 125.368  0.00  0.00    -0.251 OA
ENDBRANCH  32  33
ENDBRANCH   2  32
TORSDOF 7
ENDMDL
MODEL 2
REMARK VINA RESULT:      -7.7      2.373      3.611
REMARK  Name = NuBBE_1633
REMARK  12 active torsions:
REMARK  status: ('A' for Active; 'I' for Inactive)
REMARK    1  A    between atoms: C_1  and  C_2
REMARK    2  A    between atoms: C_2  and  C_3
REMARK    3  A    between atoms: C_7  and  C_8
REMARK    4  A    between atoms: C_10  and  O_11
REMARK    5  A    between atoms: O_11  and  C_12
REMARK    6  A    between atoms: C_12  and  C_13
REMARK    7  A    between atoms: C_19  and  C_20
REMARK    8  A    between atoms: C_25  and  C_27
REMARK    9  A    between atoms: C_35  and  C_36
REMARK   10  A    between atoms: C_36  and  C_37
REMARK   11  A    between atoms: C_37  and  O_38
REMARK   12  A    between atoms: O_38  and  C_39
REMARK                            x       y       z     vdW  Elec       q    Type
REMARK                         _______ _______ _______ _____ _____    ______ ____
ROOT
ATOM      1  C   LIG A   1      -6.890   1.047 129.558  0.00  0.00    +0.065 C 
ATOM      2  C   LIG A   1      -7.297   2.500 129.251  0.00  0.00    +0.185 C 
ATOM      3  C   LIG A   1      -8.602   2.904 129.920  0.00  0.00    +0.055 C 
ATOM      4  C   LIG A   1      -8.673   2.703 131.450  0.00  0.00    +0.014 C 
ATOM      5  C   LIG A   1     -10.050   2.041 131.742  0.00  0.00    +0.015 C 
ATOM      6  C   LIG A   1      -7.552   1.796 131.992  0.00  0.00    +0.123 C 
ATOM      7  C   LIG A   1      -6.908   2.490 133.157  0.00  0.00    +0.157 C 
ATOM      8  C   LIG A   1      -7.484   3.836 133.387  0.00  0.00    +0.043 C 
ATOM      9  C   LIG A   1      -8.604   4.028 132.336  0.00  0.00    +0.034 C 
ATOM     10  O   LIG A   1      -7.795   1.395 133.365  0.00  0.00    -0.359 OA
ATOM     11  C   LIG A   1      -6.669   0.975 131.096  0.00  0.00    -0.035 C 
ATOM     12  C   LIG A   1      -5.641   0.238 131.572  0.00  0.00    +0.011 C 
ENDROOT
BRANCH   1  19
ATOM     13  C   LIG A   1      -6.054  -1.149 125.822  0.00  0.00    +0.019 C 
ATOM     14  C   LIG A   1      -6.986  -1.599 126.961  0.00  0.00    +0.031 C 
ATOM     15  C   LIG A   1      -7.800  -2.837 126.487  0.00  0.00    +0.019 C 
ATOM     16  C   LIG A   1      -6.094  -2.141 128.084  0.00  0.00    +0.162 C 
ATOM     17  C   LIG A   1      -6.714  -2.304 129.408  0.00  0.00    +0.043 C 
ATOM     18  C   LIG A   1      -7.586  -1.383 129.806  0.00  0.00    -0.019 C 
ATOM     19  C   LIG A   1      -7.875  -0.103 129.025  0.00  0.00    +0.027 C 
ATOM     20  C   LIG A   1      -8.009  -0.494 127.467  0.00  0.00    +0.020 C 
ATOM     21  O   LIG A   1      -4.948  -2.545 127.919  0.00  0.00    -0.292 OA
BRANCH  20  22
ATOM     22  C   LIG A   1      -8.247   0.698 126.508  0.00  0.00    +0.125 C 
BRANCH  22  23
ATOM     23  C   LIG A   1      -9.321   0.656 125.422  0.00  0.00    +0.307 C 
ATOM     24  O   LIG A   1      -9.787  -0.340 124.903  0.00  0.00    -0.251 OA
BRANCH  23  25
ATOM     25  O   LIG A   1      -9.654   1.951 125.127  0.00  0.00    -0.468 OA
ATOM     26  C   LIG A   1      -8.617   2.795 124.624  0.00  0.00    +0.280 C 
ENDBRANCH  23  25
ENDBRANCH  22  23
ENDBRANCH  20  22
ENDBRANCH   1  19
BRANCH   9  27
ATOM     27  C   LIG A   1      -8.534   5.348 131.612  0.00  0.00    -0.006 A 
ATOM     28  C   LIG A   1      -7.431   6.148 131.384  0.00  0.00    +0.198 A 
ATOM     29  O   LIG A   1      -7.766   7.274 130.709  0.00  0.00    -0.471 OA
ATOM     30  C   LIG A   1      -9.103   7.221 130.498  0.00  0.00    +0.195 A 
ATOM     31  C   LIG A   1      -9.626   6.069 131.034  0.00  0.00    +0.045 A 
ENDBRANCH   9  27
BRANCH   2  32
ATOM     32  O   LIG A   1      -6.248   3.442 129.585  0.00  0.00    -0.461 OA
BRANCH  32  33
ATOM     33  C   LIG A   1      -5.837   4.248 128.559  0.00  0.00    +0.304 C 
ATOM     34  C   LIG A   1      -6.038   3.585 127.231  0.00  0.00    +0.136 C 
ATOM     35  O   LIG A   1      -5.331   5.355 128.682  0.00  0.00    -0.251 OA
ENDBRANCH  32  33
ENDBRANCH   2  32
TORSDOF 7
ENDMDL
MODEL 3
REMARK VINA RESULT:      -7.5      2.420      3.787
REMARK  Name = NuBBE_1633
REMARK  12 active torsions:
REMARK  status: ('A' for Active; 'I' for Inactive)
REMARK    1  A    between atoms: C_1  and  C_2
REMARK    2  A    between atoms: C_2  and  C_3
REMARK    3  A    between atoms: C_7  and  C_8
REMARK    4  A    between atoms: C_10  and  O_11
REMARK    5  A    between atoms: O_11  and  C_12
REMARK    6  A    between atoms: C_12  and  C_13
REMARK    7  A    between atoms: C_19  and  C_20
REMARK    8  A    between atoms: C_25  and  C_27
REMARK    9  A    between atoms: C_35  and  C_36
REMARK   10  A    between atoms: C_36  and  C_37
REMARK   11  A    between atoms: C_37  and  O_38
REMARK   12  A    between atoms: O_38  and  C_39
REMARK                            x       y       z     vdW  Elec       q    Type
REMARK                         _______ _______ _______ _____ _____    ______ ____
ROOT
ATOM      1  C   LIG A   1      -6.671   0.872 129.941  0.00  0.00    +0.065 C 
ATOM      2  C   LIG A   1      -6.844   2.367 129.617  0.00  0.00    +0.185 C 
ATOM      3  C   LIG A   1      -8.024   2.998 130.339  0.00  0.00    +0.055 C 
ATOM      4  C   LIG A   1      -8.046   2.838 131.876  0.00  0.00    +0.014 C 
ATOM      5  C   LIG A   1      -9.497   2.425 132.254  0.00  0.00    +0.015 C 
ATOM      6  C   LIG A   1      -7.066   1.763 132.384  0.00  0.00    +0.123 C 
ATOM      7  C   LIG A   1      -6.253   2.358 133.497  0.00  0.00    +0.157 C 
ATOM      8  C   LIG A   1      -6.580   3.786 133.721  0.00  0.00    +0.043 C 
ATOM      9  C   LIG A   1      -7.707   4.147 132.723  0.00  0.00    +0.034 C 
ATOM     10  O   LIG A   1      -7.299   1.433 133.778  0.00  0.00    -0.359 OA
ATOM     11  C   LIG A   1      -6.384   0.790 131.467  0.00  0.00    -0.035 C 
ATOM     12  C   LIG A   1      -5.471  -0.103 131.910  0.00  0.00    +0.011 C 
ENDROOT
BRANCH   1  19
ATOM     13  C   LIG A   1      -6.084  -2.178 126.805  0.00  0.00    +0.019 C 
ATOM     14  C   LIG A   1      -7.200  -2.156 127.865  0.00  0.00    +0.031 C 
ATOM     15  C   LIG A   1      -8.254  -3.243 127.508  0.00  0.00    +0.019 C 
ATOM     16  C   LIG A   1      -6.581  -2.647 129.178  0.00  0.00    +0.162 C 
ATOM     17  C   LIG A   1      -7.339  -2.387 130.411  0.00  0.00    +0.043 C 
ATOM     18  C   LIG A   1      -7.981  -1.228 130.515  0.00  0.00    -0.019 C 
ATOM     19  C   LIG A   1      -7.864  -0.103 129.488  0.00  0.00    +0.027 C 
ATOM     20  C   LIG A   1      -7.951  -0.765 128.021  0.00  0.00    +0.020 C 
ATOM     21  O   LIG A   1      -5.565  -3.331 129.248  0.00  0.00    -0.292 OA
BRANCH  20  22
ATOM     22  C   LIG A   1      -7.790   0.226 126.842  0.00  0.00    +0.125 C 
BRANCH  22  23
ATOM     23  C   LIG A   1      -8.968   0.616 125.950  0.00  0.00    +0.307 C 
ATOM     24  O   LIG A   1      -9.352   1.744 125.713  0.00  0.00    -0.251 OA
BRANCH  23  25
ATOM     25  O   LIG A   1      -9.522  -0.543 125.477  0.00  0.00    -0.468 OA
ATOM     26  C   LIG A   1      -8.850  -1.199 124.402  0.00  0.00    +0.280 C 
ENDBRANCH  23  25
ENDBRANCH  22  23
ENDBRANCH  20  22
ENDBRANCH   1  19
BRANCH   9  27
ATOM     27  C   LIG A   1      -7.455   5.423 131.962  0.00  0.00    -0.006 A 
ATOM     28  C   LIG A   1      -8.370   6.251 131.340  0.00  0.00    +0.198 A 
ATOM     29  O   LIG A   1      -7.761   7.302 130.740  0.00  0.00    -0.471 OA
ATOM     30  C   LIG A   1      -6.432   7.162 130.959  0.00  0.00    +0.195 A 
ATOM     31  C   LIG A   1      -6.185   6.028 131.696  0.00  0.00    +0.045 A 
ENDBRANCH   9  27
BRANCH   2  32
ATOM     32  O   LIG A   1      -5.635   3.123 129.874  0.00  0.00    -0.461 OA
BRANCH  32  33
ATOM     33  C   LIG A   1      -5.162   3.848 128.814  0.00  0.00    +0.304 C 
ATOM     34  C   LIG A   1      -3.886   3.270 128.284  0.00  0.00    +0.136 C 
ATOM     35  O   LIG A   1      -5.673   4.863 128.360  0.00  0.00    -0.251 OA
ENDBRANCH  32  33
ENDBRANCH   2  32
TORSDOF 7
ENDMDL
MODEL 4
REMARK VINA RESULT:      -7.5      1.944      6.893
REMARK  Name = NuBBE_1633
REMARK  12 active torsions:
REMARK  status: ('A' for Active; 'I' for Inactive)
REMARK    1  A    between atoms: C_1  and  C_2
REMARK    2  A    between atoms: C_2  and  C_3
REMARK    3  A    between atoms: C_7  and  C_8
REMARK    4  A    between atoms: C_10  and  O_11
REMARK    5  A    between atoms: O_11  and  C_12
REMARK    6  A    between atoms: C_12  and  C_13
REMARK    7  A    between atoms: C_19  and  C_20
REMARK    8  A    between atoms: C_25  and  C_27
REMARK    9  A    between atoms: C_35  and  C_36
REMARK   10  A    between atoms: C_36  and  C_37
REMARK   11  A    between atoms: C_37  and  O_38
REMARK   12  A    between atoms: O_38  and  C_39
REMARK                            x       y       z     vdW  Elec       q    Type
REMARK                         _______ _______ _______ _____ _____    ______ ____
ROOT
ATOM      1  C   LIG A   1      -6.945   0.825 128.718  0.00  0.00    +0.065 C 
ATOM      2  C   LIG A   1      -7.326   0.387 127.292  0.00  0.00    +0.185 C 
ATOM      3  C   LIG A   1      -6.571  -0.850 126.829  0.00  0.00    +0.055 C 
ATOM      4  C   LIG A   1      -6.667  -2.088 127.749  0.00  0.00    +0.014 C 
ATOM      5  C   LIG A   1      -5.222  -2.650 127.879  0.00  0.00    +0.015 C 
ATOM      6  C   LIG A   1      -7.208  -1.756 129.153  0.00  0.00    +0.123 C 
ATOM      7  C   LIG A   1      -8.310  -2.725 129.472  0.00  0.00    +0.157 C 
ATOM      8  C   LIG A   1      -8.586  -3.642 128.341  0.00  0.00    +0.043 C 
ATOM      9  C   LIG A   1      -7.579  -3.285 127.221  0.00  0.00    +0.034 C 
ATOM     10  O   LIG A   1      -7.028  -2.860 130.077  0.00  0.00    -0.359 OA
ATOM     11  C   LIG A   1      -7.353  -0.348 129.654  0.00  0.00    -0.035 C 
ATOM     12  C   LIG A   1      -7.896  -0.062 130.858  0.00  0.00    +0.011 C 
ENDROOT
BRANCH   1  19
ATOM     13  C   LIG A   1      -5.974   4.883 130.157  0.00  0.00    +0.019 C 
ATOM     14  C   LIG A   1      -5.057   3.647 130.210  0.00  0.00    +0.031 C 
ATOM     15  C   LIG A   1      -3.626   4.100 130.617  0.00  0.00    +0.019 C 
ATOM     16  C   LIG A   1      -5.531   2.787 131.386  0.00  0.00    +0.162 C 
ATOM     17  C   LIG A   1      -5.051   1.398 131.432  0.00  0.00    +0.043 C 
ATOM     18  C   LIG A   1      -4.948   0.736 130.284  0.00  0.00    -0.019 C 
ATOM     19  C   LIG A   1      -5.425   1.292 128.944  0.00  0.00    +0.027 C 
ATOM     20  C   LIG A   1      -4.954   2.830 128.852  0.00  0.00    +0.020 C 
ATOM     21  O   LIG A   1      -6.183   3.214 132.334  0.00  0.00    -0.292 OA
BRANCH  20  22
ATOM     22  C   LIG A   1      -5.405   3.580 127.574  0.00  0.00    +0.125 C 
BRANCH  22  23
ATOM     23  C   LIG A   1      -4.534   4.652 126.920  0.00  0.00    +0.307 C 
ATOM     24  O   LIG A   1      -3.321   4.711 126.942  0.00  0.00    -0.251 OA
BRANCH  23  25
ATOM     25  O   LIG A   1      -5.376   5.545 126.312  0.00  0.00    -0.468 OA
ATOM     26  C   LIG A   1      -6.183   5.060 125.240  0.00  0.00    +0.280 C 
ENDBRANCH  23  25
ENDBRANCH  22  23
ENDBRANCH  20  22
ENDBRANCH   1  19
BRANCH   9  27
ATOM     27  C   LIG A   1      -8.214  -3.131 125.862  0.00  0.00    -0.006 A 
ATOM     28  C   LIG A   1      -9.540  -2.899 125.553  0.00  0.00    +0.198 A 
ATOM     29  O   LIG A   1      -9.734  -2.838 124.214  0.00  0.00    -0.471 OA
ATOM     30  C   LIG A   1      -8.527  -3.040 123.633  0.00  0.00    +0.195 A 
ATOM     31  C   LIG A   1      -7.561  -3.231 124.593  0.00  0.00    +0.045 A 
ENDBRANCH   9  27
BRANCH   2  32
ATOM     32  O   LIG A   1      -8.753   0.189 127.145  0.00  0.00    -0.461 OA
BRANCH  32  33
ATOM     33  C   LIG A   1      -9.313   0.765 126.037  0.00  0.00    +0.304 C 
ATOM     34  C   LIG A   1      -8.517   1.946 125.575  0.00  0.00    +0.136 C 
ATOM     35  O   LIG A   1     -10.350   0.406 125.496  0.00  0.00    -0.251 OA
ENDBRANCH  32  33
ENDBRANCH   2  32
TORSDOF 7
ENDMDL
MODEL 5
REMARK VINA RESULT:      -7.2      2.826      4.842
REMARK  Name = NuBBE_1633
REMARK  12 active torsions:
REMARK  status: ('A' for Active; 'I' for Inactive)
REMARK    1  A    between atoms: C_1  and  C_2
REMARK    2  A    between atoms: C_2  and  C_3
REMARK    3  A    between atoms: C_7  and  C_8
REMARK    4  A    between atoms: C_10  and  O_11
REMARK    5  A    between atoms: O_11  and  C_12
REMARK    6  A    between atoms: C_12  and  C_13
REMARK    7  A    between atoms: C_19  and  C_20
REMARK    8  A    between atoms: C_25  and  C_27
REMARK    9  A    between atoms: C_35  and  C_36
REMARK   10  A    between atoms: C_36  and  C_37
REMARK   11  A    between atoms: C_37  and  O_38
REMARK   12  A    between atoms: O_38  and  C_39
REMARK                            x       y       z     vdW  Elec       q    Type
REMARK                         _______ _______ _______ _____ _____    ______ ____
ROOT
ATOM      1  C   LIG A   1      -7.408   1.570 129.466  0.00  0.00    +0.065 C 
ATOM      2  C   LIG A   1      -8.355   2.737 129.127  0.00  0.00    +0.185 C 
ATOM      3  C   LIG A   1      -9.408   2.976 130.199  0.00  0.00    +0.055 C 
ATOM      4  C   LIG A   1      -8.881   3.193 131.634  0.00  0.00    +0.014 C 
ATOM      5  C   LIG A   1      -9.770   2.321 132.565  0.00  0.00    +0.015 C 
ATOM      6  C   LIG A   1      -7.408   2.774 131.805  0.00  0.00    +0.123 C 
ATOM      7  C   LIG A   1      -6.675   3.899 132.479  0.00  0.00    +0.157 C 
ATOM      8  C   LIG A   1      -7.551   5.072 132.708  0.00  0.00    +0.043 C 
ATOM      9  C   LIG A   1      -8.959   4.686 132.192  0.00  0.00    +0.034 C 
ATOM     10  O   LIG A   1      -7.019   2.720 133.202  0.00  0.00    -0.359 OA
ATOM     11  C   LIG A   1      -6.665   1.982 130.769  0.00  0.00    -0.035 C 
ATOM     12  C   LIG A   1      -5.353   1.680 130.893  0.00  0.00    +0.011 C 
ENDROOT
BRANCH   1  19
ATOM     13  C   LIG A   1      -5.338  -2.018 127.945  0.00  0.00    +0.019 C 
ATOM     14  C   LIG A   1      -6.490  -1.988 128.967  0.00  0.00    +0.031 C 
ATOM     15  C   LIG A   1      -6.996  -3.440 129.199  0.00  0.00    +0.019 C 
ATOM     16  C   LIG A   1      -5.883  -1.580 130.314  0.00  0.00    +0.162 C 
ATOM     17  C   LIG A   1      -6.818  -1.140 131.361  0.00  0.00    +0.043 C 
ATOM     18  C   LIG A   1      -7.864  -0.407 130.993  0.00  0.00    -0.019 C 
ATOM     19  C   LIG A   1      -8.073   0.113 129.572  0.00  0.00    +0.027 C 
ATOM     20  C   LIG A   1      -7.731  -1.087 128.553  0.00  0.00    +0.020 C 
ATOM     21  O   LIG A   1      -4.697  -1.704 130.602  0.00  0.00    -0.292 OA
BRANCH  20  22
ATOM     22  C   LIG A   1      -7.831  -0.723 127.051  0.00  0.00    +0.125 C 
BRANCH  22  23
ATOM     23  C   LIG A   1      -8.859  -1.377 126.130  0.00  0.00    +0.307 C 
ATOM     24  O   LIG A   1      -9.762  -0.817 125.541  0.00  0.00    -0.251 OA
BRANCH  23  25
ATOM     25  O   LIG A   1      -8.585  -2.719 126.100  0.00  0.00    -0.468 OA
ATOM     26  C   LIG A   1      -7.594  -3.164 125.173  0.00  0.00    +0.280 C 
ENDBRANCH  23  25
ENDBRANCH  22  23
ENDBRANCH  20  22
ENDBRANCH   1  19
BRANCH   9  27
ATOM     27  C   LIG A   1      -9.585   5.730 131.304  0.00  0.00    -0.006 A 
ATOM     28  C   LIG A   1     -10.924   5.943 131.037  0.00  0.00    +0.198 A 
ATOM     29  O   LIG A   1     -11.099   6.970 130.171  0.00  0.00    -0.471 OA
ATOM     30  C   LIG A   1      -9.865   7.433 129.857  0.00  0.00    +0.195 A 
ATOM     31  C   LIG A   1      -8.901   6.709 130.516  0.00  0.00    +0.045 A 
ENDBRANCH   9  27
BRANCH   2  32
ATOM     32  O   LIG A   1      -7.633   3.961 128.849  0.00  0.00    -0.461 OA
BRANCH  32  33
ATOM     33  C   LIG A   1      -7.773   4.447 127.577  0.00  0.00    +0.304 C 
ATOM     34  C   LIG A   1      -6.655   3.987 126.693  0.00  0.00    +0.136 C 
ATOM     35  O   LIG A   1      -8.663   5.193 127.193  0.00  0.00    -0.251 OA
ENDBRANCH  32  33
ENDBRANCH   2  32
TORSDOF 7
ENDMDL
MODEL 6
REMARK VINA RESULT:      -7.0      2.048      6.568
REMARK  Name = NuBBE_1633
REMARK  12 active torsions:
REMARK  status: ('A' for Active; 'I' for Inactive)
REMARK    1  A    between atoms: C_1  and  C_2
REMARK    2  A    between atoms: C_2  and  C_3
REMARK    3  A    between atoms: C_7  and  C_8
REMARK    4  A    between atoms: C_10  and  O_11
REMARK    5  A    between atoms: O_11  and  C_12
REMARK    6  A    between atoms: C_12  and  C_13
REMARK    7  A    between atoms: C_19  and  C_20
REMARK    8  A    between atoms: C_25  and  C_27
REMARK    9  A    between atoms: C_35  and  C_36
REMARK   10  A    between atoms: C_36  and  C_37
REMARK   11  A    between atoms: C_37  and  O_38
REMARK   12  A    between atoms: O_38  and  C_39
REMARK                            x       y       z     vdW  Elec       q    Type
REMARK                         _______ _______ _______ _____ _____    ______ ____
ROOT
ATOM      1  C   LIG A   1      -6.723  -0.827 128.568  0.00  0.00    +0.065 C 
ATOM      2  C   LIG A   1      -6.884   0.414 127.672  0.00  0.00    +0.185 C 
ATOM      3  C   LIG A   1      -6.216   0.256 126.314  0.00  0.00    +0.055 C 
ATOM      4  C   LIG A   1      -6.635  -0.982 125.490  0.00  0.00    +0.014 C 
ATOM      5  C   LIG A   1      -5.321  -1.605 124.938  0.00  0.00    +0.015 C 
ATOM      6  C   LIG A   1      -7.382  -2.038 126.327  0.00  0.00    +0.123 C 
ATOM      7  C   LIG A   1      -8.636  -2.417 125.593  0.00  0.00    +0.157 C 
ATOM      8  C   LIG A   1      -8.809  -1.630 124.350  0.00  0.00    +0.043 C 
ATOM      9  C   LIG A   1      -7.575  -0.703 124.232  0.00  0.00    +0.034 C 
ATOM     10  O   LIG A   1      -7.516  -3.296 125.617  0.00  0.00    -0.359 OA
ATOM     11  C   LIG A   1      -7.440  -1.991 127.827  0.00  0.00    -0.035 C 
ATOM     12  C   LIG A   1      -8.158  -2.879 128.550  0.00  0.00    +0.011 C 
ENDROOT
BRANCH   1  19
ATOM     13  C   LIG A   1      -5.623  -1.325 132.813  0.00  0.00    +0.019 C 
ATOM     14  C   LIG A   1      -4.851  -1.868 131.596  0.00  0.00    +0.031 C 
ATOM     15  C   LIG A   1      -3.473  -2.408 132.074  0.00  0.00    +0.019 C 
ATOM     16  C   LIG A   1      -5.598  -3.116 131.111  0.00  0.00    +0.162 C 
ATOM     17  C   LIG A   1      -5.269  -3.609 129.765  0.00  0.00    +0.043 C 
ATOM     18  C   LIG A   1      -5.038  -2.712 128.812  0.00  0.00    -0.019 C 
ATOM     19  C   LIG A   1      -5.226  -1.208 129.005  0.00  0.00    +0.027 C 
ATOM     20  C   LIG A   1      -4.599  -0.812 130.436  0.00  0.00    +0.020 C 
ATOM     21  O   LIG A   1      -6.357  -3.780 131.810  0.00  0.00    -0.292 OA
BRANCH  20  22
ATOM     22  C   LIG A   1      -4.753   0.677 130.832  0.00  0.00    +0.125 C 
BRANCH  22  23
ATOM     23  C   LIG A   1      -4.098   1.797 130.025  0.00  0.00    +0.307 C 
ATOM     24  O   LIG A   1      -3.912   1.809 128.824  0.00  0.00    -0.251 OA
BRANCH  23  25
ATOM     25  O   LIG A   1      -3.743   2.782 130.907  0.00  0.00    -0.468 OA
ATOM     26  C   LIG A   1      -3.940   2.518 132.297  0.00  0.00    +0.280 C 
ENDBRANCH  23  25
ENDBRANCH  22  23
ENDBRANCH  20  22
ENDBRANCH   1  19
BRANCH   9  27
ATOM     27  C   LIG A   1      -7.922   0.731 123.926  0.00  0.00    -0.006 A 
ATOM     28  C   LIG A   1      -9.123   1.386 124.118  0.00  0.00    +0.198 A 
ATOM     29  O   LIG A   1      -9.058   2.674 123.703  0.00  0.00    -0.471 OA
ATOM     30  C   LIG A   1      -7.805   2.868 123.223  0.00  0.00    +0.195 A 
ATOM     31  C   LIG A   1      -7.069   1.712 123.329  0.00  0.00    +0.045 A 
ENDBRANCH   9  27
BRANCH   2  32
ATOM     32  O   LIG A   1      -8.272   0.792 127.509  0.00  0.00    -0.461 OA
BRANCH  32  33
ATOM     33  C   LIG A   1      -8.567   2.090 127.829  0.00  0.00    +0.304 C 
ATOM     34  C   LIG A   1      -8.878   2.233 129.287  0.00  0.00    +0.136 C 
ATOM     35  O   LIG A   1      -8.617   3.024 127.042  0.00  0.00    -0.251 OA
ENDBRANCH  32  33
ENDBRANCH   2  32
TORSDOF 7
ENDMDL
MODEL 7
REMARK VINA RESULT:      -7.0      3.005      6.976
REMARK  Name = NuBBE_1633
REMARK  12 active torsions:
REMARK  status: ('A' for Active; 'I' for Inactive)
REMARK    1  A    between atoms: C_1  and  C_2
REMARK    2  A    between atoms: C_2  and  C_3
REMARK    3  A    between atoms: C_7  and  C_8
REMARK    4  A    between atoms: C_10  and  O_11
REMARK    5  A    between atoms: O_11  and  C_12
REMARK    6  A    between atoms: C_12  and  C_13
REMARK    7  A    between atoms: C_19  and  C_20
REMARK    8  A    between atoms: C_25  and  C_27
REMARK    9  A    between atoms: C_35  and  C_36
REMARK   10  A    between atoms: C_36  and  C_37
REMARK   11  A    between atoms: C_37  and  O_38
REMARK   12  A    between atoms: O_38  and  C_39
REMARK                            x       y       z     vdW  Elec       q    Type
REMARK                         _______ _______ _______ _____ _____    ______ ____
ROOT
ATOM      1  C   LIG A   1      -6.333   2.613 129.784  0.00  0.00    +0.065 C 
ATOM      2  C   LIG A   1      -6.934   2.763 128.374  0.00  0.00    +0.185 C 
ATOM      3  C   LIG A   1      -6.469   4.024 127.662  0.00  0.00    +0.055 C 
ATOM      4  C   LIG A   1      -4.940   4.217 127.550  0.00  0.00    +0.014 C 
ATOM      5  C   LIG A   1      -4.655   5.697 127.934  0.00  0.00    +0.015 C 
ATOM      6  C   LIG A   1      -4.145   3.289 128.489  0.00  0.00    +0.123 C 
ATOM      7  C   LIG A   1      -3.073   2.613 127.684  0.00  0.00    +0.157 C 
ATOM      8  C   LIG A   1      -3.144   2.978 126.250  0.00  0.00    +0.043 C 
ATOM      9  C   LIG A   1      -4.307   3.989 126.103  0.00  0.00    +0.034 C 
ATOM     10  O   LIG A   1      -2.749   3.675 128.576  0.00  0.00    -0.359 OA
ATOM     11  C   LIG A   1      -4.795   2.498 129.588  0.00  0.00    -0.035 C 
ATOM     12  C   LIG A   1      -4.103   1.632 130.361  0.00  0.00    +0.011 C 
ENDROOT
BRANCH   1  19
ATOM     13  C   LIG A   1      -9.683   2.019 132.595  0.00  0.00    +0.019 C 
ATOM     14  C   LIG A   1      -8.527   3.024 132.746  0.00  0.00    +0.031 C 
ATOM     15  C   LIG A   1      -8.850   3.990 133.921  0.00  0.00    +0.019 C 
ATOM     16  C   LIG A   1      -7.306   2.234 133.230  0.00  0.00    +0.162 C 
ATOM     17  C   LIG A   1      -5.996   2.894 133.114  0.00  0.00    +0.043 C 
ATOM     18  C   LIG A   1      -5.767   3.638 132.037  0.00  0.00    -0.019 C 
ATOM     19  C   LIG A   1      -6.733   3.737 130.858  0.00  0.00    +0.027 C 
ATOM     20  C   LIG A   1      -8.223   3.895 131.453  0.00  0.00    +0.020 C 
ATOM     21  O   LIG A   1      -7.368   1.151 133.803  0.00  0.00    -0.292 OA
BRANCH  20  22
ATOM     22  C   LIG A   1      -9.351   3.951 130.394  0.00  0.00    +0.125 C 
BRANCH  22  23
ATOM     23  C   LIG A   1      -9.721   5.250 129.678  0.00  0.00    +0.307 C 
ATOM     24  O   LIG A   1      -8.949   6.060 129.205  0.00  0.00    -0.251 OA
BRANCH  23  25
ATOM     25  O   LIG A   1     -11.087   5.341 129.681  0.00  0.00    -0.468 OA
ATOM     26  C   LIG A   1     -11.690   6.104 130.727  0.00  0.00    +0.280 C 
ENDBRANCH  23  25
ENDBRANCH  22  23
ENDBRANCH  20  22
ENDBRANCH   1  19
BRANCH   9  27
ATOM     27  C   LIG A   1      -5.251   3.665 124.973  0.00  0.00    -0.006 A 
ATOM     28  C   LIG A   1      -5.898   2.474 124.706  0.00  0.00    +0.198 A 
ATOM     29  O   LIG A   1      -6.655   2.562 123.585  0.00  0.00    -0.471 OA
ATOM     30  C   LIG A   1      -6.499   3.818 123.104  0.00  0.00    +0.195 A 
ATOM     31  C   LIG A   1      -5.647   4.536 123.909  0.00  0.00    +0.045 A 
ENDBRANCH   9  27
BRANCH   2  32
ATOM     32  O   LIG A   1      -6.686   1.599 127.549  0.00  0.00    -0.461 OA
BRANCH  32  33
ATOM     33  C   LIG A   1      -7.742   0.739 127.417  0.00  0.00    +0.304 C 
ATOM     34  C   LIG A   1      -7.529  -0.513 128.211  0.00  0.00    +0.136 C 
ATOM     35  O   LIG A   1      -8.728   0.924 126.717  0.00  0.00    -0.251 OA
ENDBRANCH  32  33
ENDBRANCH   2  32
TORSDOF 7
ENDMDL
MODEL 8
REMARK VINA RESULT:      -6.9      2.327      7.489
REMARK  Name = NuBBE_1633
REMARK  12 active torsions:
REMARK  status: ('A' for Active; 'I' for Inactive)
REMARK    1  A    between atoms: C_1  and  C_2
REMARK    2  A    between atoms: C_2  and  C_3
REMARK    3  A    between atoms: C_7  and  C_8
REMARK    4  A    between atoms: C_10  and  O_11
REMARK    5  A    between atoms: O_11  and  C_12
REMARK    6  A    between atoms: C_12  and  C_13
REMARK    7  A    between atoms: C_19  and  C_20
REMARK    8  A    between atoms: C_25  and  C_27
REMARK    9  A    between atoms: C_35  and  C_36
REMARK   10  A    between atoms: C_36  and  C_37
REMARK   11  A    between atoms: C_37  and  O_38
REMARK   12  A    between atoms: O_38  and  C_39
REMARK                            x       y       z     vdW  Elec       q    Type
REMARK                         _______ _______ _______ _____ _____    ______ ____
ROOT
ATOM      1  C   LIG A   1      -6.110   0.762 130.308  0.00  0.00    +0.065 C 
ATOM      2  C   LIG A   1      -6.455   0.702 128.809  0.00  0.00    +0.185 C 
ATOM      3  C   LIG A   1      -5.773  -0.452 128.089  0.00  0.00    +0.055 C 
ATOM      4  C   LIG A   1      -6.002  -1.858 128.687  0.00  0.00    +0.014 C 
ATOM      5  C   LIG A   1      -4.610  -2.552 128.721  0.00  0.00    +0.015 C 
ATOM      6  C   LIG A   1      -6.582  -1.819 130.114  0.00  0.00    +0.123 C 
ATOM      7  C   LIG A   1      -7.766  -2.741 130.164  0.00  0.00    +0.157 C 
ATOM      8  C   LIG A   1      -8.056  -3.343 128.841  0.00  0.00    +0.043 C 
ATOM      9  C   LIG A   1      -6.974  -2.820 127.866  0.00  0.00    +0.034 C 
ATOM     10  O   LIG A   1      -6.527  -3.119 130.756  0.00  0.00    -0.359 OA
ATOM     11  C   LIG A   1      -6.645  -0.559 130.929  0.00  0.00    -0.035 C 
ATOM     12  C   LIG A   1      -7.221  -0.518 132.151  0.00  0.00    +0.011 C 
ENDROOT
BRANCH   1  19
ATOM     13  C   LIG A   1      -4.874   4.433 132.423  0.00  0.00    +0.019 C 
ATOM     14  C   LIG A   1      -4.076   3.120 132.323  0.00  0.00    +0.031 C 
ATOM     15  C   LIG A   1      -2.639   3.361 132.867  0.00  0.00    +0.019 C 
ATOM     16  C   LIG A   1      -4.699   2.139 133.322  0.00  0.00    +0.162 C 
ATOM     17  C   LIG A   1      -4.349   0.719 133.169  0.00  0.00    +0.043 C 
ATOM     18  C   LIG A   1      -4.232   0.235 131.936  0.00  0.00    -0.019 C 
ATOM     19  C   LIG A   1      -4.572   1.036 130.680  0.00  0.00    +0.027 C 
ATOM     20  C   LIG A   1      -3.960   2.516 130.858  0.00  0.00    +0.020 C 
ATOM     21  O   LIG A   1      -5.369   2.476 134.293  0.00  0.00    -0.292 OA
BRANCH  20  22
ATOM     22  C   LIG A   1      -4.259   3.495 129.697  0.00  0.00    +0.125 C 
BRANCH  22  23
ATOM     23  C   LIG A   1      -3.143   4.220 128.946  0.00  0.00    +0.307 C 
ATOM     24  O   LIG A   1      -2.520   3.796 127.992  0.00  0.00    -0.251 OA
BRANCH  23  25
ATOM     25  O   LIG A   1      -2.962   5.433 129.555  0.00  0.00    -0.468 OA
ATOM     26  C   LIG A   1      -2.188   6.407 128.855  0.00  0.00    +0.280 C 
ENDBRANCH  23  25
ENDBRANCH  22  23
ENDBRANCH  20  22
ENDBRANCH   1  19
BRANCH   9  27
ATOM     27  C   LIG A   1      -7.532  -2.301 126.565  0.00  0.00    -0.006 A 
ATOM     28  C   LIG A   1      -6.939  -2.291 125.317  0.00  0.00    +0.198 A 
ATOM     29  O   LIG A   1      -7.748  -1.724 124.389  0.00  0.00    -0.471 OA
ATOM     30  C   LIG A   1      -8.880  -1.349 125.032  0.00  0.00    +0.195 A 
ATOM     31  C   LIG A   1      -8.801  -1.672 126.365  0.00  0.00    +0.045 A 
ENDBRANCH   9  27
BRANCH   2  32
ATOM     32  O   LIG A   1      -7.885   0.662 128.580  0.00  0.00    -0.461 OA
BRANCH  32  33
ATOM     33  C   LIG A   1      -8.457   1.858 128.241  0.00  0.00    +0.304 C 
ATOM     34  C   LIG A   1      -8.926   2.600 129.454  0.00  0.00    +0.136 C 
ATOM     35  O   LIG A   1      -8.614   2.275 127.102  0.00  0.00    -0.251 OA
ENDBRANCH  32  33
ENDBRANCH   2  32
TORSDOF 7
ENDMDL
MODEL 9
REMARK VINA RESULT:      -6.9      4.354      8.732
REMARK  Name = NuBBE_1633
REMARK  12 active torsions:
REMARK  status: ('A' for Active; 'I' for Inactive)
REMARK    1  A    between atoms: C_1  and  C_2
REMARK    2  A    between atoms: C_2  and  C_3
REMARK    3  A    between atoms: C_7  and  C_8
REMARK    4  A    between atoms: C_10  and  O_11
REMARK    5  A    between atoms: O_11  and  C_12
REMARK    6  A    between atoms: C_12  and  C_13
REMARK    7  A    between atoms: C_19  and  C_20
REMARK    8  A    between atoms: C_25  and  C_27
REMARK    9  A    between atoms: C_35  and  C_36
REMARK   10  A    between atoms: C_36  and  C_37
REMARK   11  A    between atoms: C_37  and  O_38
REMARK   12  A    between atoms: O_38  and  C_39
REMARK                            x       y       z     vdW  Elec       q    Type
REMARK                         _______ _______ _______ _____ _____    ______ ____
ROOT
ATOM      1  C   LIG A   1      -6.121   4.310 130.607  0.00  0.00    +0.065 C 
ATOM      2  C   LIG A   1      -5.840   2.803 130.757  0.00  0.00    +0.185 C 
ATOM      3  C   LIG A   1      -6.288   2.247 132.100  0.00  0.00    +0.055 C 
ATOM      4  C   LIG A   1      -7.764   2.496 132.481  0.00  0.00    +0.014 C 
ATOM      5  C   LIG A   1      -7.761   2.970 133.963  0.00  0.00    +0.015 C 
ATOM      6  C   LIG A   1      -8.439   3.572 131.609  0.00  0.00    +0.123 C 
ATOM      7  C   LIG A   1      -9.743   3.021 131.109  0.00  0.00    +0.157 C 
ATOM      8  C   LIG A   1      -9.952   1.618 131.538  0.00  0.00    +0.043 C 
ATOM      9  C   LIG A   1      -8.731   1.230 132.407  0.00  0.00    +0.034 C 
ATOM     10  O   LIG A   1      -9.718   3.988 132.155  0.00  0.00    -0.359 OA
ATOM     11  C   LIG A   1      -7.666   4.472 130.689  0.00  0.00    -0.035 C 
ATOM     12  C   LIG A   1      -8.271   5.364 129.873  0.00  0.00    +0.011 C 
ENDROOT
BRANCH   1  19
ATOM     13  C   LIG A   1      -2.132   5.929 129.635  0.00  0.00    +0.019 C 
ATOM     14  C   LIG A   1      -3.123   6.492 130.671  0.00  0.00    +0.031 C 
ATOM     15  C   LIG A   1      -2.402   7.578 131.518  0.00  0.00    +0.019 C 
ATOM     16  C   LIG A   1      -4.192   7.266 129.893  0.00  0.00    +0.162 C 
ATOM     17  C   LIG A   1      -5.431   7.597 130.614  0.00  0.00    +0.043 C 
ATOM     18  C   LIG A   1      -5.922   6.695 131.457  0.00  0.00    -0.019 C 
ATOM     19  C   LIG A   1      -5.347   5.289 131.616  0.00  0.00    +0.027 C 
ATOM     20  C   LIG A   1      -3.741   5.415 131.662  0.00  0.00    +0.020 C 
ATOM     21  O   LIG A   1      -4.033   7.717 128.763  0.00  0.00    -0.292 OA
BRANCH  20  22
ATOM     22  C   LIG A   1      -2.978   4.071 131.762  0.00  0.00    +0.125 C 
BRANCH  22  23
ATOM     23  C   LIG A   1      -2.858   3.308 133.080  0.00  0.00    +0.307 C 
ATOM     24  O   LIG A   1      -2.560   2.138 133.214  0.00  0.00    -0.251 OA
BRANCH  23  25
ATOM     25  O   LIG A   1      -3.165   4.184 134.087  0.00  0.00    -0.468 OA
ATOM     26  C   LIG A   1      -3.915   3.676 135.191  0.00  0.00    +0.280 C 
ENDBRANCH  23  25
ENDBRANCH  22  23
ENDBRANCH  20  22
ENDBRANCH   1  19
BRANCH   9  27
ATOM     27  C   LIG A   1      -8.118  -0.095 132.032  0.00  0.00    -0.006 A 
ATOM     28  C   LIG A   1      -7.369  -0.950 132.817  0.00  0.00    +0.198 A 
ATOM     29  O   LIG A   1      -6.973  -2.043 132.121  0.00  0.00    -0.471 OA
ATOM     30  C   LIG A   1      -7.457  -1.904 130.864  0.00  0.00    +0.195 A 
ATOM     31  C   LIG A   1      -8.160  -0.728 130.750  0.00  0.00    +0.045 A 
ENDBRANCH   9  27
BRANCH   2  32
ATOM     32  O   LIG A   1      -6.417   2.031 129.675  0.00  0.00    -0.461 OA
BRANCH  32  33
ATOM     33  C   LIG A   1      -5.516   1.471 128.811  0.00  0.00    +0.304 C 
ATOM     34  C   LIG A   1      -4.783   0.333 129.450  0.00  0.00    +0.136 C 
ATOM     35  O   LIG A   1      -5.291   1.854 127.671  0.00  0.00    -0.251 OA
ENDBRANCH  32  33
ENDBRANCH   2  32
TORSDOF 7
ENDMDL
