MODEL 1
REMARK VINA RESULT:      -7.9      0.000      0.000
REMARK  Name = NuBBE_1578
REMARK  10 active torsions:
REMARK  status: ('A' for Active; 'I' for Inactive)
REMARK    1  A    between atoms: C_1  and  C_2
REMARK    2  A    between atoms: C_7  and  O_23
REMARK    3  A    between atoms: C_9  and  O_19
REMARK    4  A    between atoms: C_13  and  C_14
REMARK    5  A    between atoms: C_13  and  C_15
REMARK    6  A    between atoms: O_19  and  C_20
REMARK    7  A    between atoms: C_20  and  C_22
REMARK    8  A    between atoms: O_23  and  C_24
REMARK    9  A    between atoms: C_24  and  C_26
REMARK   10  A    between atoms: C_27  and  C_29
REMARK                            x       y       z     vdW  Elec       q    Type
REMARK                         _______ _______ _______ _____ _____    ______ ____
ROOT
ATOM      1  C   LIG A   1      -8.467   1.400 127.668  0.00  0.00    +0.012 C 
ATOM      2  C   LIG A   1      -7.456   0.494 126.898  0.00  0.00    -0.022 C 
ATOM      3  C   LIG A   1      -6.159   1.308 126.525  0.00  0.00    +0.010 C 
ATOM      4  C   LIG A   1      -6.499   2.600 125.692  0.00  0.00    +0.045 C 
ATOM      5  C   LIG A   1      -7.333   2.246 124.432  0.00  0.00    +0.221 C 
ATOM      6  C   LIG A   1      -8.329   1.041 124.488  0.00  0.00    +0.221 C 
ATOM      7  C   LIG A   1      -8.153  -0.052 125.590  0.00  0.00    +0.045 C 
ATOM      8  C   LIG A   1      -7.638  -1.461 125.020  0.00  0.00    -0.028 C 
ATOM      9  C   LIG A   1      -8.735  -2.088 124.116  0.00  0.00    +0.011 C 
ATOM     10  C   LIG A   1      -6.380  -1.425 124.143  0.00  0.00    +0.011 C 
ATOM     11  C   LIG A   1      -7.348  -2.456 126.167  0.00  0.00    +0.007 C 
ATOM     12  C   LIG A   1      -6.455  -1.858 127.242  0.00  0.00    +0.001 C 
ATOM     13  C   LIG A   1      -7.165  -0.678 127.877  0.00  0.00    +0.007 C 
ATOM     14  C   LIG A   1      -5.317   3.606 125.365  0.00  0.00    +0.026 C 
ATOM     15  C   LIG A   1      -5.772   5.071 125.478  0.00  0.00    +0.013 C 
ATOM     16  C   LIG A   1      -4.125   3.369 126.226  0.00  0.00    -0.003 A 
ATOM     17  C   LIG A   1      -4.126   2.484 127.272  0.00  0.00    +0.109 A 
ATOM     18  C   LIG A   1      -5.228   1.618 127.730  0.00  0.00    +0.079 C 
ATOM     19  O   LIG A   1      -2.916   2.425 127.875  0.00  0.00    -0.468 OA
ATOM     20  C   LIG A   1      -2.115   3.288 127.191  0.00  0.00    +0.195 A 
ATOM     21  C   LIG A   1      -2.812   3.894 126.168  0.00  0.00    +0.045 A 
ENDROOT
BRANCH   6  22
ATOM     22  O   LIG A   1      -9.646   1.645 124.665  0.00  0.00    -0.458 OA
BRANCH  22  23
ATOM     23  C   LIG A   1     -10.576   1.259 123.743  0.00  0.00    +0.304 C 
ATOM     24  O   LIG A   1     -11.786   1.228 123.919  0.00  0.00    -0.251 OA
ATOM     25  C   LIG A   1      -9.890   0.744 122.515  0.00  0.00    +0.136 C 
ENDBRANCH  22  23
ENDBRANCH   6  22
BRANCH   5  26
ATOM     26  O   LIG A   1      -6.656   2.211 123.148  0.00  0.00    -0.458 OA
BRANCH  26  27
ATOM     27  C   LIG A   1      -6.953   3.098 122.165  0.00  0.00    +0.304 C 
ATOM     28  O   LIG A   1      -8.055   3.407 121.785  0.00  0.00    -0.251 OA
ATOM     29  C   LIG A   1      -5.701   3.709 121.622  0.00  0.00    +0.136 C 
ENDBRANCH  26  27
ENDBRANCH   5  26
TORSDOF 4
ENDMDL
MODEL 2
REMARK VINA RESULT:      -7.7      2.815      4.444
REMARK  Name = NuBBE_1578
REMARK  10 active torsions:
REMARK  status: ('A' for Active; 'I' for Inactive)
REMARK    1  A    between atoms: C_1  and  C_2
REMARK    2  A    between atoms: C_7  and  O_23
REMARK    3  A    between atoms: C_9  and  O_19
REMARK    4  A    between atoms: C_13  and  C_14
REMARK    5  A    between atoms: C_13  and  C_15
REMARK    6  A    between atoms: O_19  and  C_20
REMARK    7  A    between atoms: C_20  and  C_22
REMARK    8  A    between atoms: O_23  and  C_24
REMARK    9  A    between atoms: C_24  and  C_26
REMARK   10  A    between atoms: C_27  and  C_29
REMARK                            x       y       z     vdW  Elec       q    Type
REMARK                         _______ _______ _______ _____ _____    ______ ____
ROOT
ATOM      1  C   LIG A   1      -7.613   0.572 129.795  0.00  0.00    +0.012 C 
ATOM      2  C   LIG A   1      -6.206  -0.103 129.815  0.00  0.00    -0.022 C 
ATOM      3  C   LIG A   1      -5.229   0.629 128.819  0.00  0.00    +0.010 C 
ATOM      4  C   LIG A   1      -5.808   0.671 127.356  0.00  0.00    +0.045 C 
ATOM      5  C   LIG A   1      -6.167  -0.755 126.859  0.00  0.00    +0.221 C 
ATOM      6  C   LIG A   1      -6.664  -1.821 127.890  0.00  0.00    +0.221 C 
ATOM      7  C   LIG A   1      -6.363  -1.621 129.409  0.00  0.00    +0.045 C 
ATOM      8  C   LIG A   1      -5.275  -2.649 129.988  0.00  0.00    -0.028 C 
ATOM      9  C   LIG A   1      -5.855  -4.090 129.961  0.00  0.00    +0.011 C 
ATOM     10  C   LIG A   1      -3.949  -2.746 129.222  0.00  0.00    +0.011 C 
ATOM     11  C   LIG A   1      -4.914  -2.315 131.454  0.00  0.00    +0.007 C 
ATOM     12  C   LIG A   1      -4.546  -0.852 131.641  0.00  0.00    +0.001 C 
ATOM     13  C   LIG A   1      -5.746   0.009 131.296  0.00  0.00    +0.007 C 
ATOM     14  C   LIG A   1      -5.013   1.503 126.265  0.00  0.00    +0.026 C 
ATOM     15  C   LIG A   1      -5.966   2.267 125.329  0.00  0.00    +0.013 C 
ATOM     16  C   LIG A   1      -4.034   2.441 126.880  0.00  0.00    -0.003 A 
ATOM     17  C   LIG A   1      -3.953   2.655 128.231  0.00  0.00    +0.109 A 
ATOM     18  C   LIG A   1      -4.754   2.029 129.300  0.00  0.00    +0.079 C 
ATOM     19  O   LIG A   1      -2.964   3.524 128.540  0.00  0.00    -0.468 OA
ATOM     20  C   LIG A   1      -2.387   3.870 127.356  0.00  0.00    +0.195 A 
ATOM     21  C   LIG A   1      -3.009   3.231 126.305  0.00  0.00    +0.045 A 
ENDROOT
BRANCH   6  22
ATOM     22  O   LIG A   1      -8.114  -1.862 127.724  0.00  0.00    -0.458 OA
BRANCH  22  23
ATOM     23  C   LIG A   1      -8.575  -2.945 127.031  0.00  0.00    +0.304 C 
ATOM     24  O   LIG A   1      -8.758  -2.995 125.823  0.00  0.00    -0.251 OA
ATOM     25  C   LIG A   1      -8.960  -4.033 127.987  0.00  0.00    +0.136 C 
ENDBRANCH  22  23
ENDBRANCH   6  22
BRANCH   5  26
ATOM     26  O   LIG A   1      -5.257  -1.410 125.937  0.00  0.00    -0.458 OA
BRANCH  26  27
ATOM     27  C   LIG A   1      -5.654  -1.785 124.694  0.00  0.00    +0.304 C 
ATOM     28  O   LIG A   1      -6.243  -1.105 123.892  0.00  0.00    -0.251 OA
ATOM     29  C   LIG A   1      -5.211  -3.184 124.409  0.00  0.00    +0.136 C 
ENDBRANCH  26  27
ENDBRANCH   5  26
TORSDOF 4
ENDMDL
MODEL 3
REMARK VINA RESULT:      -7.5      2.709      5.729
REMARK  Name = NuBBE_1578
REMARK  10 active torsions:
REMARK  status: ('A' for Active; 'I' for Inactive)
REMARK    1  A    between atoms: C_1  and  C_2
REMARK    2  A    between atoms: C_7  and  O_23
REMARK    3  A    between atoms: C_9  and  O_19
REMARK    4  A    between atoms: C_13  and  C_14
REMARK    5  A    between atoms: C_13  and  C_15
REMARK    6  A    between atoms: O_19  and  C_20
REMARK    7  A    between atoms: C_20  and  C_22
REMARK    8  A    between atoms: O_23  and  C_24
REMARK    9  A    between atoms: C_24  and  C_26
REMARK   10  A    between atoms: C_27  and  C_29
REMARK                            x       y       z     vdW  Elec       q    Type
REMARK                         _______ _______ _______ _____ _____    ______ ____
ROOT
ATOM      1  C   LIG A   1      -5.014   1.352 126.424  0.00  0.00    +0.012 C 
ATOM      2  C   LIG A   1      -6.545   1.636 126.327  0.00  0.00    -0.022 C 
ATOM      3  C   LIG A   1      -7.287   1.106 127.613  0.00  0.00    +0.010 C 
ATOM      4  C   LIG A   1      -7.017  -0.426 127.854  0.00  0.00    +0.045 C 
ATOM      5  C   LIG A   1      -7.384  -1.260 126.597  0.00  0.00    +0.221 C 
ATOM      6  C   LIG A   1      -7.204  -0.626 125.180  0.00  0.00    +0.221 C 
ATOM      7  C   LIG A   1      -7.115   0.927 125.036  0.00  0.00    +0.045 C 
ATOM      8  C   LIG A   1      -8.410   1.583 124.353  0.00  0.00    -0.028 C 
ATOM      9  C   LIG A   1      -8.503   1.127 122.870  0.00  0.00    +0.011 C 
ATOM     10  C   LIG A   1      -9.768   1.212 124.963  0.00  0.00    +0.011 C 
ATOM     11  C   LIG A   1      -8.328   3.127 124.366  0.00  0.00    +0.007 C 
ATOM     12  C   LIG A   1      -8.008   3.679 125.746  0.00  0.00    +0.001 C 
ATOM     13  C   LIG A   1      -6.642   3.180 126.175  0.00  0.00    +0.007 C 
ATOM     14  C   LIG A   1      -7.572  -1.078 129.189  0.00  0.00    +0.026 C 
ATOM     15  C   LIG A   1      -6.572  -2.082 129.788  0.00  0.00    +0.013 C 
ATOM     16  C   LIG A   1      -7.939  -0.051 130.203  0.00  0.00    -0.003 A 
ATOM     17  C   LIG A   1      -7.678   1.284 130.040  0.00  0.00    +0.109 A 
ATOM     18  C   LIG A   1      -7.036   1.952 128.892  0.00  0.00    +0.079 C 
ATOM     19  O   LIG A   1      -8.139   2.013 131.083  0.00  0.00    -0.468 OA
ATOM     20  C   LIG A   1      -8.720   1.123 131.933  0.00  0.00    +0.195 A 
ATOM     21  C   LIG A   1      -8.623  -0.160 131.438  0.00  0.00    +0.045 A 
ENDROOT
BRANCH   6  22
ATOM     22  O   LIG A   1      -5.961  -1.193 124.665  0.00  0.00    -0.458 OA
BRANCH  22  23
ATOM     23  C   LIG A   1      -6.123  -2.072 123.632  0.00  0.00    +0.304 C 
ATOM     24  O   LIG A   1      -6.997  -2.018 122.780  0.00  0.00    -0.251 OA
ATOM     25  C   LIG A   1      -5.149  -3.202 123.770  0.00  0.00    +0.136 C 
ENDBRANCH  22  23
ENDBRANCH   6  22
BRANCH   5  26
ATOM     26  O   LIG A   1      -8.635  -1.998 126.605  0.00  0.00    -0.458 OA
BRANCH  26  27
ATOM     27  C   LIG A   1      -8.666  -3.343 126.428  0.00  0.00    +0.304 C 
ATOM     28  O   LIG A   1      -8.407  -3.941 125.413  0.00  0.00    -0.251 OA
ATOM     29  C   LIG A   1      -9.027  -4.027 127.708  0.00  0.00    +0.136 C 
ENDBRANCH  26  27
ENDBRANCH   5  26
TORSDOF 4
ENDMDL
MODEL 4
REMARK VINA RESULT:      -7.4      6.598      9.430
REMARK  Name = NuBBE_1578
REMARK  10 active torsions:
REMARK  status: ('A' for Active; 'I' for Inactive)
REMARK    1  A    between atoms: C_1  and  C_2
REMARK    2  A    between atoms: C_7  and  O_23
REMARK    3  A    between atoms: C_9  and  O_19
REMARK    4  A    between atoms: C_13  and  C_14
REMARK    5  A    between atoms: C_13  and  C_15
REMARK    6  A    between atoms: O_19  and  C_20
REMARK    7  A    between atoms: C_20  and  C_22
REMARK    8  A    between atoms: O_23  and  C_24
REMARK    9  A    between atoms: C_24  and  C_26
REMARK   10  A    between atoms: C_27  and  C_29
REMARK                            x       y       z     vdW  Elec       q    Type
REMARK                         _______ _______ _______ _____ _____    ______ ____
ROOT
ATOM      1  C   LIG A   1      -3.525   2.931 132.276  0.00  0.00    +0.012 C 
ATOM      2  C   LIG A   1      -3.262   4.462 132.425  0.00  0.00    -0.022 C 
ATOM      3  C   LIG A   1      -4.207   5.080 133.523  0.00  0.00    +0.010 C 
ATOM      4  C   LIG A   1      -5.725   4.802 133.212  0.00  0.00    +0.045 C 
ATOM      5  C   LIG A   1      -6.102   5.297 131.789  0.00  0.00    +0.221 C 
ATOM      6  C   LIG A   1      -5.027   5.249 130.655  0.00  0.00    +0.221 C 
ATOM      7  C   LIG A   1      -3.513   5.160 131.031  0.00  0.00    +0.045 C 
ATOM      8  C   LIG A   1      -2.698   6.509 130.732  0.00  0.00    -0.028 C 
ATOM      9  C   LIG A   1      -2.635   6.749 129.197  0.00  0.00    +0.011 C 
ATOM     10  C   LIG A   1      -3.283   7.805 131.307  0.00  0.00    +0.011 C 
ATOM     11  C   LIG A   1      -1.245   6.413 131.251  0.00  0.00    +0.007 C 
ATOM     12  C   LIG A   1      -1.177   5.955 132.700  0.00  0.00    +0.001 C 
ATOM     13  C   LIG A   1      -1.758   4.558 132.807  0.00  0.00    +0.007 C 
ATOM     14  C   LIG A   1      -6.798   5.231 134.299  0.00  0.00    +0.026 C 
ATOM     15  C   LIG A   1      -7.920   4.187 134.431  0.00  0.00    +0.013 C 
ATOM     16  C   LIG A   1      -6.176   5.489 135.627  0.00  0.00    -0.003 A 
ATOM     17  C   LIG A   1      -4.857   5.233 135.896  0.00  0.00    +0.109 A 
ATOM     18  C   LIG A   1      -3.831   4.699 134.982  0.00  0.00    +0.079 C 
ATOM     19  O   LIG A   1      -4.529   5.585 137.160  0.00  0.00    -0.468 OA
ATOM     20  C   LIG A   1      -5.666   6.089 137.716  0.00  0.00    +0.195 A 
ATOM     21  C   LIG A   1      -6.707   6.052 136.813  0.00  0.00    +0.045 A 
ENDROOT
BRANCH   6  22
ATOM     22  O   LIG A   1      -5.360   4.067 129.866  0.00  0.00    -0.458 OA
BRANCH  22  23
ATOM     23  C   LIG A   1      -5.658   4.322 128.557  0.00  0.00    +0.304 C 
ATOM     24  O   LIG A   1      -6.719   4.762 128.140  0.00  0.00    -0.251 OA
ATOM     25  C   LIG A   1      -4.536   3.856 127.681  0.00  0.00    +0.136 C 
ENDBRANCH  22  23
ENDBRANCH   6  22
BRANCH   5  26
ATOM     26  O   LIG A   1      -6.829   6.548 131.668  0.00  0.00    -0.458 OA
BRANCH  26  27
ATOM     27  C   LIG A   1      -7.983   6.631 130.958  0.00  0.00    +0.304 C 
ATOM     28  O   LIG A   1      -8.362   7.575 130.311  0.00  0.00    -0.251 OA
ATOM     29  C   LIG A   1      -8.734   5.341 131.036  0.00  0.00    +0.136 C 
ENDBRANCH  26  27
ENDBRANCH   5  26
TORSDOF 4
ENDMDL
MODEL 5
REMARK VINA RESULT:      -7.4      4.487      7.825
REMARK  Name = NuBBE_1578
REMARK  10 active torsions:
REMARK  status: ('A' for Active; 'I' for Inactive)
REMARK    1  A    between atoms: C_1  and  C_2
REMARK    2  A    between atoms: C_7  and  O_23
REMARK    3  A    between atoms: C_9  and  O_19
REMARK    4  A    between atoms: C_13  and  C_14
REMARK    5  A    between atoms: C_13  and  C_15
REMARK    6  A    between atoms: O_19  and  C_20
REMARK    7  A    between atoms: C_20  and  C_22
REMARK    8  A    between atoms: O_23  and  C_24
REMARK    9  A    between atoms: C_24  and  C_26
REMARK   10  A    between atoms: C_27  and  C_29
REMARK                            x       y       z     vdW  Elec       q    Type
REMARK                         _______ _______ _______ _____ _____    ______ ____
ROOT
ATOM      1  C   LIG A   1      -4.354   3.285 131.812  0.00  0.00    +0.012 C 
ATOM      2  C   LIG A   1      -4.518   4.777 131.385  0.00  0.00    -0.022 C 
ATOM      3  C   LIG A   1      -6.038   5.121 131.153  0.00  0.00    +0.010 C 
ATOM      4  C   LIG A   1      -6.699   4.161 130.093  0.00  0.00    +0.045 C 
ATOM      5  C   LIG A   1      -5.901   4.168 128.762  0.00  0.00    +0.221 C 
ATOM      6  C   LIG A   1      -4.352   4.377 128.801  0.00  0.00    +0.221 C 
ATOM      7  C   LIG A   1      -3.693   5.024 130.061  0.00  0.00    +0.045 C 
ATOM      8  C   LIG A   1      -3.145   6.510 129.808  0.00  0.00    -0.028 C 
ATOM      9  C   LIG A   1      -1.953   6.461 128.811  0.00  0.00    +0.011 C 
ATOM     10  C   LIG A   1      -4.131   7.508 129.189  0.00  0.00    +0.011 C 
ATOM     11  C   LIG A   1      -2.634   7.150 131.119  0.00  0.00    +0.007 C 
ATOM     12  C   LIG A   1      -3.648   7.047 132.247  0.00  0.00    +0.001 C 
ATOM     13  C   LIG A   1      -3.896   5.584 132.560  0.00  0.00    +0.007 C 
ATOM     14  C   LIG A   1      -8.263   4.280 129.856  0.00  0.00    +0.026 C 
ATOM     15  C   LIG A   1      -8.915   2.898 129.669  0.00  0.00    +0.013 C 
ATOM     16  C   LIG A   1      -8.941   5.025 130.952  0.00  0.00    -0.003 A 
ATOM     17  C   LIG A   1      -8.296   5.419 132.095  0.00  0.00    +0.109 A 
ATOM     18  C   LIG A   1      -6.880   5.220 132.455  0.00  0.00    +0.079 C 
ATOM     19  O   LIG A   1      -9.120   6.108 132.919  0.00  0.00    -0.468 OA
ATOM     20  C   LIG A   1     -10.322   6.166 132.283  0.00  0.00    +0.195 A 
ATOM     21  C   LIG A   1     -10.264   5.514 131.069  0.00  0.00    +0.045 A 
ENDROOT
BRANCH   6  22
ATOM     22  O   LIG A   1      -3.784   3.042 128.636  0.00  0.00    -0.458 OA
BRANCH  22  23
ATOM     23  C   LIG A   1      -3.436   2.728 127.353  0.00  0.00    +0.304 C 
ATOM     24  O   LIG A   1      -4.108   2.069 126.573  0.00  0.00    -0.251 OA
ATOM     25  C   LIG A   1      -2.039   3.194 127.078  0.00  0.00    +0.136 C 
ENDBRANCH  22  23
ENDBRANCH   6  22
BRANCH   5  26
ATOM     26  O   LIG A   1      -6.431   4.934 127.648  0.00  0.00    -0.458 OA
BRANCH  26  27
ATOM     27  C   LIG A   1      -6.789   4.338 126.483  0.00  0.00    +0.304 C 
ATOM     28  O   LIG A   1      -7.579   3.436 126.350  0.00  0.00    -0.251 OA
ATOM     29  C   LIG A   1      -6.095   4.991 125.332  0.00  0.00    +0.136 C 
ENDBRANCH  26  27
ENDBRANCH   5  26
TORSDOF 4
ENDMDL
MODEL 6
REMARK VINA RESULT:      -7.3      2.373      6.176
REMARK  Name = NuBBE_1578
REMARK  10 active torsions:
REMARK  status: ('A' for Active; 'I' for Inactive)
REMARK    1  A    between atoms: C_1  and  C_2
REMARK    2  A    between atoms: C_7  and  O_23
REMARK    3  A    between atoms: C_9  and  O_19
REMARK    4  A    between atoms: C_13  and  C_14
REMARK    5  A    between atoms: C_13  and  C_15
REMARK    6  A    between atoms: O_19  and  C_20
REMARK    7  A    between atoms: C_20  and  C_22
REMARK    8  A    between atoms: O_23  and  C_24
REMARK    9  A    between atoms: C_24  and  C_26
REMARK   10  A    between atoms: C_27  and  C_29
REMARK                            x       y       z     vdW  Elec       q    Type
REMARK                         _______ _______ _______ _____ _____    ______ ____
ROOT
ATOM      1  C   LIG A   1      -9.082   2.066 124.681  0.00  0.00    +0.012 C 
ATOM      2  C   LIG A   1      -7.542   2.246 124.502  0.00  0.00    -0.022 C 
ATOM      3  C   LIG A   1      -6.808   0.856 124.606  0.00  0.00    +0.010 C 
ATOM      4  C   LIG A   1      -7.132   0.125 125.963  0.00  0.00    +0.045 C 
ATOM      5  C   LIG A   1      -6.807   1.035 127.177  0.00  0.00    +0.221 C 
ATOM      6  C   LIG A   1      -6.977   2.583 127.039  0.00  0.00    +0.221 C 
ATOM      7  C   LIG A   1      -7.011   3.230 125.617  0.00  0.00    +0.045 C 
ATOM      8  C   LIG A   1      -5.699   4.087 125.272  0.00  0.00    -0.028 C 
ATOM      9  C   LIG A   1      -5.638   5.337 126.193  0.00  0.00    +0.011 C 
ATOM     10  C   LIG A   1      -4.350   3.386 125.472  0.00  0.00    +0.011 C 
ATOM     11  C   LIG A   1      -5.725   4.584 123.808  0.00  0.00    +0.007 C 
ATOM     12  C   LIG A   1      -6.012   3.464 122.821  0.00  0.00    +0.001 C 
ATOM     13  C   LIG A   1      -7.391   2.899 123.099  0.00  0.00    +0.007 C 
ATOM     14  C   LIG A   1      -6.588  -1.352 126.159  0.00  0.00    +0.026 C 
ATOM     15  C   LIG A   1      -7.618  -2.246 126.872  0.00  0.00    +0.013 C 
ATOM     16  C   LIG A   1      -6.174  -1.973 124.870  0.00  0.00    -0.003 A 
ATOM     17  C   LIG A   1      -6.387  -1.378 123.654  0.00  0.00    +0.109 A 
ATOM     18  C   LIG A   1      -7.016  -0.073 123.378  0.00  0.00    +0.079 C 
ATOM     19  O   LIG A   1      -5.890  -2.124 122.641  0.00  0.00    -0.468 OA
ATOM     20  C   LIG A   1      -5.334  -3.222 123.222  0.00  0.00    +0.195 A 
ATOM     21  C   LIG A   1      -5.482  -3.177 124.592  0.00  0.00    +0.045 A 
ENDROOT
BRANCH   6  22
ATOM     22  O   LIG A   1      -8.245   2.886 127.697  0.00  0.00    -0.458 OA
BRANCH  22  23
ATOM     23  C   LIG A   1      -8.240   4.032 128.440  0.00  0.00    +0.304 C 
ATOM     24  O   LIG A   1      -8.746   5.096 128.114  0.00  0.00    -0.251 OA
ATOM     25  C   LIG A   1      -7.400   3.837 129.666  0.00  0.00    +0.136 C 
ENDBRANCH  22  23
ENDBRANCH   6  22
BRANCH   5  26
ATOM     26  O   LIG A   1      -5.584   0.781 127.918  0.00  0.00    -0.458 OA
BRANCH  26  27
ATOM     27  C   LIG A   1      -5.597   0.568 129.258  0.00  0.00    +0.304 C 
ATOM     28  O   LIG A   1      -4.688   0.761 130.026  0.00  0.00    -0.251 OA
ATOM     29  C   LIG A   1      -6.947   0.093 129.694  0.00  0.00    +0.136 C 
ENDBRANCH  26  27
ENDBRANCH   5  26
TORSDOF 4
ENDMDL
MODEL 7
REMARK VINA RESULT:      -7.3      2.564      7.191
REMARK  Name = NuBBE_1578
REMARK  10 active torsions:
REMARK  status: ('A' for Active; 'I' for Inactive)
REMARK    1  A    between atoms: C_1  and  C_2
REMARK    2  A    between atoms: C_7  and  O_23
REMARK    3  A    between atoms: C_9  and  O_19
REMARK    4  A    between atoms: C_13  and  C_14
REMARK    5  A    between atoms: C_13  and  C_15
REMARK    6  A    between atoms: O_19  and  C_20
REMARK    7  A    between atoms: C_20  and  C_22
REMARK    8  A    between atoms: O_23  and  C_24
REMARK    9  A    between atoms: C_24  and  C_26
REMARK   10  A    between atoms: C_27  and  C_29
REMARK                            x       y       z     vdW  Elec       q    Type
REMARK                         _______ _______ _______ _____ _____    ______ ____
ROOT
ATOM      1  C   LIG A   1      -8.773   1.502 128.442  0.00  0.00    +0.012 C 
ATOM      2  C   LIG A   1      -7.662   1.414 127.350  0.00  0.00    -0.022 C 
ATOM      3  C   LIG A   1      -7.737   0.032 126.597  0.00  0.00    +0.010 C 
ATOM      4  C   LIG A   1      -7.637  -1.183 127.595  0.00  0.00    +0.045 C 
ATOM      5  C   LIG A   1      -6.362  -1.078 128.474  0.00  0.00    +0.221 C 
ATOM      6  C   LIG A   1      -5.822   0.334 128.871  0.00  0.00    +0.221 C 
ATOM      7  C   LIG A   1      -6.252   1.585 128.041  0.00  0.00    +0.045 C 
ATOM      8  C   LIG A   1      -5.069   2.200 127.147  0.00  0.00    -0.028 C 
ATOM      9  C   LIG A   1      -3.971   2.790 128.074  0.00  0.00    +0.011 C 
ATOM     10  C   LIG A   1      -4.324   1.221 126.231  0.00  0.00    +0.011 C 
ATOM     11  C   LIG A   1      -5.586   3.343 126.244  0.00  0.00    +0.007 C 
ATOM     12  C   LIG A   1      -6.820   2.942 125.450  0.00  0.00    +0.001 C 
ATOM     13  C   LIG A   1      -7.947   2.622 126.413  0.00  0.00    +0.007 C 
ATOM     14  C   LIG A   1      -7.845  -2.643 127.011  0.00  0.00    +0.026 C 
ATOM     15  C   LIG A   1      -8.657  -3.528 127.973  0.00  0.00    +0.013 C 
ATOM     16  C   LIG A   1      -8.485  -2.622 125.667  0.00  0.00    -0.003 A 
ATOM     17  C   LIG A   1      -8.967  -1.478 125.088  0.00  0.00    +0.109 A 
ATOM     18  C   LIG A   1      -8.943  -0.106 125.627  0.00  0.00    +0.079 C 
ATOM     19  O   LIG A   1      -9.469  -1.717 123.854  0.00  0.00    -0.468 OA
ATOM     20  C   LIG A   1      -9.295  -3.049 123.631  0.00  0.00    +0.195 A 
ATOM     21  C   LIG A   1      -8.694  -3.651 124.716  0.00  0.00    +0.045 A 
ENDROOT
BRANCH   6  22
ATOM     22  O   LIG A   1      -6.267   0.537 130.247  0.00  0.00    -0.458 OA
BRANCH  22  23
ATOM     23  C   LIG A   1      -5.355   1.156 131.053  0.00  0.00    +0.304 C 
ATOM     24  O   LIG A   1      -5.432   2.303 131.468  0.00  0.00    -0.251 OA
ATOM     25  C   LIG A   1      -4.165   0.267 131.250  0.00  0.00    +0.136 C 
ENDBRANCH  22  23
ENDBRANCH   6  22
BRANCH   5  26
ATOM     26  O   LIG A   1      -5.226  -1.917 128.136  0.00  0.00    -0.458 OA
BRANCH  26  27
ATOM     27  C   LIG A   1      -4.606  -2.681 129.070  0.00  0.00    +0.304 C 
ATOM     28  O   LIG A   1      -3.418  -2.842 129.195  0.00  0.00    -0.251 OA
ATOM     29  C   LIG A   1      -5.613  -3.286 129.996  0.00  0.00    +0.136 C 
ENDBRANCH  26  27
ENDBRANCH   5  26
TORSDOF 4
ENDMDL
MODEL 8
REMARK VINA RESULT:      -7.0      2.802      6.126
REMARK  Name = NuBBE_1578
REMARK  10 active torsions:
REMARK  status: ('A' for Active; 'I' for Inactive)
REMARK    1  A    between atoms: C_1  and  C_2
REMARK    2  A    between atoms: C_7  and  O_23
REMARK    3  A    between atoms: C_9  and  O_19
REMARK    4  A    between atoms: C_13  and  C_14
REMARK    5  A    between atoms: C_13  and  C_15
REMARK    6  A    between atoms: O_19  and  C_20
REMARK    7  A    between atoms: C_20  and  C_22
REMARK    8  A    between atoms: O_23  and  C_24
REMARK    9  A    between atoms: C_24  and  C_26
REMARK   10  A    between atoms: C_27  and  C_29
REMARK                            x       y       z     vdW  Elec       q    Type
REMARK                         _______ _______ _______ _____ _____    ______ ____
ROOT
ATOM      1  C   LIG A   1      -4.741   0.727 129.589  0.00  0.00    +0.012 C 
ATOM      2  C   LIG A   1      -6.261   0.953 129.859  0.00  0.00    -0.022 C 
ATOM      3  C   LIG A   1      -7.129  -0.044 129.001  0.00  0.00    +0.010 C 
ATOM      4  C   LIG A   1      -6.810   0.079 127.464  0.00  0.00    +0.045 C 
ATOM      5  C   LIG A   1      -6.973   1.544 126.977  0.00  0.00    +0.221 C 
ATOM      6  C   LIG A   1      -6.651   2.716 127.960  0.00  0.00    +0.221 C 
ATOM      7  C   LIG A   1      -6.627   2.447 129.498  0.00  0.00    +0.045 C 
ATOM      8  C   LIG A   1      -7.859   3.108 130.285  0.00  0.00    -0.028 C 
ATOM      9  C   LIG A   1      -7.741   4.657 130.227  0.00  0.00    +0.011 C 
ATOM     10  C   LIG A   1      -9.261   2.801 129.743  0.00  0.00    +0.011 C 
ATOM     11  C   LIG A   1      -7.861   2.692 131.774  0.00  0.00    +0.007 C 
ATOM     12  C   LIG A   1      -7.745   1.187 131.955  0.00  0.00    +0.001 C 
ATOM     13  C   LIG A   1      -6.419   0.719 131.388  0.00  0.00    +0.007 C 
ATOM     14  C   LIG A   1      -7.493  -0.960 126.478  0.00  0.00    +0.026 C 
ATOM     15  C   LIG A   1      -6.524  -1.412 125.372  0.00  0.00    +0.013 C 
ATOM     16  C   LIG A   1      -8.037  -2.142 127.200  0.00  0.00    -0.003 A 
ATOM     17  C   LIG A   1      -7.829  -2.361 128.537  0.00  0.00    +0.109 A 
ATOM     18  C   LIG A   1      -7.084  -1.518 129.491  0.00  0.00    +0.079 C 
ATOM     19  O   LIG A   1      -8.455  -3.483 128.962  0.00  0.00    -0.468 OA
ATOM     20  C   LIG A   1      -9.089  -3.993 127.871  0.00  0.00    +0.195 A 
ATOM     21  C   LIG A   1      -8.864  -3.205 126.762  0.00  0.00    +0.045 A 
ENDROOT
BRANCH   6  22
ATOM     22  O   LIG A   1      -5.325   3.186 127.569  0.00  0.00    -0.458 OA
BRANCH  22  23
ATOM     23  C   LIG A   1      -5.241   4.532 127.351  0.00  0.00    +0.304 C 
ATOM     24  O   LIG A   1      -5.760   5.139 126.426  0.00  0.00    -0.251 OA
ATOM     25  C   LIG A   1      -4.299   5.148 128.341  0.00  0.00    +0.136 C 
ENDBRANCH  22  23
ENDBRANCH   6  22
BRANCH   5  26
ATOM     26  O   LIG A   1      -8.174   1.892 126.239  0.00  0.00    -0.458 OA
BRANCH  26  27
ATOM     27  C   LIG A   1      -8.148   2.795 125.226  0.00  0.00    +0.304 C 
ATOM     28  O   LIG A   1      -8.837   3.779 125.123  0.00  0.00    -0.251 OA
ATOM     29  C   LIG A   1      -7.084   2.437 124.239  0.00  0.00    +0.136 C 
ENDBRANCH  26  27
ENDBRANCH   5  26
TORSDOF 4
ENDMDL
MODEL 9
REMARK VINA RESULT:      -7.0      4.984      7.037
REMARK  Name = NuBBE_1578
REMARK  10 active torsions:
REMARK  status: ('A' for Active; 'I' for Inactive)
REMARK    1  A    between atoms: C_1  and  C_2
REMARK    2  A    between atoms: C_7  and  O_23
REMARK    3  A    between atoms: C_9  and  O_19
REMARK    4  A    between atoms: C_13  and  C_14
REMARK    5  A    between atoms: C_13  and  C_15
REMARK    6  A    between atoms: O_19  and  C_20
REMARK    7  A    between atoms: C_20  and  C_22
REMARK    8  A    between atoms: O_23  and  C_24
REMARK    9  A    between atoms: C_24  and  C_26
REMARK   10  A    between atoms: C_27  and  C_29
REMARK                            x       y       z     vdW  Elec       q    Type
REMARK                         _______ _______ _______ _____ _____    ______ ____
ROOT
ATOM      1  C   LIG A   1      -7.149   6.837 131.126  0.00  0.00    +0.012 C 
ATOM      2  C   LIG A   1      -6.757   5.554 131.922  0.00  0.00    -0.022 C 
ATOM      3  C   LIG A   1      -5.190   5.421 132.017  0.00  0.00    +0.010 C 
ATOM      4  C   LIG A   1      -4.515   5.424 130.594  0.00  0.00    +0.045 C 
ATOM      5  C   LIG A   1      -5.128   4.324 129.686  0.00  0.00    +0.221 C 
ATOM      6  C   LIG A   1      -6.634   3.941 129.861  0.00  0.00    +0.221 C 
ATOM      7  C   LIG A   1      -7.369   4.294 131.193  0.00  0.00    +0.045 C 
ATOM      8  C   LIG A   1      -7.702   3.014 132.101  0.00  0.00    -0.028 C 
ATOM      9  C   LIG A   1      -8.752   2.124 131.379  0.00  0.00    +0.011 C 
ATOM     10  C   LIG A   1      -6.533   2.069 132.408  0.00  0.00    +0.011 C 
ATOM     11  C   LIG A   1      -8.299   3.434 133.463  0.00  0.00    +0.007 C 
ATOM     12  C   LIG A   1      -7.458   4.490 134.164  0.00  0.00    +0.001 C 
ATOM     13  C   LIG A   1      -7.427   5.744 133.312  0.00  0.00    +0.007 C 
ATOM     14  C   LIG A   1      -2.931   5.446 130.523  0.00  0.00    +0.026 C 
ATOM     15  C   LIG A   1      -2.427   6.358 129.390  0.00  0.00    +0.013 C 
ATOM     16  C   LIG A   1      -2.317   5.849 131.818  0.00  0.00    -0.003 A 
ATOM     17  C   LIG A   1      -3.053   6.290 132.887  0.00  0.00    +0.109 A 
ATOM     18  C   LIG A   1      -4.518   6.435 132.984  0.00  0.00    +0.079 C 
ATOM     19  O   LIG A   1      -2.268   6.560 133.955  0.00  0.00    -0.468 OA
ATOM     20  C   LIG A   1      -0.995   6.275 133.565  0.00  0.00    +0.195 A 
ATOM     21  C   LIG A   1      -0.972   5.834 132.259  0.00  0.00    +0.045 A 
ENDROOT
BRANCH   6  22
ATOM     22  O   LIG A   1      -7.328   4.624 128.773  0.00  0.00    -0.458 OA
BRANCH  22  23
ATOM     23  C   LIG A   1      -7.782   3.799 127.783  0.00  0.00    +0.304 C 
ATOM     24  O   LIG A   1      -8.530   2.845 127.936  0.00  0.00    -0.251 OA
ATOM     25  C   LIG A   1      -7.118   4.151 126.486  0.00  0.00    +0.136 C 
ENDBRANCH  22  23
ENDBRANCH   6  22
BRANCH   5  26
ATOM     26  O   LIG A   1      -4.372   3.102 129.483  0.00  0.00    -0.458 OA
BRANCH  26  27
ATOM     27  C   LIG A   1      -4.259   2.532 128.257  0.00  0.00    +0.304 C 
ATOM     28  O   LIG A   1      -4.845   1.556 127.861  0.00  0.00    -0.251 OA
ATOM     29  C   LIG A   1      -3.319   3.322 127.403  0.00  0.00    +0.136 C 
ENDBRANCH  26  27
ENDBRANCH   5  26
TORSDOF 4
ENDMDL
