MODEL 1
REMARK VINA RESULT:      -8.9      0.000      0.000
REMARK  Name = NuBBE_326
REMARK  4 active torsions:
REMARK  status: ('A' for Active; 'I' for Inactive)
REMARK    1  A    between atoms: C_23  and  C_24
REMARK    2  A    between atoms: C_24  and  O_25
REMARK    3  A    between atoms: O_25  and  C_26
REMARK    4  A    between atoms: C_30  and  C_32
REMARK                            x       y       z     vdW  Elec       q    Type
REMARK                         _______ _______ _______ _____ _____    ______ ____
ROOT
ATOM      1  H   LIG A   1      -6.701   4.904 125.206  0.00  0.00    +0.155 HD
ATOM      2  N   LIG A   1      -6.914   4.149 124.573  0.00  0.00    -0.284 N 
ATOM      3  C   LIG A   1      -6.302   3.906 123.360  0.00  0.00    +0.038 A 
ATOM      4  C   LIG A   1      -5.288   4.646 122.790  0.00  0.00    +0.023 A 
ATOM      5  C   LIG A   1      -4.794   4.211 121.561  0.00  0.00    +0.002 A 
ATOM      6  C   LIG A   1      -5.321   3.061 120.945  0.00  0.00    +0.000 A 
ATOM      7  C   LIG A   1      -6.357   2.330 121.543  0.00  0.00    +0.006 A 
ATOM      8  C   LIG A   1      -6.849   2.770 122.759  0.00  0.00    -0.010 A 
ATOM      9  C   LIG A   1      -7.942   2.215 123.641  0.00  0.00    +0.090 C 
ATOM     10  C   LIG A   1      -7.886   3.199 124.855  0.00  0.00    +0.229 C 
ATOM     11  O   LIG A   1      -8.570   3.212 125.867  0.00  0.00    -0.274 OA
ATOM     12  C   LIG A   1      -7.824   0.736 124.022  0.00  0.00    +0.077 C 
ATOM     13  C   LIG A   1      -6.719   0.336 124.990  0.00  0.00    +0.029 C 
ATOM     14  C   LIG A   1      -6.922  -1.101 125.524  0.00  0.00    +0.038 C 
ATOM     15  C   LIG A   1      -8.337  -1.181 126.151  0.00  0.00    +0.051 C 
ATOM     16  C   LIG A   1      -9.416  -0.819 125.093  0.00  0.00    +0.092 C 
ATOM     17  N   LIG A   1      -9.155   0.515 124.587  0.00  0.00    -0.298 NA
ATOM     18  C   LIG A   1     -10.094   1.056 123.615  0.00  0.00    +0.086 C 
ATOM     19  C   LIG A   1      -9.354   2.270 123.022  0.00  0.00    +0.038 C 
ATOM     20  C   LIG A   1      -6.784  -2.276 124.577  0.00  0.00    +0.074 C 
ATOM     21  C   LIG A   1      -7.460  -3.417 124.803  0.00  0.00    +0.198 C 
ATOM     22  O   LIG A   1      -8.355  -3.650 125.813  0.00  0.00    -0.496 OA
ATOM     23  C   LIG A   1      -8.582  -2.581 126.743  0.00  0.00    +0.174 C 
ATOM     24  C   LIG A   1      -7.747  -2.853 127.996  0.00  0.00    +0.052 C 
ENDROOT
BRANCH  20  25
ATOM     25  C   LIG A   1      -5.979  -2.170 123.333  0.00  0.00    +0.338 C 
ATOM     26  O   LIG A   1      -6.434  -1.926 122.235  0.00  0.00    -0.245 OA
BRANCH  25  27
ATOM     27  O   LIG A   1      -4.693  -2.532 123.597  0.00  0.00    -0.465 OA
ATOM     28  C   LIG A   1      -4.446  -3.937 123.560  0.00  0.00    +0.280 C 
ENDBRANCH  25  27
ENDBRANCH  20  25
TORSDOF 2
ENDMDL
MODEL 2
REMARK VINA RESULT:      -8.2      2.176      2.926
REMARK  Name = NuBBE_326
REMARK  4 active torsions:
REMARK  status: ('A' for Active; 'I' for Inactive)
REMARK    1  A    between atoms: C_23  and  C_24
REMARK    2  A    between atoms: C_24  and  O_25
REMARK    3  A    between atoms: O_25  and  C_26
REMARK    4  A    between atoms: C_30  and  C_32
REMARK                            x       y       z     vdW  Elec       q    Type
REMARK                         _______ _______ _______ _____ _____    ______ ____
ROOT
ATOM      1  H   LIG A   1      -4.292   4.363 122.916  0.00  0.00    +0.155 HD
ATOM      2  N   LIG A   1      -5.207   4.037 123.183  0.00  0.00    -0.284 N 
ATOM      3  C   LIG A   1      -6.292   3.878 122.344  0.00  0.00    +0.038 A 
ATOM      4  C   LIG A   1      -6.325   4.135 120.989  0.00  0.00    +0.023 A 
ATOM      5  C   LIG A   1      -7.524   3.885 120.322  0.00  0.00    +0.002 A 
ATOM      6  C   LIG A   1      -8.641   3.389 121.020  0.00  0.00    +0.000 A 
ATOM      7  C   LIG A   1      -8.582   3.143 122.398  0.00  0.00    +0.006 A 
ATOM      8  C   LIG A   1      -7.393   3.400 123.058  0.00  0.00    -0.010 A 
ATOM      9  C   LIG A   1      -7.017   3.245 124.512  0.00  0.00    +0.090 C 
ATOM     10  C   LIG A   1      -5.512   3.670 124.487  0.00  0.00    +0.229 C 
ATOM     11  O   LIG A   1      -4.715   3.735 125.410  0.00  0.00    -0.274 OA
ATOM     12  C   LIG A   1      -7.273   1.870 125.138  0.00  0.00    +0.077 C 
ATOM     13  C   LIG A   1      -6.391   0.711 124.696  0.00  0.00    +0.029 C 
ATOM     14  C   LIG A   1      -6.546  -0.512 125.630  0.00  0.00    +0.038 C 
ATOM     15  C   LIG A   1      -6.253  -0.045 127.078  0.00  0.00    +0.051 C 
ATOM     16  C   LIG A   1      -7.226   1.097 127.483  0.00  0.00    +0.092 C 
ATOM     17  N   LIG A   1      -7.080   2.197 126.551  0.00  0.00    -0.298 NA
ATOM     18  C   LIG A   1      -7.879   3.390 126.795  0.00  0.00    +0.086 C 
ATOM     19  C   LIG A   1      -7.780   4.177 125.474  0.00  0.00    +0.038 C 
ATOM     20  C   LIG A   1      -7.859  -1.267 125.660  0.00  0.00    +0.074 C 
ATOM     21  C   LIG A   1      -8.245  -1.923 126.770  0.00  0.00    +0.198 C 
ATOM     22  O   LIG A   1      -7.587  -1.951 127.970  0.00  0.00    -0.496 OA
ATOM     23  C   LIG A   1      -6.347  -1.233 128.053  0.00  0.00    +0.174 C 
ATOM     24  C   LIG A   1      -5.203  -2.234 127.886  0.00  0.00    +0.052 C 
ENDROOT
BRANCH  20  25
ATOM     25  C   LIG A   1      -8.794  -1.230 124.506  0.00  0.00    +0.338 C 
ATOM     26  O   LIG A   1      -9.773  -0.516 124.434  0.00  0.00    -0.245 OA
BRANCH  25  27
ATOM     27  O   LIG A   1      -8.462  -2.214 123.625  0.00  0.00    -0.465 OA
ATOM     28  C   LIG A   1      -9.429  -3.256 123.499  0.00  0.00    +0.280 C 
ENDBRANCH  25  27
ENDBRANCH  20  25
TORSDOF 2
ENDMDL
MODEL 3
REMARK VINA RESULT:      -8.1      4.666      7.535
REMARK  Name = NuBBE_326
REMARK  4 active torsions:
REMARK  status: ('A' for Active; 'I' for Inactive)
REMARK    1  A    between atoms: C_23  and  C_24
REMARK    2  A    between atoms: C_24  and  O_25
REMARK    3  A    between atoms: O_25  and  C_26
REMARK    4  A    between atoms: C_30  and  C_32
REMARK                            x       y       z     vdW  Elec       q    Type
REMARK                         _______ _______ _______ _____ _____    ______ ____
ROOT
ATOM      1  H   LIG A   1      -1.320   5.972 127.938  0.00  0.00    +0.155 HD
ATOM      2  N   LIG A   1      -2.215   5.585 128.194  0.00  0.00    -0.284 N 
ATOM      3  C   LIG A   1      -3.093   6.107 129.123  0.00  0.00    +0.038 A 
ATOM      4  C   LIG A   1      -2.912   7.252 129.869  0.00  0.00    +0.023 A 
ATOM      5  C   LIG A   1      -3.939   7.615 130.739  0.00  0.00    +0.002 A 
ATOM      6  C   LIG A   1      -5.106   6.834 130.834  0.00  0.00    +0.000 A 
ATOM      7  C   LIG A   1      -5.261   5.670 130.068  0.00  0.00    +0.006 A 
ATOM      8  C   LIG A   1      -4.236   5.309 129.212  0.00  0.00    -0.010 A 
ATOM      9  C   LIG A   1      -4.101   4.134 128.274  0.00  0.00    +0.090 C 
ATOM     10  C   LIG A   1      -2.716   4.428 127.610  0.00  0.00    +0.229 C 
ATOM     11  O   LIG A   1      -2.113   3.782 126.768  0.00  0.00    -0.274 OA
ATOM     12  C   LIG A   1      -5.245   3.923 127.277  0.00  0.00    +0.077 C 
ATOM     13  C   LIG A   1      -5.394   4.926 126.142  0.00  0.00    +0.029 C 
ATOM     14  C   LIG A   1      -6.367   4.415 125.054  0.00  0.00    +0.038 C 
ATOM     15  C   LIG A   1      -5.864   3.028 124.578  0.00  0.00    +0.051 C 
ATOM     16  C   LIG A   1      -5.794   2.041 125.776  0.00  0.00    +0.092 C 
ATOM     17  N   LIG A   1      -4.910   2.586 126.789  0.00  0.00    -0.298 NA
ATOM     18  C   LIG A   1      -4.675   1.776 127.976  0.00  0.00    +0.086 C 
ATOM     19  C   LIG A   1      -4.034   2.761 128.973  0.00  0.00    +0.038 C 
ATOM     20  C   LIG A   1      -7.840   4.270 125.378  0.00  0.00    +0.074 C 
ATOM     21  C   LIG A   1      -8.594   3.359 124.736  0.00  0.00    +0.198 C 
ATOM     22  O   LIG A   1      -8.162   2.451 123.806  0.00  0.00    -0.496 OA
ATOM     23  C   LIG A   1      -6.770   2.485 123.458  0.00  0.00    +0.174 C 
ATOM     24  C   LIG A   1      -6.625   3.258 122.146  0.00  0.00    +0.052 C 
ENDROOT
BRANCH  20  25
ATOM     25  C   LIG A   1      -8.468   5.058 126.470  0.00  0.00    +0.338 C 
ATOM     26  O   LIG A   1      -8.422   4.764 127.647  0.00  0.00    -0.245 OA
BRANCH  25  27
ATOM     27  O   LIG A   1      -9.212   6.062 125.930  0.00  0.00    -0.465 OA
ATOM     28  C   LIG A   1     -10.162   6.649 126.819  0.00  0.00    +0.280 C 
ENDBRANCH  25  27
ENDBRANCH  20  25
TORSDOF 2
ENDMDL
MODEL 4
REMARK VINA RESULT:      -7.9      3.221      6.426
REMARK  Name = NuBBE_326
REMARK  4 active torsions:
REMARK  status: ('A' for Active; 'I' for Inactive)
REMARK    1  A    between atoms: C_23  and  C_24
REMARK    2  A    between atoms: C_24  and  O_25
REMARK    3  A    between atoms: O_25  and  C_26
REMARK    4  A    between atoms: C_30  and  C_32
REMARK                            x       y       z     vdW  Elec       q    Type
REMARK                         _______ _______ _______ _____ _____    ______ ____
ROOT
ATOM      1  H   LIG A   1      -9.713  -3.943 126.748  0.00  0.00    +0.155 HD
ATOM      2  N   LIG A   1      -8.988  -3.285 126.508  0.00  0.00    -0.284 N 
ATOM      3  C   LIG A   1      -8.623  -2.906 125.231  0.00  0.00    +0.038 A 
ATOM      4  C   LIG A   1      -9.180  -3.353 124.052  0.00  0.00    +0.023 A 
ATOM      5  C   LIG A   1      -8.674  -2.822 122.866  0.00  0.00    +0.002 A 
ATOM      6  C   LIG A   1      -7.640  -1.868 122.893  0.00  0.00    +0.000 A 
ATOM      7  C   LIG A   1      -7.087  -1.436 124.106  0.00  0.00    +0.006 A 
ATOM      8  C   LIG A   1      -7.586  -1.971 125.280  0.00  0.00    -0.010 A 
ATOM      9  C   LIG A   1      -7.209  -1.718 126.720  0.00  0.00    +0.090 C 
ATOM     10  C   LIG A   1      -8.234  -2.629 127.471  0.00  0.00    +0.229 C 
ATOM     11  O   LIG A   1      -8.368  -2.809 128.672  0.00  0.00    -0.274 OA
ATOM     12  C   LIG A   1      -7.212  -0.255 127.177  0.00  0.00    +0.077 C 
ATOM     13  C   LIG A   1      -8.556   0.445 127.315  0.00  0.00    +0.029 C 
ATOM     14  C   LIG A   1      -8.426   1.782 128.080  0.00  0.00    +0.038 C 
ATOM     15  C   LIG A   1      -7.753   1.488 129.445  0.00  0.00    +0.051 C 
ATOM     16  C   LIG A   1      -6.362   0.828 129.228  0.00  0.00    +0.092 C 
ATOM     17  N   LIG A   1      -6.531  -0.393 128.464  0.00  0.00    -0.298 NA
ATOM     18  C   LIG A   1      -5.338  -1.185 128.200  0.00  0.00    +0.086 C 
ATOM     19  C   LIG A   1      -5.781  -2.163 127.096  0.00  0.00    +0.038 C 
ATOM     20  C   LIG A   1      -7.671   2.934 127.448  0.00  0.00    +0.074 C 
ATOM     21  C   LIG A   1      -7.060   3.854 128.217  0.00  0.00    +0.198 C 
ATOM     22  O   LIG A   1      -6.982   3.853 129.584  0.00  0.00    -0.496 OA
ATOM     23  C   LIG A   1      -7.637   2.779 130.275  0.00  0.00    +0.174 C 
ATOM     24  C   LIG A   1      -8.988   3.288 130.778  0.00  0.00    +0.052 C 
ENDROOT
BRANCH  20  25
ATOM     25  C   LIG A   1      -7.507   3.029 125.975  0.00  0.00    +0.338 C 
ATOM     26  O   LIG A   1      -6.441   2.994 125.395  0.00  0.00    -0.245 OA
BRANCH  25  27
ATOM     27  O   LIG A   1      -8.712   3.305 125.404  0.00  0.00    -0.465 OA
ATOM     28  C   LIG A   1      -9.020   2.527 124.248  0.00  0.00    +0.280 C 
ENDBRANCH  25  27
ENDBRANCH  20  25
TORSDOF 2
ENDMDL
MODEL 5
REMARK VINA RESULT:      -7.7      3.150      5.966
REMARK  Name = NuBBE_326
REMARK  4 active torsions:
REMARK  status: ('A' for Active; 'I' for Inactive)
REMARK    1  A    between atoms: C_23  and  C_24
REMARK    2  A    between atoms: C_24  and  O_25
REMARK    3  A    between atoms: O_25  and  C_26
REMARK    4  A    between atoms: C_30  and  C_32
REMARK                            x       y       z     vdW  Elec       q    Type
REMARK                         _______ _______ _______ _____ _____    ______ ____
ROOT
ATOM      1  H   LIG A   1      -7.115  -1.092 121.962  0.00  0.00    +0.155 HD
ATOM      2  N   LIG A   1      -7.438  -0.786 122.867  0.00  0.00    -0.284 N 
ATOM      3  C   LIG A   1      -8.101  -1.561 123.798  0.00  0.00    +0.038 A 
ATOM      4  C   LIG A   1      -8.442  -2.890 123.666  0.00  0.00    +0.023 A 
ATOM      5  C   LIG A   1      -9.093  -3.491 124.743  0.00  0.00    +0.002 A 
ATOM      6  C   LIG A   1      -9.380  -2.755 125.907  0.00  0.00    +0.000 A 
ATOM      7  C   LIG A   1      -9.028  -1.402 126.012  0.00  0.00    +0.006 A 
ATOM      8  C   LIG A   1      -8.389  -0.807 124.939  0.00  0.00    -0.010 A 
ATOM      9  C   LIG A   1      -7.892   0.606 124.744  0.00  0.00    +0.090 C 
ATOM     10  C   LIG A   1      -7.239   0.508 123.327  0.00  0.00    +0.229 C 
ATOM     11  O   LIG A   1      -6.684   1.379 122.674  0.00  0.00    -0.274 OA
ATOM     12  C   LIG A   1      -6.963   1.156 125.831  0.00  0.00    +0.077 C 
ATOM     13  C   LIG A   1      -5.557   0.581 125.923  0.00  0.00    +0.029 C 
ATOM     14  C   LIG A   1      -4.648   1.442 126.831  0.00  0.00    +0.038 C 
ATOM     15  C   LIG A   1      -4.675   2.895 126.293  0.00  0.00    +0.051 C 
ATOM     16  C   LIG A   1      -6.132   3.438 126.282  0.00  0.00    +0.092 C 
ATOM     17  N   LIG A   1      -6.954   2.571 125.460  0.00  0.00    -0.298 NA
ATOM     18  C   LIG A   1      -8.350   2.945 125.285  0.00  0.00    +0.086 C 
ATOM     19  C   LIG A   1      -9.003   1.675 124.706  0.00  0.00    +0.038 C 
ATOM     20  C   LIG A   1      -4.928   1.510 128.319  0.00  0.00    +0.074 C 
ATOM     21  C   LIG A   1      -4.581   2.598 129.030  0.00  0.00    +0.198 C 
ATOM     22  O   LIG A   1      -4.021   3.748 128.541  0.00  0.00    -0.496 OA
ATOM     23  C   LIG A   1      -3.750   3.795 127.133  0.00  0.00    +0.174 C 
ATOM     24  C   LIG A   1      -2.267   3.487 126.921  0.00  0.00    +0.052 C 
ENDROOT
BRANCH  20  25
ATOM     25  C   LIG A   1      -5.671   0.425 129.012  0.00  0.00    +0.338 C 
ATOM     26  O   LIG A   1      -6.845   0.478 129.317  0.00  0.00    -0.245 OA
BRANCH  25  27
ATOM     27  O   LIG A   1      -4.800  -0.558 129.372  0.00  0.00    -0.465 OA
ATOM     28  C   LIG A   1      -5.057  -1.832 128.782  0.00  0.00    +0.280 C 
ENDBRANCH  25  27
ENDBRANCH  20  25
TORSDOF 2
ENDMDL
MODEL 6
REMARK VINA RESULT:      -7.7      8.183     10.201
REMARK  Name = NuBBE_326
REMARK  4 active torsions:
REMARK  status: ('A' for Active; 'I' for Inactive)
REMARK    1  A    between atoms: C_23  and  C_24
REMARK    2  A    between atoms: C_24  and  O_25
REMARK    3  A    between atoms: O_25  and  C_26
REMARK    4  A    between atoms: C_30  and  C_32
REMARK                            x       y       z     vdW  Elec       q    Type
REMARK                         _______ _______ _______ _____ _____    ______ ____
ROOT
ATOM      1  H   LIG A   1     -11.004   5.902 133.676  0.00  0.00    +0.155 HD
ATOM      2  N   LIG A   1     -10.425   5.640 132.894  0.00  0.00    -0.284 N 
ATOM      3  C   LIG A   1     -10.571   6.075 131.592  0.00  0.00    +0.038 A 
ATOM      4  C   LIG A   1     -11.530   6.946 131.121  0.00  0.00    +0.023 A 
ATOM      5  C   LIG A   1     -11.484   7.273 129.766  0.00  0.00    +0.002 A 
ATOM      6  C   LIG A   1     -10.492   6.727 128.931  0.00  0.00    +0.000 A 
ATOM      7  C   LIG A   1      -9.533   5.837 129.435  0.00  0.00    +0.006 A 
ATOM      8  C   LIG A   1      -9.586   5.509 130.778  0.00  0.00    -0.010 A 
ATOM      9  C   LIG A   1      -8.715   4.597 131.608  0.00  0.00    +0.090 C 
ATOM     10  C   LIG A   1      -9.345   4.778 133.027  0.00  0.00    +0.229 C 
ATOM     11  O   LIG A   1      -9.025   4.255 134.084  0.00  0.00    -0.274 OA
ATOM     12  C   LIG A   1      -7.206   4.857 131.549  0.00  0.00    +0.077 C 
ATOM     13  C   LIG A   1      -6.675   6.116 132.218  0.00  0.00    +0.029 C 
ATOM     14  C   LIG A   1      -5.135   6.081 132.358  0.00  0.00    +0.038 C 
ATOM     15  C   LIG A   1      -4.756   4.784 133.118  0.00  0.00    +0.051 C 
ATOM     16  C   LIG A   1      -5.278   3.538 132.349  0.00  0.00    +0.092 C 
ATOM     17  N   LIG A   1      -6.716   3.642 132.199  0.00  0.00    -0.298 NA
ATOM     18  C   LIG A   1      -7.401   2.536 131.543  0.00  0.00    +0.086 C 
ATOM     19  C   LIG A   1      -8.794   3.107 131.216  0.00  0.00    +0.038 C 
ATOM     20  C   LIG A   1      -4.270   6.142 131.116  0.00  0.00    +0.074 C 
ATOM     21  C   LIG A   1      -3.050   5.575 131.105  0.00  0.00    +0.198 C 
ATOM     22  O   LIG A   1      -2.474   4.858 132.119  0.00  0.00    -0.496 OA
ATOM     23  C   LIG A   1      -3.232   4.713 133.329  0.00  0.00    +0.174 C 
ATOM     24  C   LIG A   1      -2.722   5.742 134.339  0.00  0.00    +0.052 C 
ENDROOT
BRANCH  20  25
ATOM     25  C   LIG A   1      -4.778   6.742 129.855  0.00  0.00    +0.338 C 
ATOM     26  O   LIG A   1      -4.892   6.146 128.804  0.00  0.00    -0.245 OA
BRANCH  25  27
ATOM     27  O   LIG A   1      -4.951   8.081 130.032  0.00  0.00    -0.465 OA
ATOM     28  C   LIG A   1      -3.851   8.888 129.611  0.00  0.00    +0.280 C 
ENDBRANCH  25  27
ENDBRANCH  20  25
TORSDOF 2
ENDMDL
MODEL 7
REMARK VINA RESULT:      -7.7      7.634      9.999
REMARK  Name = NuBBE_326
REMARK  4 active torsions:
REMARK  status: ('A' for Active; 'I' for Inactive)
REMARK    1  A    between atoms: C_23  and  C_24
REMARK    2  A    between atoms: C_24  and  O_25
REMARK    3  A    between atoms: O_25  and  C_26
REMARK    4  A    between atoms: C_30  and  C_32
REMARK                            x       y       z     vdW  Elec       q    Type
REMARK                         _______ _______ _______ _____ _____    ______ ____
ROOT
ATOM      1  H   LIG A   1      -2.321   7.424 128.901  0.00  0.00    +0.155 HD
ATOM      2  N   LIG A   1      -2.744   6.663 129.409  0.00  0.00    -0.284 N 
ATOM      3  C   LIG A   1      -2.278   6.111 130.586  0.00  0.00    +0.038 A 
ATOM      4  C   LIG A   1      -1.153   6.497 131.283  0.00  0.00    +0.023 A 
ATOM      5  C   LIG A   1      -0.873   5.817 132.468  0.00  0.00    +0.002 A 
ATOM      6  C   LIG A   1      -1.718   4.785 132.917  0.00  0.00    +0.000 A 
ATOM      7  C   LIG A   1      -2.852   4.408 132.185  0.00  0.00    +0.006 A 
ATOM      8  C   LIG A   1      -3.122   5.080 131.006  0.00  0.00    -0.010 A 
ATOM      9  C   LIG A   1      -4.243   4.912 130.008  0.00  0.00    +0.090 C 
ATOM     10  C   LIG A   1      -3.915   6.048 128.984  0.00  0.00    +0.229 C 
ATOM     11  O   LIG A   1      -4.507   6.357 127.962  0.00  0.00    -0.274 OA
ATOM     12  C   LIG A   1      -5.667   4.962 130.570  0.00  0.00    +0.077 C 
ATOM     13  C   LIG A   1      -6.191   6.302 131.065  0.00  0.00    +0.029 C 
ATOM     14  C   LIG A   1      -7.720   6.266 131.295  0.00  0.00    +0.038 C 
ATOM     15  C   LIG A   1      -8.390   5.803 129.977  0.00  0.00    +0.051 C 
ATOM     16  C   LIG A   1      -7.852   4.405 129.563  0.00  0.00    +0.092 C 
ATOM     17  N   LIG A   1      -6.412   4.477 129.408  0.00  0.00    -0.298 NA
ATOM     18  C   LIG A   1      -5.726   3.269 128.972  0.00  0.00    +0.086 C 
ATOM     19  C   LIG A   1      -4.242   3.560 129.266  0.00  0.00    +0.038 C 
ATOM     20  C   LIG A   1      -8.288   5.413 132.410  0.00  0.00    +0.074 C 
ATOM     21  C   LIG A   1      -9.531   4.907 132.318  0.00  0.00    +0.198 C 
ATOM     22  O   LIG A   1     -10.384   5.028 131.253  0.00  0.00    -0.496 OA
ATOM     23  C   LIG A   1      -9.922   5.791 130.129  0.00  0.00    +0.174 C 
ATOM     24  C   LIG A   1     -10.522   7.195 130.225  0.00  0.00    +0.052 C 
ENDROOT
BRANCH  20  25
ATOM     25  C   LIG A   1      -7.462   5.034 133.586  0.00  0.00    +0.338 C 
ATOM     26  O   LIG A   1      -6.831   4.002 133.683  0.00  0.00    -0.245 OA
BRANCH  25  27
ATOM     27  O   LIG A   1      -7.643   5.950 134.577  0.00  0.00    -0.465 OA
ATOM     28  C   LIG A   1      -7.213   5.527 135.871  0.00  0.00    +0.280 C 
ENDBRANCH  25  27
ENDBRANCH  20  25
TORSDOF 2
ENDMDL
MODEL 8
REMARK VINA RESULT:      -7.5      3.804      7.359
REMARK  Name = NuBBE_326
REMARK  4 active torsions:
REMARK  status: ('A' for Active; 'I' for Inactive)
REMARK    1  A    between atoms: C_23  and  C_24
REMARK    2  A    between atoms: C_24  and  O_25
REMARK    3  A    between atoms: O_25  and  C_26
REMARK    4  A    between atoms: C_30  and  C_32
REMARK                            x       y       z     vdW  Elec       q    Type
REMARK                         _______ _______ _______ _____ _____    ______ ____
ROOT
ATOM      1  H   LIG A   1      -5.854  -3.340 126.703  0.00  0.00    +0.155 HD
ATOM      2  N   LIG A   1      -5.812  -2.529 127.300  0.00  0.00    -0.284 N 
ATOM      3  C   LIG A   1      -4.979  -2.362 128.389  0.00  0.00    +0.038 A 
ATOM      4  C   LIG A   1      -4.053  -3.268 128.859  0.00  0.00    +0.023 A 
ATOM      5  C   LIG A   1      -3.294  -2.889 129.966  0.00  0.00    +0.002 A 
ATOM      6  C   LIG A   1      -3.480  -1.627 130.562  0.00  0.00    +0.000 A 
ATOM      7  C   LIG A   1      -4.433  -0.727 130.067  0.00  0.00    +0.006 A 
ATOM      8  C   LIG A   1      -5.189  -1.110 128.973  0.00  0.00    -0.010 A 
ATOM      9  C   LIG A   1      -6.277  -0.383 128.220  0.00  0.00    +0.090 C 
ATOM     10  C   LIG A   1      -6.610  -1.412 127.091  0.00  0.00    +0.229 C 
ATOM     11  O   LIG A   1      -7.435  -1.330 126.194  0.00  0.00    -0.274 OA
ATOM     12  C   LIG A   1      -5.932   1.021 127.713  0.00  0.00    +0.077 C 
ATOM     13  C   LIG A   1      -4.939   1.139 126.566  0.00  0.00    +0.029 C 
ATOM     14  C   LIG A   1      -4.936   2.560 125.958  0.00  0.00    +0.038 C 
ATOM     15  C   LIG A   1      -6.389   2.902 125.540  0.00  0.00    +0.051 C 
ATOM     16  C   LIG A   1      -7.336   2.820 126.769  0.00  0.00    +0.092 C 
ATOM     17  N   LIG A   1      -7.266   1.486 127.333  0.00  0.00    -0.298 NA
ATOM     18  C   LIG A   1      -8.127   1.196 128.471  0.00  0.00    +0.086 C 
ATOM     19  C   LIG A   1      -7.556  -0.117 129.041  0.00  0.00    +0.038 C 
ATOM     20  C   LIG A   1      -4.422   3.724 126.781  0.00  0.00    +0.074 C 
ATOM     21  C   LIG A   1      -4.886   4.969 126.569  0.00  0.00    +0.198 C 
ATOM     22  O   LIG A   1      -5.867   5.334 125.685  0.00  0.00    -0.496 OA
ATOM     23  C   LIG A   1      -6.444   4.294 124.884  0.00  0.00    +0.174 C 
ATOM     24  C   LIG A   1      -5.782   4.330 123.505  0.00  0.00    +0.052 C 
ENDROOT
BRANCH  20  25
ATOM     25  C   LIG A   1      -3.466   3.512 127.899  0.00  0.00    +0.338 C 
ATOM     26  O   LIG A   1      -3.781   3.182 129.023  0.00  0.00    -0.245 OA
BRANCH  25  27
ATOM     27  O   LIG A   1      -2.218   3.883 127.500  0.00  0.00    -0.465 OA
ATOM     28  C   LIG A   1      -1.563   2.953 126.637  0.00  0.00    +0.280 C 
ENDBRANCH  25  27
ENDBRANCH  20  25
TORSDOF 2
ENDMDL
MODEL 9
REMARK VINA RESULT:      -7.4      3.564      6.411
REMARK  Name = NuBBE_326
REMARK  4 active torsions:
REMARK  status: ('A' for Active; 'I' for Inactive)
REMARK    1  A    between atoms: C_23  and  C_24
REMARK    2  A    between atoms: C_24  and  O_25
REMARK    3  A    between atoms: O_25  and  C_26
REMARK    4  A    between atoms: C_30  and  C_32
REMARK                            x       y       z     vdW  Elec       q    Type
REMARK                         _______ _______ _______ _____ _____    ______ ____
ROOT
ATOM      1  H   LIG A   1      -9.665   4.533 130.396  0.00  0.00    +0.155 HD
ATOM      2  N   LIG A   1      -9.060   3.783 130.102  0.00  0.00    -0.284 N 
ATOM      3  C   LIG A   1      -9.017   2.512 130.642  0.00  0.00    +0.038 A 
ATOM      4  C   LIG A   1      -9.791   2.035 131.678  0.00  0.00    +0.023 A 
ATOM      5  C   LIG A   1      -9.601   0.707 132.056  0.00  0.00    +0.002 A 
ATOM      6  C   LIG A   1      -8.656  -0.098 131.393  0.00  0.00    +0.000 A 
ATOM      7  C   LIG A   1      -7.877   0.415 130.347  0.00  0.00    +0.006 A 
ATOM      8  C   LIG A   1      -8.063   1.736 129.980  0.00  0.00    -0.010 A 
ATOM      9  C   LIG A   1      -7.391   2.569 128.914  0.00  0.00    +0.090 C 
ATOM     10  C   LIG A   1      -8.157   3.925 129.057  0.00  0.00    +0.229 C 
ATOM     11  O   LIG A   1      -8.006   4.963 128.431  0.00  0.00    -0.274 OA
ATOM     12  C   LIG A   1      -7.393   1.990 127.496  0.00  0.00    +0.077 C 
ATOM     13  C   LIG A   1      -8.718   1.942 126.748  0.00  0.00    +0.029 C 
ATOM     14  C   LIG A   1      -8.513   1.642 125.245  0.00  0.00    +0.038 C 
ATOM     15  C   LIG A   1      -7.533   2.701 124.677  0.00  0.00    +0.051 C 
ATOM     16  C   LIG A   1      -6.184   2.653 125.447  0.00  0.00    +0.092 C 
ATOM     17  N   LIG A   1      -6.434   2.889 126.856  0.00  0.00    -0.298 NA
ATOM     18  C   LIG A   1      -5.278   2.933 127.741  0.00  0.00    +0.086 C 
ATOM     19  C   LIG A   1      -5.888   2.821 129.151  0.00  0.00    +0.038 C 
ATOM     20  C   LIG A   1      -8.000   0.282 124.817  0.00  0.00    +0.074 C 
ATOM     21  C   LIG A   1      -7.298   0.145 123.678  0.00  0.00    +0.198 C 
ATOM     22  O   LIG A   1      -6.916   1.148 122.828  0.00  0.00    -0.496 OA
ATOM     23  C   LIG A   1      -7.324   2.481 123.167  0.00  0.00    +0.174 C 
ATOM     24  C   LIG A   1      -8.561   2.829 122.338  0.00  0.00    +0.052 C 
ENDROOT
BRANCH  20  25
ATOM     25  C   LIG A   1      -8.176  -0.912 125.683  0.00  0.00    +0.338 C 
ATOM     26  O   LIG A   1      -7.307  -1.395 126.378  0.00  0.00    -0.245 OA
BRANCH  25  27
ATOM     27  O   LIG A   1      -9.406  -1.453 125.459  0.00  0.00    -0.465 OA
ATOM     28  C   LIG A   1      -9.511  -2.846 125.752  0.00  0.00    +0.280 C 
ENDBRANCH  25  27
ENDBRANCH  20  25
TORSDOF 2
ENDMDL
