MODEL 1
REMARK VINA RESULT:      -7.5      0.000      0.000
REMARK  Name = NuBBE_2102
REMARK  12 active torsions:
REMARK  status: ('A' for Active; 'I' for Inactive)
REMARK    1  A    between atoms: O_1  and  C_2
REMARK    2  A    between atoms: O_1  and  C_3
REMARK    3  A    between atoms: C_4  and  C_19
REMARK    4  A    between atoms: C_5  and  C_18
REMARK    5  A    between atoms: C_6  and  C_9
REMARK    6  A    between atoms: C_7  and  O_8
REMARK    7  A    between atoms: C_9  and  C_10
REMARK    8  A    between atoms: C_13  and  O_16
REMARK    9  A    between atoms: C_14  and  O_15
REMARK   10  A    between atoms: O_16  and  C_17
REMARK   11  A    between atoms: C_23  and  O_25
REMARK   12  A    between atoms: O_25  and  C_26
REMARK                            x       y       z     vdW  Elec       q    Type
REMARK                         _______ _______ _______ _____ _____    ______ ____
ROOT
ATOM      1  C   LIG A   1      -7.803   2.476 126.714  0.00  0.00    +0.130 C 
ATOM      2  C   LIG A   1      -6.950   1.130 126.887  0.00  0.00    +0.060 C 
ATOM      3  C   LIG A   1      -5.458   1.605 126.892  0.00  0.00    +0.005 C 
ATOM      4  C   LIG A   1      -5.507   3.097 126.458  0.00  0.00    +0.009 C 
ATOM      5  C   LIG A   1      -6.776   3.562 127.179  0.00  0.00    +0.156 C 
ATOM      6  C   LIG A   1      -5.705   3.228 124.899  0.00  0.00    +0.044 C 
ATOM      7  C   LIG A   1      -7.037   2.735 124.286  0.00  0.00    +0.150 C 
ATOM      8  C   LIG A   1      -8.225   2.779 125.260  0.00  0.00    +0.178 C 
ATOM      9  C   LIG A   1      -4.879   1.344 128.300  0.00  0.00    +0.009 C 
ENDROOT
BRANCH   2  10
ATOM     10  C   LIG A   1      -7.202  -0.126 126.041  0.00  0.00    -0.034 A 
ATOM     11  C   LIG A   1      -8.470  -0.746 125.987  0.00  0.00    +0.053 A 
ATOM     12  C   LIG A   1      -8.667  -1.843 125.168  0.00  0.00    +0.170 A 
ATOM     13  C   LIG A   1      -7.673  -2.330 124.364  0.00  0.00    +0.207 A 
ATOM     14  C   LIG A   1      -6.432  -1.721 124.323  0.00  0.00    +0.166 A 
ATOM     15  C   LIG A   1      -6.205  -0.614 125.166  0.00  0.00    +0.053 A 
ATOM     16  O   LIG A   1      -8.097  -3.396 123.624  0.00  0.00    -0.449 OA
ATOM     17  C   LIG A   1      -9.463  -3.523 124.066  0.00  0.00    +0.467 C 
ATOM     18  O   LIG A   1      -9.836  -2.531 125.043  0.00  0.00    -0.453 OA
BRANCH  14  19
ATOM     19  O   LIG A   1      -5.505  -2.256 123.472  0.00  0.00    -0.491 OA
ATOM     20  C   LIG A   1      -4.810  -3.393 123.968  0.00  0.00    +0.277 C 
ENDBRANCH  14  19
ENDBRANCH   2  10
BRANCH   1  21
ATOM     21  O   LIG A   1      -8.931   2.370 127.610  0.00  0.00    -0.371 OA
ATOM     22  C   LIG A   1      -8.662   2.259 129.005  0.00  0.00    +0.195 C 
ENDBRANCH   1  21
BRANCH   5  23
ATOM     23  O   LIG A   1      -7.055   4.919 126.862  0.00  0.00    -0.388 OA
ATOM     24  H   LIG A   1      -6.251   5.305 126.434  0.00  0.00    +0.210 HD
ENDBRANCH   5  23
BRANCH   8  25
ATOM     25  O   LIG A   1      -8.846   4.090 125.184  0.00  0.00    -0.386 OA
ATOM     26  H   LIG A   1      -8.276   4.664 125.756  0.00  0.00    +0.210 HD
ENDBRANCH   8  25
BRANCH   7  27
ATOM     27  O   LIG A   1      -7.440   3.518 123.141  0.00  0.00    -0.377 OA
ATOM     28  C   LIG A   1      -6.520   3.514 122.062  0.00  0.00    +0.194 C 
ENDBRANCH   7  27
BRANCH   4  29
ATOM     29  C   LIG A   1      -4.264   3.922 126.883  0.00  0.00    +0.036 C 
BRANCH  29  30
ATOM     30  C   LIG A   1      -2.963   3.545 126.179  0.00  0.00    -0.034 C 
ATOM     31  C   LIG A   1      -1.825   3.119 126.812  0.00  0.00    +0.004 C 
ENDBRANCH  29  30
ENDBRANCH   4  29
TORSDOF 8
ENDMDL
MODEL 2
REMARK VINA RESULT:      -7.2      0.882      2.051
REMARK  Name = NuBBE_2102
REMARK  12 active torsions:
REMARK  status: ('A' for Active; 'I' for Inactive)
REMARK    1  A    between atoms: O_1  and  C_2
REMARK    2  A    between atoms: O_1  and  C_3
REMARK    3  A    between atoms: C_4  and  C_19
REMARK    4  A    between atoms: C_5  and  C_18
REMARK    5  A    between atoms: C_6  and  C_9
REMARK    6  A    between atoms: C_7  and  O_8
REMARK    7  A    between atoms: C_9  and  C_10
REMARK    8  A    between atoms: C_13  and  O_16
REMARK    9  A    between atoms: C_14  and  O_15
REMARK   10  A    between atoms: O_16  and  C_17
REMARK   11  A    between atoms: C_23  and  O_25
REMARK   12  A    between atoms: O_25  and  C_26
REMARK                            x       y       z     vdW  Elec       q    Type
REMARK                         _______ _______ _______ _____ _____    ______ ____
ROOT
ATOM      1  C   LIG A   1      -7.656   2.425 126.832  0.00  0.00    +0.130 C 
ATOM      2  C   LIG A   1      -6.722   1.164 127.159  0.00  0.00    +0.060 C 
ATOM      3  C   LIG A   1      -5.271   1.748 127.203  0.00  0.00    +0.005 C 
ATOM      4  C   LIG A   1      -5.399   3.194 126.645  0.00  0.00    +0.009 C 
ATOM      5  C   LIG A   1      -6.737   3.618 127.258  0.00  0.00    +0.156 C 
ATOM      6  C   LIG A   1      -5.515   3.187 125.072  0.00  0.00    +0.044 C 
ATOM      7  C   LIG A   1      -6.772   2.549 124.434  0.00  0.00    +0.150 C 
ATOM      8  C   LIG A   1      -8.014   2.580 125.338  0.00  0.00    +0.178 C 
ATOM      9  C   LIG A   1      -4.757   1.643 128.655  0.00  0.00    +0.009 C 
ENDROOT
BRANCH   2  10
ATOM     10  C   LIG A   1      -6.835  -0.170 126.408  0.00  0.00    -0.034 A 
ATOM     11  C   LIG A   1      -5.806  -0.636 125.559  0.00  0.00    +0.053 A 
ATOM     12  C   LIG A   1      -5.925  -1.870 124.945  0.00  0.00    +0.170 A 
ATOM     13  C   LIG A   1      -7.001  -2.686 125.168  0.00  0.00    +0.207 A 
ATOM     14  C   LIG A   1      -8.005  -2.312 126.044  0.00  0.00    +0.166 A 
ATOM     15  C   LIG A   1      -7.912  -1.049 126.662  0.00  0.00    +0.053 A 
ATOM     16  O   LIG A   1      -6.895  -3.862 124.483  0.00  0.00    -0.449 OA
ATOM     17  C   LIG A   1      -5.638  -3.681 123.802  0.00  0.00    +0.467 C 
ATOM     18  O   LIG A   1      -5.010  -2.418 124.099  0.00  0.00    -0.453 OA
BRANCH  14  19
ATOM     19  O   LIG A   1      -9.029  -3.198 126.228  0.00  0.00    -0.491 OA
ATOM     20  C   LIG A   1      -9.038  -3.864 127.484  0.00  0.00    +0.277 C 
ENDBRANCH  14  19
ENDBRANCH   2  10
BRANCH   1  21
ATOM     21  O   LIG A   1      -8.825   2.305 127.673  0.00  0.00    -0.371 OA
ATOM     22  C   LIG A   1      -8.625   2.279 129.084  0.00  0.00    +0.195 C 
ENDBRANCH   1  21
BRANCH   5  23
ATOM     23  O   LIG A   1      -7.092   4.921 126.816  0.00  0.00    -0.388 OA
ATOM     24  H   LIG A   1      -6.268   5.378 126.516  0.00  0.00    +0.210 HD
ENDBRANCH   5  23
BRANCH   8  25
ATOM     25  O   LIG A   1      -8.721   3.830 125.121  0.00  0.00    -0.386 OA
ATOM     26  H   LIG A   1      -8.027   4.528 125.249  0.00  0.00    +0.210 HD
ENDBRANCH   8  25
BRANCH   7  27
ATOM     27  O   LIG A   1      -7.162   3.207 123.209  0.00  0.00    -0.377 OA
ATOM     28  C   LIG A   1      -6.095   3.790 122.479  0.00  0.00    +0.194 C 
ENDBRANCH   7  27
BRANCH   4  29
ATOM     29  C   LIG A   1      -4.244   4.141 127.065  0.00  0.00    +0.036 C 
BRANCH  29  30
ATOM     30  C   LIG A   1      -2.916   3.898 126.353  0.00  0.00    -0.034 C 
ATOM     31  C   LIG A   1      -1.874   3.170 126.866  0.00  0.00    +0.004 C 
ENDBRANCH  29  30
ENDBRANCH   4  29
TORSDOF 8
ENDMDL
MODEL 3
REMARK VINA RESULT:      -6.9      2.308      6.786
REMARK  Name = NuBBE_2102
REMARK  12 active torsions:
REMARK  status: ('A' for Active; 'I' for Inactive)
REMARK    1  A    between atoms: O_1  and  C_2
REMARK    2  A    between atoms: O_1  and  C_3
REMARK    3  A    between atoms: C_4  and  C_19
REMARK    4  A    between atoms: C_5  and  C_18
REMARK    5  A    between atoms: C_6  and  C_9
REMARK    6  A    between atoms: C_7  and  O_8
REMARK    7  A    between atoms: C_9  and  C_10
REMARK    8  A    between atoms: C_13  and  O_16
REMARK    9  A    between atoms: C_14  and  O_15
REMARK   10  A    between atoms: O_16  and  C_17
REMARK   11  A    between atoms: C_23  and  O_25
REMARK   12  A    between atoms: O_25  and  C_26
REMARK                            x       y       z     vdW  Elec       q    Type
REMARK                         _______ _______ _______ _____ _____    ______ ____
ROOT
ATOM      1  C   LIG A   1      -7.883  -0.646 126.492  0.00  0.00    +0.130 C 
ATOM      2  C   LIG A   1      -6.994   0.369 125.626  0.00  0.00    +0.060 C 
ATOM      3  C   LIG A   1      -6.220  -0.545 124.618  0.00  0.00    +0.005 C 
ATOM      4  C   LIG A   1      -6.470  -1.998 125.114  0.00  0.00    +0.009 C 
ATOM      5  C   LIG A   1      -7.933  -1.899 125.556  0.00  0.00    +0.156 C 
ATOM      6  C   LIG A   1      -5.562  -2.336 126.358  0.00  0.00    +0.044 C 
ATOM      7  C   LIG A   1      -5.808  -1.564 127.676  0.00  0.00    +0.150 C 
ATOM      8  C   LIG A   1      -7.249  -1.054 127.839  0.00  0.00    +0.178 C 
ATOM      9  C   LIG A   1      -6.738  -0.235 123.196  0.00  0.00    +0.009 C 
ENDROOT
BRANCH   2  10
ATOM     10  C   LIG A   1      -6.131   1.467 126.261  0.00  0.00    -0.034 A 
ATOM     11  C   LIG A   1      -4.729   1.509 126.083  0.00  0.00    +0.053 A 
ATOM     12  C   LIG A   1      -3.996   2.548 126.628  0.00  0.00    +0.170 A 
ATOM     13  C   LIG A   1      -4.594   3.574 127.307  0.00  0.00    +0.207 A 
ATOM     14  C   LIG A   1      -5.969   3.622 127.452  0.00  0.00    +0.166 A 
ATOM     15  C   LIG A   1      -6.732   2.561 126.922  0.00  0.00    +0.053 A 
ATOM     16  O   LIG A   1      -3.685   4.499 127.730  0.00  0.00    -0.449 OA
ATOM     17  C   LIG A   1      -2.453   3.928 127.248  0.00  0.00    +0.467 C 
ATOM     18  O   LIG A   1      -2.645   2.689 126.536  0.00  0.00    -0.453 OA
BRANCH  14  19
ATOM     19  O   LIG A   1      -6.486   4.696 128.122  0.00  0.00    -0.491 OA
ATOM     20  C   LIG A   1      -6.833   4.457 129.479  0.00  0.00    +0.277 C 
ENDBRANCH  14  19
ENDBRANCH   2  10
BRANCH   1  21
ATOM     21  O   LIG A   1      -9.179  -0.029 126.652  0.00  0.00    -0.371 OA
ATOM     22  C   LIG A   1      -9.718   0.679 125.539  0.00  0.00    +0.195 C 
ENDBRANCH   1  21
BRANCH   5  23
ATOM     23  O   LIG A   1      -8.363  -3.132 126.119  0.00  0.00    -0.388 OA
ATOM     24  H   LIG A   1      -7.622  -3.781 126.037  0.00  0.00    +0.210 HD
ENDBRANCH   5  23
BRANCH   8  25
ATOM     25  O   LIG A   1      -8.045  -2.092 128.471  0.00  0.00    -0.386 OA
ATOM     26  H   LIG A   1      -7.931  -1.928 129.443  0.00  0.00    +0.210 HD
ENDBRANCH   8  25
BRANCH   7  27
ATOM     27  O   LIG A   1      -5.544  -2.371 128.845  0.00  0.00    -0.377 OA
ATOM     28  C   LIG A   1      -4.189  -2.755 129.009  0.00  0.00    +0.194 C 
ENDBRANCH   7  27
BRANCH   4  29
ATOM     29  C   LIG A   1      -6.266  -3.084 124.025  0.00  0.00    +0.036 C 
BRANCH  29  30
ATOM     30  C   LIG A   1      -4.811  -3.398 123.688  0.00  0.00    -0.034 C 
ATOM     31  C   LIG A   1      -4.287  -4.659 123.576  0.00  0.00    +0.004 C 
ENDBRANCH  29  30
ENDBRANCH   4  29
TORSDOF 8
ENDMDL
MODEL 4
REMARK VINA RESULT:      -6.8      1.935      2.575
REMARK  Name = NuBBE_2102
REMARK  12 active torsions:
REMARK  status: ('A' for Active; 'I' for Inactive)
REMARK    1  A    between atoms: O_1  and  C_2
REMARK    2  A    between atoms: O_1  and  C_3
REMARK    3  A    between atoms: C_4  and  C_19
REMARK    4  A    between atoms: C_5  and  C_18
REMARK    5  A    between atoms: C_6  and  C_9
REMARK    6  A    between atoms: C_7  and  O_8
REMARK    7  A    between atoms: C_9  and  C_10
REMARK    8  A    between atoms: C_13  and  O_16
REMARK    9  A    between atoms: C_14  and  O_15
REMARK   10  A    between atoms: O_16  and  C_17
REMARK   11  A    between atoms: C_23  and  O_25
REMARK   12  A    between atoms: O_25  and  C_26
REMARK                            x       y       z     vdW  Elec       q    Type
REMARK                         _______ _______ _______ _____ _____    ______ ____
ROOT
ATOM      1  C   LIG A   1      -6.990   3.960 127.102  0.00  0.00    +0.130 C 
ATOM      2  C   LIG A   1      -6.940   2.440 127.609  0.00  0.00    +0.060 C 
ATOM      3  C   LIG A   1      -5.419   2.149 127.837  0.00  0.00    +0.005 C 
ATOM      4  C   LIG A   1      -4.676   3.362 127.210  0.00  0.00    +0.009 C 
ATOM      5  C   LIG A   1      -5.613   4.507 127.608  0.00  0.00    +0.156 C 
ATOM      6  C   LIG A   1      -4.623   3.244 125.638  0.00  0.00    +0.044 C 
ATOM      7  C   LIG A   1      -5.953   3.319 124.852  0.00  0.00    +0.150 C 
ATOM      8  C   LIG A   1      -7.055   4.116 125.568  0.00  0.00    +0.178 C 
ATOM      9  C   LIG A   1      -5.193   1.946 129.351  0.00  0.00    +0.009 C 
ENDROOT
BRANCH   2  10
ATOM     10  C   LIG A   1      -7.694   1.305 126.903  0.00  0.00    -0.034 A 
ATOM     11  C   LIG A   1      -7.453  -0.053 127.211  0.00  0.00    +0.053 A 
ATOM     12  C   LIG A   1      -8.194  -1.043 126.590  0.00  0.00    +0.170 A 
ATOM     13  C   LIG A   1      -9.197  -0.746 125.708  0.00  0.00    +0.207 A 
ATOM     14  C   LIG A   1      -9.524   0.567 125.421  0.00  0.00    +0.166 A 
ATOM     15  C   LIG A   1      -8.766   1.589 126.028  0.00  0.00    +0.053 A 
ATOM     16  O   LIG A   1      -9.810  -1.873 125.241  0.00  0.00    -0.449 OA
ATOM     17  C   LIG A   1      -9.070  -2.903 125.924  0.00  0.00    +0.467 C 
ATOM     18  O   LIG A   1      -8.044  -2.381 126.794  0.00  0.00    -0.453 OA
BRANCH  14  19
ATOM     19  O   LIG A   1     -10.556   0.774 124.549  0.00  0.00    -0.491 OA
ATOM     20  C   LIG A   1     -10.174   1.011 123.201  0.00  0.00    +0.277 C 
ENDBRANCH  14  19
ENDBRANCH   2  10
BRANCH   1  21
ATOM     21  O   LIG A   1      -8.107   4.584 127.772  0.00  0.00    -0.371 OA
ATOM     22  C   LIG A   1      -8.246   4.365 129.174  0.00  0.00    +0.195 C 
ENDBRANCH   1  21
BRANCH   5  23
ATOM     23  O   LIG A   1      -5.148   5.737 127.068  0.00  0.00    -0.388 OA
ATOM     24  H   LIG A   1      -4.974   6.355 127.820  0.00  0.00    +0.210 HD
ENDBRANCH   5  23
BRANCH   8  25
ATOM     25  O   LIG A   1      -6.933   5.517 125.203  0.00  0.00    -0.386 OA
ATOM     26  H   LIG A   1      -6.652   5.497 124.252  0.00  0.00    +0.210 HD
ENDBRANCH   8  25
BRANCH   7  27
ATOM     27  O   LIG A   1      -5.795   3.942 123.559  0.00  0.00    -0.377 OA
ATOM     28  C   LIG A   1      -6.335   3.207 122.473  0.00  0.00    +0.194 C 
ENDBRANCH   7  27
BRANCH   4  29
ATOM     29  C   LIG A   1      -3.238   3.575 127.752  0.00  0.00    +0.036 C 
BRANCH  29  30
ATOM     30  C   LIG A   1      -2.146   3.632 126.688  0.00  0.00    -0.034 C 
ATOM     31  C   LIG A   1      -1.099   2.753 126.593  0.00  0.00    +0.004 C 
ENDBRANCH  29  30
ENDBRANCH   4  29
TORSDOF 8
ENDMDL
MODEL 5
REMARK VINA RESULT:      -6.6      2.292      3.619
REMARK  Name = NuBBE_2102
REMARK  12 active torsions:
REMARK  status: ('A' for Active; 'I' for Inactive)
REMARK    1  A    between atoms: O_1  and  C_2
REMARK    2  A    between atoms: O_1  and  C_3
REMARK    3  A    between atoms: C_4  and  C_19
REMARK    4  A    between atoms: C_5  and  C_18
REMARK    5  A    between atoms: C_6  and  C_9
REMARK    6  A    between atoms: C_7  and  O_8
REMARK    7  A    between atoms: C_9  and  C_10
REMARK    8  A    between atoms: C_13  and  O_16
REMARK    9  A    between atoms: C_14  and  O_15
REMARK   10  A    between atoms: O_16  and  C_17
REMARK   11  A    between atoms: C_23  and  O_25
REMARK   12  A    between atoms: O_25  and  C_26
REMARK                            x       y       z     vdW  Elec       q    Type
REMARK                         _______ _______ _______ _____ _____    ______ ____
ROOT
ATOM      1  C   LIG A   1      -7.764   2.754 126.128  0.00  0.00    +0.130 C 
ATOM      2  C   LIG A   1      -6.327   2.225 126.602  0.00  0.00    +0.060 C 
ATOM      3  C   LIG A   1      -5.356   2.623 125.440  0.00  0.00    +0.005 C 
ATOM      4  C   LIG A   1      -6.281   3.088 124.280  0.00  0.00    +0.009 C 
ATOM      5  C   LIG A   1      -7.368   3.832 125.063  0.00  0.00    +0.156 C 
ATOM      6  C   LIG A   1      -6.918   1.853 123.533  0.00  0.00    +0.044 C 
ATOM      7  C   LIG A   1      -7.908   0.956 124.312  0.00  0.00    +0.150 C 
ATOM      8  C   LIG A   1      -8.644   1.683 125.449  0.00  0.00    +0.178 C 
ATOM      9  C   LIG A   1      -4.382   3.694 125.978  0.00  0.00    +0.009 C 
ENDROOT
BRANCH   2  10
ATOM     10  C   LIG A   1      -6.103   0.806 127.143  0.00  0.00    -0.034 A 
ATOM     11  C   LIG A   1      -6.371   0.471 128.490  0.00  0.00    +0.053 A 
ATOM     12  C   LIG A   1      -6.208  -0.832 128.922  0.00  0.00    +0.170 A 
ATOM     13  C   LIG A   1      -5.832  -1.833 128.068  0.00  0.00    +0.207 A 
ATOM     14  C   LIG A   1      -5.624  -1.578 126.724  0.00  0.00    +0.166 A 
ATOM     15  C   LIG A   1      -5.765  -0.251 126.269  0.00  0.00    +0.053 A 
ATOM     16  O   LIG A   1      -5.761  -3.040 128.702  0.00  0.00    -0.449 OA
ATOM     17  C   LIG A   1      -6.125  -2.675 130.048  0.00  0.00    +0.467 C 
ATOM     18  O   LIG A   1      -6.421  -1.271 130.193  0.00  0.00    -0.453 OA
BRANCH  14  19
ATOM     19  O   LIG A   1      -5.277  -2.640 125.937  0.00  0.00    -0.491 OA
ATOM     20  C   LIG A   1      -5.492  -2.460 124.543  0.00  0.00    +0.277 C 
ENDBRANCH  14  19
ENDBRANCH   2  10
BRANCH   1  21
ATOM     21  O   LIG A   1      -8.395   3.338 127.289  0.00  0.00    -0.371 OA
ATOM     22  C   LIG A   1      -7.590   4.144 128.145  0.00  0.00    +0.195 C 
ENDBRANCH   1  21
BRANCH   5  23
ATOM     23  O   LIG A   1      -8.380   4.298 124.181  0.00  0.00    -0.388 OA
ATOM     24  H   LIG A   1      -8.406   5.285 124.239  0.00  0.00    +0.210 HD
ENDBRANCH   5  23
BRANCH   8  25
ATOM     25  O   LIG A   1      -9.849   2.293 124.913  0.00  0.00    -0.386 OA
ATOM     26  H   LIG A   1      -9.534   3.143 124.513  0.00  0.00    +0.210 HD
ENDBRANCH   8  25
BRANCH   7  27
ATOM     27  O   LIG A   1      -8.941   0.409 123.464  0.00  0.00    -0.377 OA
ATOM     28  C   LIG A   1      -8.783  -0.963 123.143  0.00  0.00    +0.194 C 
ENDBRANCH   7  27
BRANCH   4  29
ATOM     29  C   LIG A   1      -5.584   4.006 123.242  0.00  0.00    +0.036 C 
BRANCH  29  30
ATOM     30  C   LIG A   1      -5.776   3.598 121.784  0.00  0.00    -0.034 C 
ATOM     31  C   LIG A   1      -5.577   4.422 120.708  0.00  0.00    +0.004 C 
ENDBRANCH  29  30
ENDBRANCH   4  29
TORSDOF 8
ENDMDL
MODEL 6
REMARK VINA RESULT:      -6.5      5.379      8.617
REMARK  Name = NuBBE_2102
REMARK  12 active torsions:
REMARK  status: ('A' for Active; 'I' for Inactive)
REMARK    1  A    between atoms: O_1  and  C_2
REMARK    2  A    between atoms: O_1  and  C_3
REMARK    3  A    between atoms: C_4  and  C_19
REMARK    4  A    between atoms: C_5  and  C_18
REMARK    5  A    between atoms: C_6  and  C_9
REMARK    6  A    between atoms: C_7  and  O_8
REMARK    7  A    between atoms: C_9  and  C_10
REMARK    8  A    between atoms: C_13  and  O_16
REMARK    9  A    between atoms: C_14  and  O_15
REMARK   10  A    between atoms: O_16  and  C_17
REMARK   11  A    between atoms: C_23  and  O_25
REMARK   12  A    between atoms: O_25  and  C_26
REMARK                            x       y       z     vdW  Elec       q    Type
REMARK                         _______ _______ _______ _____ _____    ______ ____
ROOT
ATOM      1  C   LIG A   1      -4.600   6.216 129.956  0.00  0.00    +0.130 C 
ATOM      2  C   LIG A   1      -5.360   6.545 131.328  0.00  0.00    +0.060 C 
ATOM      3  C   LIG A   1      -4.598   5.712 132.412  0.00  0.00    +0.005 C 
ATOM      4  C   LIG A   1      -3.659   4.767 131.611  0.00  0.00    +0.009 C 
ATOM      5  C   LIG A   1      -3.218   5.699 130.477  0.00  0.00    +0.156 C 
ATOM      6  C   LIG A   1      -4.459   3.547 131.012  0.00  0.00    +0.044 C 
ATOM      7  C   LIG A   1      -5.528   3.831 129.930  0.00  0.00    +0.150 C 
ATOM      8  C   LIG A   1      -5.262   5.105 129.113  0.00  0.00    +0.178 C 
ATOM      9  C   LIG A   1      -3.887   6.701 133.361  0.00  0.00    +0.009 C 
ENDROOT
BRANCH   2  10
ATOM     10  C   LIG A   1      -6.888   6.494 131.463  0.00  0.00    -0.034 A 
ATOM     11  C   LIG A   1      -7.740   7.148 130.543  0.00  0.00    +0.053 A 
ATOM     12  C   LIG A   1      -9.112   7.030 130.670  0.00  0.00    +0.170 A 
ATOM     13  C   LIG A   1      -9.682   6.255 131.643  0.00  0.00    +0.207 A 
ATOM     14  C   LIG A   1      -8.898   5.536 132.528  0.00  0.00    +0.166 A 
ATOM     15  C   LIG A   1      -7.497   5.661 132.428  0.00  0.00    +0.053 A 
ATOM     16  O   LIG A   1     -11.045   6.263 131.563  0.00  0.00    -0.449 OA
ATOM     17  C   LIG A   1     -11.258   7.137 130.438  0.00  0.00    +0.467 C 
ATOM     18  O   LIG A   1     -10.030   7.622 129.857  0.00  0.00    -0.453 OA
BRANCH  14  19
ATOM     19  O   LIG A   1      -9.549   4.768 133.452  0.00  0.00    -0.491 OA
ATOM     20  C   LIG A   1      -8.891   3.558 133.808  0.00  0.00    +0.277 C 
ENDBRANCH  14  19
ENDBRANCH   2  10
BRANCH   1  21
ATOM     21  O   LIG A   1      -4.483   7.464 129.237  0.00  0.00    -0.371 OA
ATOM     22  C   LIG A   1      -4.020   8.603 129.958  0.00  0.00    +0.195 C 
ENDBRANCH   1  21
BRANCH   5  23
ATOM     23  O   LIG A   1      -2.381   5.002 129.563  0.00  0.00    -0.388 OA
ATOM     24  H   LIG A   1      -1.674   4.545 130.082  0.00  0.00    +0.210 HD
ENDBRANCH   5  23
BRANCH   8  25
ATOM     25  O   LIG A   1      -4.419   4.768 127.979  0.00  0.00    -0.386 OA
ATOM     26  H   LIG A   1      -4.874   5.187 127.204  0.00  0.00    +0.210 HD
ENDBRANCH   8  25
BRANCH   7  27
ATOM     27  O   LIG A   1      -5.633   2.762 128.965  0.00  0.00    -0.377 OA
ATOM     28  C   LIG A   1      -4.977   1.559 129.334  0.00  0.00    +0.194 C 
ENDBRANCH   7  27
BRANCH   4  29
ATOM     29  C   LIG A   1      -2.451   4.233 132.424  0.00  0.00    +0.036 C 
BRANCH  29  30
ATOM     30  C   LIG A   1      -2.693   2.914 133.153  0.00  0.00    -0.034 C 
ATOM     31  C   LIG A   1      -3.429   2.777 134.301  0.00  0.00    +0.004 C 
ENDBRANCH  29  30
ENDBRANCH   4  29
TORSDOF 8
ENDMDL
MODEL 7
REMARK VINA RESULT:      -6.4      5.277      8.310
REMARK  Name = NuBBE_2102
REMARK  12 active torsions:
REMARK  status: ('A' for Active; 'I' for Inactive)
REMARK    1  A    between atoms: O_1  and  C_2
REMARK    2  A    between atoms: O_1  and  C_3
REMARK    3  A    between atoms: C_4  and  C_19
REMARK    4  A    between atoms: C_5  and  C_18
REMARK    5  A    between atoms: C_6  and  C_9
REMARK    6  A    between atoms: C_7  and  O_8
REMARK    7  A    between atoms: C_9  and  C_10
REMARK    8  A    between atoms: C_13  and  O_16
REMARK    9  A    between atoms: C_14  and  O_15
REMARK   10  A    between atoms: O_16  and  C_17
REMARK   11  A    between atoms: C_23  and  O_25
REMARK   12  A    between atoms: O_25  and  C_26
REMARK                            x       y       z     vdW  Elec       q    Type
REMARK                         _______ _______ _______ _____ _____    ______ ____
ROOT
ATOM      1  C   LIG A   1      -8.013   3.646 131.706  0.00  0.00    +0.130 C 
ATOM      2  C   LIG A   1      -8.952   3.813 130.418  0.00  0.00    +0.060 C 
ATOM      3  C   LIG A   1      -8.013   3.507 129.203  0.00  0.00    +0.005 C 
ATOM      4  C   LIG A   1      -6.579   3.459 129.801  0.00  0.00    +0.009 C 
ATOM      5  C   LIG A   1      -6.851   2.764 131.138  0.00  0.00    +0.156 C 
ATOM      6  C   LIG A   1      -6.024   4.912 130.062  0.00  0.00    +0.044 C 
ATOM      7  C   LIG A   1      -6.724   5.782 131.134  0.00  0.00    +0.150 C 
ATOM      8  C   LIG A   1      -7.420   4.969 132.237  0.00  0.00    +0.178 C 
ATOM      9  C   LIG A   1      -8.498   2.198 128.543  0.00  0.00    +0.009 C 
ENDROOT
BRANCH   2  10
ATOM     10  C   LIG A   1      -9.866   5.028 130.210  0.00  0.00    -0.034 A 
ATOM     11  C   LIG A   1     -10.899   5.349 131.119  0.00  0.00    +0.053 A 
ATOM     12  C   LIG A   1     -11.663   6.484 130.923  0.00  0.00    +0.170 A 
ATOM     13  C   LIG A   1     -11.423   7.345 129.887  0.00  0.00    +0.207 A 
ATOM     14  C   LIG A   1     -10.380   7.120 129.005  0.00  0.00    +0.166 A 
ATOM     15  C   LIG A   1      -9.604   5.956 129.177  0.00  0.00    +0.053 A 
ATOM     16  O   LIG A   1     -12.277   8.409 129.903  0.00  0.00    -0.449 OA
ATOM     17  C   LIG A   1     -13.083   8.108 131.060  0.00  0.00    +0.467 C 
ATOM     18  O   LIG A   1     -12.690   6.888 131.720  0.00  0.00    -0.453 OA
BRANCH  14  19
ATOM     19  O   LIG A   1     -10.194   8.043 128.014  0.00  0.00    -0.491 OA
ATOM     20  C   LIG A   1     -10.901   7.791 126.807  0.00  0.00    +0.277 C 
ENDBRANCH  14  19
ENDBRANCH   2  10
BRANCH   1  21
ATOM     21  O   LIG A   1      -8.794   2.949 132.701  0.00  0.00    -0.371 OA
ATOM     22  C   LIG A   1      -9.672   1.920 132.252  0.00  0.00    +0.195 C 
ENDBRANCH   1  21
BRANCH   5  23
ATOM     23  O   LIG A   1      -5.654   2.671 131.900  0.00  0.00    -0.388 OA
ATOM     24  H   LIG A   1      -4.996   3.301 131.514  0.00  0.00    +0.210 HD
ENDBRANCH   5  23
BRANCH   8  25
ATOM     25  O   LIG A   1      -6.463   4.699 133.295  0.00  0.00    -0.386 OA
ATOM     26  H   LIG A   1      -6.339   5.575 133.742  0.00  0.00    +0.210 HD
ENDBRANCH   8  25
BRANCH   7  27
ATOM     27  O   LIG A   1      -5.804   6.661 131.816  0.00  0.00    -0.377 OA
ATOM     28  C   LIG A   1      -4.674   7.050 131.053  0.00  0.00    +0.194 C 
ENDBRANCH   7  27
BRANCH   4  29
ATOM     29  C   LIG A   1      -5.558   2.673 128.937  0.00  0.00    +0.036 C 
BRANCH  29  30
ATOM     30  C   LIG A   1      -4.584   3.536 128.139  0.00  0.00    -0.034 C 
ATOM     31  C   LIG A   1      -3.409   3.091 127.593  0.00  0.00    +0.004 C 
ENDBRANCH  29  30
ENDBRANCH   4  29
TORSDOF 8
ENDMDL
MODEL 8
REMARK VINA RESULT:      -6.4      3.227      7.157
REMARK  Name = NuBBE_2102
REMARK  12 active torsions:
REMARK  status: ('A' for Active; 'I' for Inactive)
REMARK    1  A    between atoms: O_1  and  C_2
REMARK    2  A    between atoms: O_1  and  C_3
REMARK    3  A    between atoms: C_4  and  C_19
REMARK    4  A    between atoms: C_5  and  C_18
REMARK    5  A    between atoms: C_6  and  C_9
REMARK    6  A    between atoms: C_7  and  O_8
REMARK    7  A    between atoms: C_9  and  C_10
REMARK    8  A    between atoms: C_13  and  O_16
REMARK    9  A    between atoms: C_14  and  O_15
REMARK   10  A    between atoms: O_16  and  C_17
REMARK   11  A    between atoms: C_23  and  O_25
REMARK   12  A    between atoms: O_25  and  C_26
REMARK                            x       y       z     vdW  Elec       q    Type
REMARK                         _______ _______ _______ _____ _____    ______ ____
ROOT
ATOM      1  C   LIG A   1      -5.612   0.814 129.248  0.00  0.00    +0.130 C 
ATOM      2  C   LIG A   1      -6.833   1.130 130.238  0.00  0.00    +0.060 C 
ATOM      3  C   LIG A   1      -7.691  -0.179 130.237  0.00  0.00    +0.005 C 
ATOM      4  C   LIG A   1      -7.109  -1.045 129.084  0.00  0.00    +0.009 C 
ATOM      5  C   LIG A   1      -5.613  -0.751 129.235  0.00  0.00    +0.156 C 
ATOM      6  C   LIG A   1      -7.610  -0.530 127.679  0.00  0.00    +0.044 C 
ATOM      7  C   LIG A   1      -7.156   0.872 127.208  0.00  0.00    +0.150 C 
ATOM      8  C   LIG A   1      -5.814   1.325 127.806  0.00  0.00    +0.178 C 
ATOM      9  C   LIG A   1      -7.604  -0.809 131.644  0.00  0.00    +0.009 C 
ENDROOT
BRANCH   2  10
ATOM     10  C   LIG A   1      -7.662   2.418 130.148  0.00  0.00    -0.034 A 
ATOM     11  C   LIG A   1      -9.074   2.402 130.207  0.00  0.00    +0.053 A 
ATOM     12  C   LIG A   1      -9.779   3.591 130.178  0.00  0.00    +0.170 A 
ATOM     13  C   LIG A   1      -9.147   4.804 130.139  0.00  0.00    +0.207 A 
ATOM     14  C   LIG A   1      -7.766   4.884 130.150  0.00  0.00    +0.166 A 
ATOM     15  C   LIG A   1      -7.030   3.682 130.157  0.00  0.00    +0.053 A 
ATOM     16  O   LIG A   1     -10.036   5.840 130.145  0.00  0.00    -0.449 OA
ATOM     17  C   LIG A   1     -11.293   5.134 130.184  0.00  0.00    +0.467 C 
ATOM     18  O   LIG A   1     -11.136   3.701 130.215  0.00  0.00    -0.453 OA
BRANCH  14  19
ATOM     19  O   LIG A   1      -7.216   6.136 130.135  0.00  0.00    -0.491 OA
ATOM     20  C   LIG A   1      -6.834   6.647 131.405  0.00  0.00    +0.277 C 
ENDBRANCH  14  19
ENDBRANCH   2  10
BRANCH   1  21
ATOM     21  O   LIG A   1      -4.425   1.357 129.869  0.00  0.00    -0.371 OA
ATOM     22  C   LIG A   1      -4.191   1.042 131.239  0.00  0.00    +0.195 C 
ENDBRANCH   1  21
BRANCH   5  23
ATOM     23  O   LIG A   1      -4.874  -1.407 128.213  0.00  0.00    -0.388 OA
ATOM     24  H   LIG A   1      -4.392  -0.718 127.693  0.00  0.00    +0.210 HD
ENDBRANCH   5  23
BRANCH   8  25
ATOM     25  O   LIG A   1      -4.737   0.853 126.953  0.00  0.00    -0.386 OA
ATOM     26  H   LIG A   1      -4.180   0.294 127.553  0.00  0.00    +0.210 HD
ENDBRANCH   8  25
BRANCH   7  27
ATOM     27  O   LIG A   1      -6.991   0.945 125.775  0.00  0.00    -0.377 OA
ATOM     28  C   LIG A   1      -7.593  -0.115 125.051  0.00  0.00    +0.194 C 
ENDBRANCH   7  27
BRANCH   4  29
ATOM     29  C   LIG A   1      -7.417  -2.560 129.209  0.00  0.00    +0.036 C 
BRANCH  29  30
ATOM     30  C   LIG A   1      -8.062  -3.194 127.980  0.00  0.00    -0.034 C 
ATOM     31  C   LIG A   1      -9.141  -4.039 128.010  0.00  0.00    +0.004 C 
ENDBRANCH  29  30
ENDBRANCH   4  29
TORSDOF 8
ENDMDL
MODEL 9
REMARK VINA RESULT:      -6.3      5.124      8.404
REMARK  Name = NuBBE_2102
REMARK  12 active torsions:
REMARK  status: ('A' for Active; 'I' for Inactive)
REMARK    1  A    between atoms: O_1  and  C_2
REMARK    2  A    between atoms: O_1  and  C_3
REMARK    3  A    between atoms: C_4  and  C_19
REMARK    4  A    between atoms: C_5  and  C_18
REMARK    5  A    between atoms: C_6  and  C_9
REMARK    6  A    between atoms: C_7  and  O_8
REMARK    7  A    between atoms: C_9  and  C_10
REMARK    8  A    between atoms: C_13  and  O_16
REMARK    9  A    between atoms: C_14  and  O_15
REMARK   10  A    between atoms: O_16  and  C_17
REMARK   11  A    between atoms: C_23  and  O_25
REMARK   12  A    between atoms: O_25  and  C_26
REMARK                            x       y       z     vdW  Elec       q    Type
REMARK                         _______ _______ _______ _____ _____    ______ ____
ROOT
ATOM      1  C   LIG A   1      -8.369   3.338 132.056  0.00  0.00    +0.130 C 
ATOM      2  C   LIG A   1      -6.770   3.435 132.019  0.00  0.00    +0.060 C 
ATOM      3  C   LIG A   1      -6.384   4.120 133.374  0.00  0.00    +0.005 C 
ATOM      4  C   LIG A   1      -7.730   4.618 133.973  0.00  0.00    +0.009 C 
ATOM      5  C   LIG A   1      -8.658   3.462 133.589  0.00  0.00    +0.156 C 
ATOM      6  C   LIG A   1      -8.211   5.942 133.262  0.00  0.00    +0.044 C 
ATOM      7  C   LIG A   1      -8.602   5.870 131.767  0.00  0.00    +0.150 C 
ATOM      8  C   LIG A   1      -9.093   4.484 131.318  0.00  0.00    +0.178 C 
ATOM      9  C   LIG A   1      -5.622   3.086 134.231  0.00  0.00    +0.009 C 
ENDROOT
BRANCH   2  10
ATOM     10  C   LIG A   1      -5.999   3.975 130.807  0.00  0.00    -0.034 A 
ATOM     11  C   LIG A   1      -6.233   3.491 129.500  0.00  0.00    +0.053 A 
ATOM     12  C   LIG A   1      -5.555   4.044 128.428  0.00  0.00    +0.170 A 
ATOM     13  C   LIG A   1      -4.686   5.088 128.586  0.00  0.00    +0.207 A 
ATOM     14  C   LIG A   1      -4.470   5.649 129.833  0.00  0.00    +0.166 A 
ATOM     15  C   LIG A   1      -5.135   5.084 130.940  0.00  0.00    +0.053 A 
ATOM     16  O   LIG A   1      -4.155   5.490 127.395  0.00  0.00    -0.449 OA
ATOM     17  C   LIG A   1      -4.784   4.572 126.479  0.00  0.00    +0.467 C 
ATOM     18  O   LIG A   1      -5.686   3.654 127.130  0.00  0.00    -0.453 OA
BRANCH  14  19
ATOM     19  O   LIG A   1      -3.605   6.706 129.897  0.00  0.00    -0.491 OA
ATOM     20  C   LIG A   1      -4.216   7.986 129.989  0.00  0.00    +0.277 C 
ENDBRANCH  14  19
ENDBRANCH   2  10
BRANCH   1  21
ATOM     21  O   LIG A   1      -8.717   2.036 131.536  0.00  0.00    -0.371 OA
ATOM     22  C   LIG A   1      -8.099   0.898 132.132  0.00  0.00    +0.195 C 
ENDBRANCH   1  21
BRANCH   5  23
ATOM     23  O   LIG A   1      -9.991   3.744 133.993  0.00  0.00    -0.388 OA
ATOM     24  H   LIG A   1     -10.388   4.361 133.331  0.00  0.00    +0.210 HD
ENDBRANCH   5  23
BRANCH   8  25
ATOM     25  O   LIG A   1     -10.525   4.398 131.544  0.00  0.00    -0.386 OA
ATOM     26  H   LIG A   1     -10.772   5.294 131.889  0.00  0.00    +0.210 HD
ENDBRANCH   8  25
BRANCH   7  27
ATOM     27  O   LIG A   1      -9.664   6.789 131.431  0.00  0.00    -0.377 OA
ATOM     28  C   LIG A   1      -9.590   7.332 130.122  0.00  0.00    +0.194 C 
ENDBRANCH   7  27
BRANCH   4  29
ATOM     29  C   LIG A   1      -7.695   4.849 135.506  0.00  0.00    +0.036 C 
BRANCH  29  30
ATOM     30  C   LIG A   1      -7.720   6.311 135.943  0.00  0.00    -0.034 C 
ATOM     31  C   LIG A   1      -7.981   6.744 137.216  0.00  0.00    +0.004 C 
ENDBRANCH  29  30
ENDBRANCH   4  29
TORSDOF 8
ENDMDL
