MODEL 1
REMARK VINA RESULT:      -8.3      0.000      0.000
REMARK  Name = NuBBE_1514
REMARK  9 active torsions:
REMARK  status: ('A' for Active; 'I' for Inactive)
REMARK    1  A    between atoms: O_1  and  C_2
REMARK    2  A    between atoms: O_1  and  C_5
REMARK    3  A    between atoms: C_2  and  C_4
REMARK    4  A    between atoms: C_16  and  C_19
REMARK    5  A    between atoms: C_20  and  C_25
REMARK    6  A    between atoms: C_25  and  C_26
REMARK    7  A    between atoms: C_32  and  O_34
REMARK    8  A    between atoms: O_34  and  C_35
REMARK    9  A    between atoms: C_35  and  C_37
REMARK                            x       y       z     vdW  Elec       q    Type
REMARK                         _______ _______ _______ _____ _____    ______ ____
ROOT
ATOM      1  C   LIG A   1      -7.973  -0.371 124.714  0.00  0.00    +0.253 C 
ATOM      2  C   LIG A   1      -6.955  -1.234 125.470  0.00  0.00    +0.092 C 
ATOM      3  C   LIG A   1      -7.561  -1.226 126.878  0.00  0.00    +0.006 C 
ATOM      4  C   LIG A   1      -9.011  -1.527 126.476  0.00  0.00    +0.172 C 
ATOM      5  O   LIG A   1      -9.255  -0.779 125.283  0.00  0.00    -0.336 OA
ATOM      6  C   LIG A   1      -6.978  -2.321 127.809  0.00  0.00    +0.001 C 
ATOM      7  C   LIG A   1      -5.501  -2.035 128.162  0.00  0.00    -0.003 C 
ATOM      8  C   LIG A   1      -4.911  -3.113 129.133  0.00  0.00    +0.006 C 
ATOM      9  C   LIG A   1      -5.809  -3.555 130.326  0.00  0.00    -0.019 C 
ATOM     10  C   LIG A   1      -7.284  -3.700 129.910  0.00  0.00    +0.008 C 
ATOM     11  C   LIG A   1      -7.831  -2.561 129.067  0.00  0.00    +0.005 C 
ATOM     12  C   LIG A   1      -5.362  -4.959 130.824  0.00  0.00    +0.012 C 
ATOM     13  C   LIG A   1      -5.529  -2.455 131.404  0.00  0.00    +0.061 C 
ATOM     14  C   LIG A   1      -4.059  -2.148 131.120  0.00  0.00    +0.137 C 
ATOM     15  O   LIG A   1      -3.316  -1.508 131.853  0.00  0.00    -0.297 OA
ATOM     16  C   LIG A   1      -3.593  -2.705 129.798  0.00  0.00    +0.079 C 
ATOM     17  C   LIG A   1      -5.227  -0.543 128.465  0.00  0.00    +0.004 C 
ATOM     18  C   LIG A   1      -6.458   0.339 128.633  0.00  0.00    +0.004 C 
ATOM     19  C   LIG A   1      -7.489   0.209 127.495  0.00  0.00    +0.002 C 
ATOM     20  C   LIG A   1      -7.215   1.323 126.460  0.00  0.00    +0.055 C 
ATOM     21  C   LIG A   1      -7.835   1.139 125.064  0.00  0.00    +0.248 C 
ENDROOT
BRANCH  13  22
ATOM     22  C   LIG A   1      -5.780  -2.857 132.866  0.00  0.00    +0.008 C 
ATOM     23  C   LIG A   1      -7.197  -2.562 133.357  0.00  0.00    +0.004 C 
ENDBRANCH  13  22
BRANCH   1  24
ATOM     24  O   LIG A   1      -8.062  -0.638 123.309  0.00  0.00    -0.429 OA
BRANCH  24  25
ATOM     25  C   LIG A   1      -9.181  -1.217 122.814  0.00  0.00    +0.306 C 
ATOM     26  O   LIG A   1     -10.158  -0.635 122.357  0.00  0.00    -0.251 OA
ATOM     27  C   LIG A   1      -9.036  -2.709 122.816  0.00  0.00    +0.136 C 
ENDBRANCH  24  25
ENDBRANCH   1  24
BRANCH  21  28
ATOM     28  O   LIG A   1      -6.973   1.824 124.127  0.00  0.00    -0.455 OA
BRANCH  28  29
ATOM     29  C   LIG A   1      -7.518   2.851 123.422  0.00  0.00    +0.304 C 
ATOM     30  O   LIG A   1      -8.516   3.476 123.734  0.00  0.00    -0.251 OA
ATOM     31  C   LIG A   1      -6.689   3.122 122.201  0.00  0.00    +0.136 C 
ENDBRANCH  28  29
ENDBRANCH  21  28
TORSDOF 5
ENDMDL
MODEL 2
REMARK VINA RESULT:      -8.1      2.465      3.655
REMARK  Name = NuBBE_1514
REMARK  9 active torsions:
REMARK  status: ('A' for Active; 'I' for Inactive)
REMARK    1  A    between atoms: O_1  and  C_2
REMARK    2  A    between atoms: O_1  and  C_5
REMARK    3  A    between atoms: C_2  and  C_4
REMARK    4  A    between atoms: C_16  and  C_19
REMARK    5  A    between atoms: C_20  and  C_25
REMARK    6  A    between atoms: C_25  and  C_26
REMARK    7  A    between atoms: C_32  and  O_34
REMARK    8  A    between atoms: O_34  and  C_35
REMARK    9  A    between atoms: C_35  and  C_37
REMARK                            x       y       z     vdW  Elec       q    Type
REMARK                         _______ _______ _______ _____ _____    ______ ____
ROOT
ATOM      1  C   LIG A   1      -7.873  -2.443 126.595  0.00  0.00    +0.253 C 
ATOM      2  C   LIG A   1      -7.674  -3.242 127.889  0.00  0.00    +0.092 C 
ATOM      3  C   LIG A   1      -6.974  -2.198 128.766  0.00  0.00    +0.006 C 
ATOM      4  C   LIG A   1      -7.908  -1.020 128.463  0.00  0.00    +0.172 C 
ATOM      5  O   LIG A   1      -8.215  -1.104 127.070  0.00  0.00    -0.336 OA
ATOM      6  C   LIG A   1      -6.968  -2.561 130.274  0.00  0.00    +0.001 C 
ATOM      7  C   LIG A   1      -6.067  -3.783 130.558  0.00  0.00    -0.003 C 
ATOM      8  C   LIG A   1      -6.021  -4.136 132.083  0.00  0.00    +0.006 C 
ATOM      9  C   LIG A   1      -5.869  -2.949 133.079  0.00  0.00    -0.019 C 
ATOM     10  C   LIG A   1      -6.709  -1.732 132.652  0.00  0.00    +0.008 C 
ATOM     11  C   LIG A   1      -6.617  -1.368 131.180  0.00  0.00    +0.005 C 
ATOM     12  C   LIG A   1      -6.398  -3.369 134.479  0.00  0.00    +0.012 C 
ATOM     13  C   LIG A   1      -4.322  -2.708 133.105  0.00  0.00    +0.061 C 
ATOM     14  C   LIG A   1      -3.811  -4.138 132.930  0.00  0.00    +0.137 C 
ATOM     15  O   LIG A   1      -2.656  -4.503 133.112  0.00  0.00    -0.297 OA
ATOM     16  C   LIG A   1      -4.889  -5.089 132.474  0.00  0.00    +0.079 C 
ATOM     17  C   LIG A   1      -4.736  -3.753 129.770  0.00  0.00    +0.004 C 
ATOM     18  C   LIG A   1      -4.406  -2.438 129.072  0.00  0.00    +0.004 C 
ATOM     19  C   LIG A   1      -5.550  -1.879 128.204  0.00  0.00    +0.002 C 
ATOM     20  C   LIG A   1      -5.332  -2.350 126.749  0.00  0.00    +0.055 C 
ATOM     21  C   LIG A   1      -6.544  -2.267 125.805  0.00  0.00    +0.248 C 
ENDROOT
BRANCH  13  22
ATOM     22  C   LIG A   1      -3.762  -2.028 134.364  0.00  0.00    +0.008 C 
ATOM     23  C   LIG A   1      -2.901  -0.798 134.076  0.00  0.00    +0.004 C 
ENDBRANCH  13  22
BRANCH   1  24
ATOM     24  O   LIG A   1      -8.979  -2.870 125.788  0.00  0.00    -0.429 OA
BRANCH  24  25
ATOM     25  C   LIG A   1      -9.262  -2.203 124.645  0.00  0.00    +0.306 C 
ATOM     26  O   LIG A   1      -9.311  -0.986 124.509  0.00  0.00    -0.251 OA
ATOM     27  C   LIG A   1      -9.430  -3.168 123.511  0.00  0.00    +0.136 C 
ENDBRANCH  24  25
ENDBRANCH   1  24
BRANCH  21  28
ATOM     28  O   LIG A   1      -6.376  -3.305 124.812  0.00  0.00    -0.455 OA
BRANCH  28  29
ATOM     29  C   LIG A   1      -5.689  -2.978 123.685  0.00  0.00    +0.304 C 
ATOM     30  O   LIG A   1      -5.963  -2.065 122.926  0.00  0.00    -0.251 OA
ATOM     31  C   LIG A   1      -4.517  -3.900 123.521  0.00  0.00    +0.136 C 
ENDBRANCH  28  29
ENDBRANCH  21  28
TORSDOF 5
ENDMDL
MODEL 3
REMARK VINA RESULT:      -7.8      3.584      6.603
REMARK  Name = NuBBE_1514
REMARK  9 active torsions:
REMARK  status: ('A' for Active; 'I' for Inactive)
REMARK    1  A    between atoms: O_1  and  C_2
REMARK    2  A    between atoms: O_1  and  C_5
REMARK    3  A    between atoms: C_2  and  C_4
REMARK    4  A    between atoms: C_16  and  C_19
REMARK    5  A    between atoms: C_20  and  C_25
REMARK    6  A    between atoms: C_25  and  C_26
REMARK    7  A    between atoms: C_32  and  O_34
REMARK    8  A    between atoms: O_34  and  C_35
REMARK    9  A    between atoms: C_35  and  C_37
REMARK                            x       y       z     vdW  Elec       q    Type
REMARK                         _______ _______ _______ _____ _____    ______ ____
ROOT
ATOM      1  C   LIG A   1      -7.374   2.797 129.783  0.00  0.00    +0.253 C 
ATOM      2  C   LIG A   1      -8.016   2.165 128.541  0.00  0.00    +0.092 C 
ATOM      3  C   LIG A   1      -7.200   0.872 128.424  0.00  0.00    +0.006 C 
ATOM      4  C   LIG A   1      -7.272   0.453 129.898  0.00  0.00    +0.172 C 
ATOM      5  O   LIG A   1      -7.128   1.654 130.659  0.00  0.00    -0.336 OA
ATOM      6  C   LIG A   1      -7.847  -0.183 127.489  0.00  0.00    +0.001 C 
ATOM      7  C   LIG A   1      -7.819   0.274 126.014  0.00  0.00    -0.003 C 
ATOM      8  C   LIG A   1      -8.434  -0.800 125.054  0.00  0.00    +0.006 C 
ATOM      9  C   LIG A   1      -8.026  -2.282 125.301  0.00  0.00    -0.019 C 
ATOM     10  C   LIG A   1      -7.964  -2.618 126.802  0.00  0.00    +0.008 C 
ATOM     11  C   LIG A   1      -7.249  -1.591 127.663  0.00  0.00    +0.005 C 
ATOM     12  C   LIG A   1      -9.101  -3.228 124.692  0.00  0.00    +0.012 C 
ATOM     13  C   LIG A   1      -6.664  -2.405 124.538  0.00  0.00    +0.061 C 
ATOM     14  C   LIG A   1      -6.912  -1.457 123.365  0.00  0.00    +0.137 C 
ATOM     15  O   LIG A   1      -6.219  -1.383 122.358  0.00  0.00    -0.297 OA
ATOM     16  C   LIG A   1      -8.117  -0.574 123.574  0.00  0.00    +0.079 C 
ATOM     17  C   LIG A   1      -6.483   0.942 125.611  0.00  0.00    +0.004 C 
ATOM     18  C   LIG A   1      -5.342   0.804 126.611  0.00  0.00    +0.004 C 
ATOM     19  C   LIG A   1      -5.716   1.194 128.055  0.00  0.00    +0.002 C 
ATOM     20  C   LIG A   1      -5.322   2.671 128.278  0.00  0.00    +0.055 C 
ATOM     21  C   LIG A   1      -5.966   3.386 129.479  0.00  0.00    +0.248 C 
ENDROOT
BRANCH  13  22
ATOM     22  C   LIG A   1      -6.264  -3.818 124.086  0.00  0.00    +0.008 C 
ATOM     23  C   LIG A   1      -4.756  -4.020 123.941  0.00  0.00    +0.004 C 
ENDBRANCH  13  22
BRANCH   1  24
ATOM     24  O   LIG A   1      -8.229   3.681 130.518  0.00  0.00    -0.429 OA
BRANCH  24  25
ATOM     25  C   LIG A   1      -9.343   4.171 129.926  0.00  0.00    +0.306 C 
ATOM     26  O   LIG A   1      -9.379   4.983 129.008  0.00  0.00    -0.251 OA
ATOM     27  C   LIG A   1     -10.563   3.513 130.494  0.00  0.00    +0.136 C 
ENDBRANCH  24  25
ENDBRANCH   1  24
BRANCH  21  28
ATOM     28  O   LIG A   1      -6.040   4.791 129.142  0.00  0.00    -0.455 OA
BRANCH  28  29
ATOM     29  C   LIG A   1      -5.222   5.634 129.825  0.00  0.00    +0.304 C 
ATOM     30  O   LIG A   1      -4.864   6.737 129.450  0.00  0.00    -0.251 OA
ATOM     31  C   LIG A   1      -4.836   5.013 131.135  0.00  0.00    +0.136 C 
ENDBRANCH  28  29
ENDBRANCH  21  28
TORSDOF 5
ENDMDL
MODEL 4
REMARK VINA RESULT:      -7.8      4.027      6.918
REMARK  Name = NuBBE_1514
REMARK  9 active torsions:
REMARK  status: ('A' for Active; 'I' for Inactive)
REMARK    1  A    between atoms: O_1  and  C_2
REMARK    2  A    between atoms: O_1  and  C_5
REMARK    3  A    between atoms: C_2  and  C_4
REMARK    4  A    between atoms: C_16  and  C_19
REMARK    5  A    between atoms: C_20  and  C_25
REMARK    6  A    between atoms: C_25  and  C_26
REMARK    7  A    between atoms: C_32  and  O_34
REMARK    8  A    between atoms: O_34  and  C_35
REMARK    9  A    between atoms: C_35  and  C_37
REMARK                            x       y       z     vdW  Elec       q    Type
REMARK                         _______ _______ _______ _____ _____    ______ ____
ROOT
ATOM      1  C   LIG A   1      -5.696   4.367 128.658  0.00  0.00    +0.253 C 
ATOM      2  C   LIG A   1      -5.454   2.855 128.558  0.00  0.00    +0.092 C 
ATOM      3  C   LIG A   1      -6.294   2.511 127.322  0.00  0.00    +0.006 C 
ATOM      4  C   LIG A   1      -5.807   3.654 126.422  0.00  0.00    +0.172 C 
ATOM      5  O   LIG A   1      -5.700   4.804 127.263  0.00  0.00    -0.336 OA
ATOM      6  C   LIG A   1      -5.967   1.120 126.721  0.00  0.00    +0.001 C 
ATOM      7  C   LIG A   1      -6.412  -0.022 127.661  0.00  0.00    -0.003 C 
ATOM      8  C   LIG A   1      -6.124  -1.434 127.048  0.00  0.00    +0.006 C 
ATOM      9  C   LIG A   1      -6.471  -1.635 125.544  0.00  0.00    -0.019 C 
ATOM     10  C   LIG A   1      -6.103  -0.401 124.701  0.00  0.00    +0.008 C 
ATOM     11  C   LIG A   1      -6.517   0.934 125.295  0.00  0.00    +0.005 C 
ATOM     12  C   LIG A   1      -5.639  -2.815 124.968  0.00  0.00    +0.012 C 
ATOM     13  C   LIG A   1      -7.998  -1.981 125.579  0.00  0.00    +0.061 C 
ATOM     14  C   LIG A   1      -8.082  -2.754 126.895  0.00  0.00    +0.137 C 
ATOM     15  O   LIG A   1      -9.036  -3.432 127.256  0.00  0.00    -0.297 OA
ATOM     16  C   LIG A   1      -6.851  -2.584 127.750  0.00  0.00    +0.079 C 
ATOM     17  C   LIG A   1      -7.794   0.229 128.310  0.00  0.00    +0.004 C 
ATOM     18  C   LIG A   1      -8.599   1.388 127.732  0.00  0.00    +0.004 C 
ATOM     19  C   LIG A   1      -7.815   2.710 127.624  0.00  0.00    +0.002 C 
ATOM     20  C   LIG A   1      -8.098   3.550 128.889  0.00  0.00    +0.055 C 
ATOM     21  C   LIG A   1      -7.119   4.698 129.192  0.00  0.00    +0.248 C 
ENDROOT
BRANCH  13  22
ATOM     22  C   LIG A   1      -8.540  -2.781 124.385  0.00  0.00    +0.008 C 
ATOM     23  C   LIG A   1      -9.016  -1.913 123.220  0.00  0.00    +0.004 C 
ENDBRANCH  13  22
BRANCH   1  24
ATOM     24  O   LIG A   1      -4.646   5.103 129.299  0.00  0.00    -0.429 OA
BRANCH  24  25
ATOM     25  C   LIG A   1      -3.893   5.957 128.568  0.00  0.00    +0.306 C 
ATOM     26  O   LIG A   1      -4.139   7.138 128.351  0.00  0.00    -0.251 OA
ATOM     27  C   LIG A   1      -2.637   5.278 128.111  0.00  0.00    +0.136 C 
ENDBRANCH  24  25
ENDBRANCH   1  24
BRANCH  21  28
ATOM     28  O   LIG A   1      -7.118   4.883 130.626  0.00  0.00    -0.455 OA
BRANCH  28  29
ATOM     29  C   LIG A   1      -7.389   6.132 131.089  0.00  0.00    +0.304 C 
ATOM     30  O   LIG A   1      -6.868   7.162 130.700  0.00  0.00    -0.251 OA
ATOM     31  C   LIG A   1      -8.450   6.060 132.146  0.00  0.00    +0.136 C 
ENDBRANCH  28  29
ENDBRANCH  21  28
TORSDOF 5
ENDMDL
MODEL 5
REMARK VINA RESULT:      -7.6      4.308      5.988
REMARK  Name = NuBBE_1514
REMARK  9 active torsions:
REMARK  status: ('A' for Active; 'I' for Inactive)
REMARK    1  A    between atoms: O_1  and  C_2
REMARK    2  A    between atoms: O_1  and  C_5
REMARK    3  A    between atoms: C_2  and  C_4
REMARK    4  A    between atoms: C_16  and  C_19
REMARK    5  A    between atoms: C_20  and  C_25
REMARK    6  A    between atoms: C_25  and  C_26
REMARK    7  A    between atoms: C_32  and  O_34
REMARK    8  A    between atoms: O_34  and  C_35
REMARK    9  A    between atoms: C_35  and  C_37
REMARK                            x       y       z     vdW  Elec       q    Type
REMARK                         _______ _______ _______ _____ _____    ______ ____
ROOT
ATOM      1  C   LIG A   1      -7.099   4.297 130.113  0.00  0.00    +0.253 C 
ATOM      2  C   LIG A   1      -7.100   3.027 129.252  0.00  0.00    +0.092 C 
ATOM      3  C   LIG A   1      -7.010   1.946 130.336  0.00  0.00    +0.006 C 
ATOM      4  C   LIG A   1      -8.087   2.509 131.273  0.00  0.00    +0.172 C 
ATOM      5  O   LIG A   1      -7.916   3.928 131.267  0.00  0.00    -0.336 OA
ATOM      6  C   LIG A   1      -7.371   0.527 129.824  0.00  0.00    +0.001 C 
ATOM      7  C   LIG A   1      -6.308  -0.006 128.839  0.00  0.00    -0.003 C 
ATOM      8  C   LIG A   1      -6.639  -1.455 128.345  0.00  0.00    +0.006 C 
ATOM      9  C   LIG A   1      -7.124  -2.473 129.419  0.00  0.00    -0.019 C 
ATOM     10  C   LIG A   1      -8.087  -1.825 130.429  0.00  0.00    +0.008 C 
ATOM     11  C   LIG A   1      -7.649  -0.472 130.962  0.00  0.00    +0.005 C 
ATOM     12  C   LIG A   1      -7.925  -3.616 128.732  0.00  0.00    +0.012 C 
ATOM     13  C   LIG A   1      -5.784  -3.006 130.029  0.00  0.00    +0.061 C 
ATOM     14  C   LIG A   1      -4.881  -2.973 128.796  0.00  0.00    +0.137 C 
ATOM     15  O   LIG A   1      -3.784  -3.512 128.710  0.00  0.00    -0.297 OA
ATOM     16  C   LIG A   1      -5.470  -2.170 127.664  0.00  0.00    +0.079 C 
ATOM     17  C   LIG A   1      -4.858   0.306 129.281  0.00  0.00    +0.004 C 
ATOM     18  C   LIG A   1      -4.695   0.828 130.704  0.00  0.00    +0.004 C 
ATOM     19  C   LIG A   1      -5.623   2.008 131.054  0.00  0.00    +0.002 C 
ATOM     20  C   LIG A   1      -4.851   3.324 130.812  0.00  0.00    +0.055 C 
ATOM     21  C   LIG A   1      -5.690   4.608 130.695  0.00  0.00    +0.248 C 
ENDROOT
BRANCH  13  22
ATOM     22  C   LIG A   1      -5.842  -4.394 130.686  0.00  0.00    +0.008 C 
ATOM     23  C   LIG A   1      -5.673  -4.370 132.205  0.00  0.00    +0.004 C 
ENDBRANCH  13  22
BRANCH   1  24
ATOM     24  O   LIG A   1      -7.747   5.428 129.517  0.00  0.00    -0.429 OA
BRANCH  24  25
ATOM     25  C   LIG A   1      -9.041   5.686 129.817  0.00  0.00    +0.306 C 
ATOM     26  O   LIG A   1     -10.011   5.018 129.478  0.00  0.00    -0.251 OA
ATOM     27  C   LIG A   1      -9.136   6.881 130.716  0.00  0.00    +0.136 C 
ENDBRANCH  24  25
ENDBRANCH   1  24
BRANCH  21  28
ATOM     28  O   LIG A   1      -4.953   5.516 129.844  0.00  0.00    -0.455 OA
BRANCH  28  29
ATOM     29  C   LIG A   1      -4.712   6.762 130.332  0.00  0.00    +0.304 C 
ATOM     30  O   LIG A   1      -5.513   7.679 130.368  0.00  0.00    -0.251 OA
ATOM     31  C   LIG A   1      -3.305   6.840 130.846  0.00  0.00    +0.136 C 
ENDBRANCH  28  29
ENDBRANCH  21  28
TORSDOF 5
ENDMDL
MODEL 6
REMARK VINA RESULT:      -7.5      4.590      5.587
REMARK  Name = NuBBE_1514
REMARK  9 active torsions:
REMARK  status: ('A' for Active; 'I' for Inactive)
REMARK    1  A    between atoms: O_1  and  C_2
REMARK    2  A    between atoms: O_1  and  C_5
REMARK    3  A    between atoms: C_2  and  C_4
REMARK    4  A    between atoms: C_16  and  C_19
REMARK    5  A    between atoms: C_20  and  C_25
REMARK    6  A    between atoms: C_25  and  C_26
REMARK    7  A    between atoms: C_32  and  O_34
REMARK    8  A    between atoms: O_34  and  C_35
REMARK    9  A    between atoms: C_35  and  C_37
REMARK                            x       y       z     vdW  Elec       q    Type
REMARK                         _______ _______ _______ _____ _____    ______ ____
ROOT
ATOM      1  C   LIG A   1      -7.780   1.648 124.122  0.00  0.00    +0.253 C 
ATOM      2  C   LIG A   1      -6.521   1.686 124.997  0.00  0.00    +0.092 C 
ATOM      3  C   LIG A   1      -6.931   2.727 126.046  0.00  0.00    +0.006 C 
ATOM      4  C   LIG A   1      -8.330   2.172 126.345  0.00  0.00    +0.172 C 
ATOM      5  O   LIG A   1      -8.871   1.759 125.089  0.00  0.00    -0.336 OA
ATOM      6  C   LIG A   1      -6.025   2.726 127.304  0.00  0.00    +0.001 C 
ATOM      7  C   LIG A   1      -4.603   3.235 126.978  0.00  0.00    -0.003 C 
ATOM      8  C   LIG A   1      -3.688   3.276 128.249  0.00  0.00    +0.006 C 
ATOM      9  C   LIG A   1      -4.318   3.847 129.553  0.00  0.00    -0.019 C 
ATOM     10  C   LIG A   1      -5.775   3.385 129.736  0.00  0.00    +0.008 C 
ATOM     11  C   LIG A   1      -6.644   3.481 128.494  0.00  0.00    +0.005 C 
ATOM     12  C   LIG A   1      -3.538   3.313 130.788  0.00  0.00    +0.012 C 
ATOM     13  C   LIG A   1      -4.130   5.393 129.388  0.00  0.00    +0.061 C 
ATOM     14  C   LIG A   1      -2.801   5.436 128.635  0.00  0.00    +0.137 C 
ATOM     15  O   LIG A   1      -2.114   6.437 128.470  0.00  0.00    -0.297 OA
ATOM     16  C   LIG A   1      -2.406   4.093 128.073  0.00  0.00    +0.079 C 
ATOM     17  C   LIG A   1      -4.598   4.456 126.028  0.00  0.00    +0.004 C 
ATOM     18  C   LIG A   1      -5.950   5.117 125.788  0.00  0.00    +0.004 C 
ATOM     19  C   LIG A   1      -7.071   4.139 125.388  0.00  0.00    +0.002 C 
ATOM     20  C   LIG A   1      -7.161   4.104 123.846  0.00  0.00    +0.055 C 
ATOM     21  C   LIG A   1      -7.905   2.911 123.222  0.00  0.00    +0.248 C 
ENDROOT
BRANCH  13  22
ATOM     22  C   LIG A   1      -4.105   6.216 130.685  0.00  0.00    +0.008 C 
ATOM     23  C   LIG A   1      -5.413   6.949 130.981  0.00  0.00    +0.004 C 
ENDBRANCH  13  22
BRANCH   1  24
ATOM     24  O   LIG A   1      -7.994   0.413 123.427  0.00  0.00    -0.429 OA
BRANCH  24  25
ATOM     25  C   LIG A   1      -9.194  -0.203 123.523  0.00  0.00    +0.306 C 
ATOM     26  O   LIG A   1      -9.531  -1.005 124.387  0.00  0.00    -0.251 OA
ATOM     27  C   LIG A   1     -10.120   0.297 122.456  0.00  0.00    +0.136 C 
ENDBRANCH  24  25
ENDBRANCH   1  24
BRANCH  21  28
ATOM     28  O   LIG A   1      -7.326   2.691 121.915  0.00  0.00    -0.455 OA
BRANCH  28  29
ATOM     29  C   LIG A   1      -7.668   3.566 120.932  0.00  0.00    +0.304 C 
ATOM     30  O   LIG A   1      -8.802   3.908 120.647  0.00  0.00    -0.251 OA
ATOM     31  C   LIG A   1      -6.429   4.073 120.254  0.00  0.00    +0.136 C 
ENDBRANCH  28  29
ENDBRANCH  21  28
TORSDOF 5
ENDMDL
MODEL 7
REMARK VINA RESULT:      -7.4      2.144      8.134
REMARK  Name = NuBBE_1514
REMARK  9 active torsions:
REMARK  status: ('A' for Active; 'I' for Inactive)
REMARK    1  A    between atoms: O_1  and  C_2
REMARK    2  A    between atoms: O_1  and  C_5
REMARK    3  A    between atoms: C_2  and  C_4
REMARK    4  A    between atoms: C_16  and  C_19
REMARK    5  A    between atoms: C_20  and  C_25
REMARK    6  A    between atoms: C_25  and  C_26
REMARK    7  A    between atoms: C_32  and  O_34
REMARK    8  A    between atoms: O_34  and  C_35
REMARK    9  A    between atoms: C_35  and  C_37
REMARK                            x       y       z     vdW  Elec       q    Type
REMARK                         _______ _______ _______ _____ _____    ______ ____
ROOT
ATOM      1  C   LIG A   1      -5.764  -3.403 130.779  0.00  0.00    +0.253 C 
ATOM      2  C   LIG A   1      -6.296  -3.629 129.358  0.00  0.00    +0.092 C 
ATOM      3  C   LIG A   1      -5.904  -2.305 128.691  0.00  0.00    +0.006 C 
ATOM      4  C   LIG A   1      -4.462  -2.236 129.211  0.00  0.00    +0.172 C 
ATOM      5  O   LIG A   1      -4.505  -2.694 130.563  0.00  0.00    -0.336 OA
ATOM      6  C   LIG A   1      -5.961  -2.353 127.142  0.00  0.00    +0.001 C 
ATOM      7  C   LIG A   1      -7.414  -2.478 126.633  0.00  0.00    -0.003 C 
ATOM      8  C   LIG A   1      -7.489  -2.487 125.068  0.00  0.00    +0.006 C 
ATOM      9  C   LIG A   1      -6.604  -1.453 124.313  0.00  0.00    -0.019 C 
ATOM     10  C   LIG A   1      -5.216  -1.305 124.961  0.00  0.00    +0.008 C 
ATOM     11  C   LIG A   1      -5.220  -1.180 126.475  0.00  0.00    +0.005 C 
ATOM     12  C   LIG A   1      -6.351  -1.943 122.859  0.00  0.00    +0.012 C 
ATOM     13  C   LIG A   1      -7.484  -0.158 124.330  0.00  0.00    +0.061 C 
ATOM     14  C   LIG A   1      -8.883  -0.766 124.234  0.00  0.00    +0.137 C 
ATOM     15  O   LIG A   1      -9.908  -0.144 123.985  0.00  0.00    -0.297 OA
ATOM     16  C   LIG A   1      -8.892  -2.250 124.505  0.00  0.00    +0.079 C 
ATOM     17  C   LIG A   1      -8.409  -1.585 127.411  0.00  0.00    +0.004 C 
ATOM     18  C   LIG A   1      -7.788  -0.552 128.343  0.00  0.00    +0.004 C 
ATOM     19  C   LIG A   1      -6.725  -1.122 129.302  0.00  0.00    +0.002 C 
ATOM     20  C   LIG A   1      -7.412  -1.464 130.643  0.00  0.00    +0.055 C 
ATOM     21  C   LIG A   1      -6.654  -2.414 131.586  0.00  0.00    +0.248 C 
ENDROOT
BRANCH  13  22
ATOM     22  C   LIG A   1      -7.205   0.868 123.221  0.00  0.00    +0.008 C 
ATOM     23  C   LIG A   1      -6.808   2.250 123.737  0.00  0.00    +0.004 C 
ENDBRANCH  13  22
BRANCH   1  24
ATOM     24  O   LIG A   1      -5.426  -4.599 131.492  0.00  0.00    -0.429 OA
BRANCH  24  25
ATOM     25  C   LIG A   1      -4.430  -4.566 132.407  0.00  0.00    +0.306 C 
ATOM     26  O   LIG A   1      -3.323  -4.063 132.257  0.00  0.00    -0.251 OA
ATOM     27  C   LIG A   1      -4.894  -5.168 133.699  0.00  0.00    +0.136 C 
ENDBRANCH  24  25
ENDBRANCH   1  24
BRANCH  21  28
ATOM     28  O   LIG A   1      -7.651  -3.114 132.367  0.00  0.00    -0.455 OA
BRANCH  28  29
ATOM     29  C   LIG A   1      -7.710  -2.826 133.695  0.00  0.00    +0.304 C 
ATOM     30  O   LIG A   1      -8.493  -3.310 134.492  0.00  0.00    -0.251 OA
ATOM     31  C   LIG A   1      -6.644  -1.831 134.044  0.00  0.00    +0.136 C 
ENDBRANCH  28  29
ENDBRANCH  21  28
TORSDOF 5
ENDMDL
MODEL 8
REMARK VINA RESULT:      -7.3      1.746      3.687
REMARK  Name = NuBBE_1514
REMARK  9 active torsions:
REMARK  status: ('A' for Active; 'I' for Inactive)
REMARK    1  A    between atoms: O_1  and  C_2
REMARK    2  A    between atoms: O_1  and  C_5
REMARK    3  A    between atoms: C_2  and  C_4
REMARK    4  A    between atoms: C_16  and  C_19
REMARK    5  A    between atoms: C_20  and  C_25
REMARK    6  A    between atoms: C_25  and  C_26
REMARK    7  A    between atoms: C_32  and  O_34
REMARK    8  A    between atoms: O_34  and  C_35
REMARK    9  A    between atoms: C_35  and  C_37
REMARK                            x       y       z     vdW  Elec       q    Type
REMARK                         _______ _______ _______ _____ _____    ______ ____
ROOT
ATOM      1  C   LIG A   1      -6.962  -0.961 125.413  0.00  0.00    +0.253 C 
ATOM      2  C   LIG A   1      -6.876  -0.546 126.887  0.00  0.00    +0.092 C 
ATOM      3  C   LIG A   1      -6.390  -1.853 127.525  0.00  0.00    +0.006 C 
ATOM      4  C   LIG A   1      -5.276  -2.168 126.518  0.00  0.00    +0.172 C 
ATOM      5  O   LIG A   1      -5.794  -1.821 125.232  0.00  0.00    -0.336 OA
ATOM      6  C   LIG A   1      -5.837  -1.670 128.962  0.00  0.00    +0.001 C 
ATOM      7  C   LIG A   1      -6.959  -1.299 129.958  0.00  0.00    -0.003 C 
ATOM      8  C   LIG A   1      -6.421  -1.151 131.421  0.00  0.00    +0.006 C 
ATOM      9  C   LIG A   1      -5.420  -2.234 131.918  0.00  0.00    -0.019 C 
ATOM     10  C   LIG A   1      -4.413  -2.630 130.824  0.00  0.00    +0.008 C 
ATOM     11  C   LIG A   1      -5.015  -2.877 129.451  0.00  0.00    +0.005 C 
ATOM     12  C   LIG A   1      -4.577  -1.666 133.095  0.00  0.00    +0.012 C 
ATOM     13  C   LIG A   1      -6.362  -3.389 132.400  0.00  0.00    +0.061 C 
ATOM     14  C   LIG A   1      -7.546  -2.583 132.932  0.00  0.00    +0.137 C 
ATOM     15  O   LIG A   1      -8.451  -3.031 133.625  0.00  0.00    -0.297 OA
ATOM     16  C   LIG A   1      -7.513  -1.140 132.494  0.00  0.00    +0.079 C 
ATOM     17  C   LIG A   1      -8.262  -2.103 129.731  0.00  0.00    +0.004 C 
ATOM     18  C   LIG A   1      -8.155  -3.287 128.778  0.00  0.00    +0.004 C 
ATOM     19  C   LIG A   1      -7.496  -2.954 127.426  0.00  0.00    +0.002 C 
ATOM     20  C   LIG A   1      -8.611  -2.630 126.407  0.00  0.00    +0.055 C 
ATOM     21  C   LIG A   1      -8.188  -1.877 125.133  0.00  0.00    +0.248 C 
ENDROOT
BRANCH  13  22
ATOM     22  C   LIG A   1      -5.777  -4.348 133.448  0.00  0.00    +0.008 C 
ATOM     23  C   LIG A   1      -5.022  -5.536 132.851  0.00  0.00    +0.004 C 
ENDBRANCH  13  22
BRANCH   1  24
ATOM     24  O   LIG A   1      -6.810   0.112 124.476  0.00  0.00    -0.429 OA
BRANCH  24  25
ATOM     25  C   LIG A   1      -6.743   1.385 124.930  0.00  0.00    +0.306 C 
ATOM     26  O   LIG A   1      -5.744   1.950 125.362  0.00  0.00    -0.251 OA
ATOM     27  C   LIG A   1      -8.066   2.067 124.757  0.00  0.00    +0.136 C 
ENDBRANCH  24  25
ENDBRANCH   1  24
BRANCH  21  28
ATOM     28  O   LIG A   1      -9.335  -1.110 124.698  0.00  0.00    -0.455 OA
BRANCH  28  29
ATOM     29  C   LIG A   1      -9.601  -1.099 123.365  0.00  0.00    +0.304 C 
ATOM     30  O   LIG A   1     -10.259  -0.258 122.778  0.00  0.00    -0.251 OA
ATOM     31  C   LIG A   1      -8.941  -2.275 122.707  0.00  0.00    +0.136 C 
ENDBRANCH  28  29
ENDBRANCH  21  28
TORSDOF 5
ENDMDL
MODEL 9
REMARK VINA RESULT:      -7.3      3.905      6.768
REMARK  Name = NuBBE_1514
REMARK  9 active torsions:
REMARK  status: ('A' for Active; 'I' for Inactive)
REMARK    1  A    between atoms: O_1  and  C_2
REMARK    2  A    between atoms: O_1  and  C_5
REMARK    3  A    between atoms: C_2  and  C_4
REMARK    4  A    between atoms: C_16  and  C_19
REMARK    5  A    between atoms: C_20  and  C_25
REMARK    6  A    between atoms: C_25  and  C_26
REMARK    7  A    between atoms: C_32  and  O_34
REMARK    8  A    between atoms: O_34  and  C_35
REMARK    9  A    between atoms: C_35  and  C_37
REMARK                            x       y       z     vdW  Elec       q    Type
REMARK                         _______ _______ _______ _____ _____    ______ ____
ROOT
ATOM      1  C   LIG A   1      -6.638  -1.539 127.856  0.00  0.00    +0.253 C 
ATOM      2  C   LIG A   1      -7.683  -0.832 128.729  0.00  0.00    +0.092 C 
ATOM      3  C   LIG A   1      -7.102   0.587 128.779  0.00  0.00    +0.006 C 
ATOM      4  C   LIG A   1      -6.798   0.734 127.283  0.00  0.00    +0.172 C 
ATOM      5  O   LIG A   1      -6.294  -0.532 126.853  0.00  0.00    -0.336 OA
ATOM      6  C   LIG A   1      -8.116   1.651 129.273  0.00  0.00    +0.001 C 
ATOM      7  C   LIG A   1      -8.457   1.459 130.768  0.00  0.00    -0.003 C 
ATOM      8  C   LIG A   1      -9.449   2.552 131.290  0.00  0.00    +0.006 C 
ATOM      9  C   LIG A   1      -9.175   4.021 130.852  0.00  0.00    -0.019 C 
ATOM     10  C   LIG A   1      -8.726   4.107 129.382  0.00  0.00    +0.008 C 
ATOM     11  C   LIG A   1      -7.672   3.094 128.969  0.00  0.00    +0.005 C 
ATOM     12  C   LIG A   1     -10.487   4.849 130.951  0.00  0.00    +0.012 C 
ATOM     13  C   LIG A   1      -8.115   4.507 131.897  0.00  0.00    +0.061 C 
ATOM     14  C   LIG A   1      -8.571   3.740 133.138  0.00  0.00    +0.137 C 
ATOM     15  O   LIG A   1      -8.193   3.959 134.283  0.00  0.00    -0.297 OA
ATOM     16  C   LIG A   1      -9.546   2.636 132.815  0.00  0.00    +0.079 C 
ATOM     17  C   LIG A   1      -7.221   1.114 131.633  0.00  0.00    +0.004 C 
ATOM     18  C   LIG A   1      -5.866   1.283 130.954  0.00  0.00    +0.004 C 
ATOM     19  C   LIG A   1      -5.758   0.598 129.578  0.00  0.00    +0.002 C 
ATOM     20  C   LIG A   1      -5.137  -0.802 129.778  0.00  0.00    +0.055 C 
ATOM     21  C   LIG A   1      -5.316  -1.810 128.629  0.00  0.00    +0.248 C 
ENDROOT
BRANCH  13  22
ATOM     22  C   LIG A   1      -8.040   6.024 132.131  0.00  0.00    +0.008 C 
ATOM     23  C   LIG A   1      -6.892   6.711 131.391  0.00  0.00    +0.004 C 
ENDBRANCH  13  22
BRANCH   1  24
ATOM     24  O   LIG A   1      -7.130  -2.670 127.126  0.00  0.00    -0.429 OA
BRANCH  24  25
ATOM     25  C   LIG A   1      -8.465  -2.831 126.974  0.00  0.00    +0.306 C 
ATOM     26  O   LIG A   1      -9.190  -2.199 126.214  0.00  0.00    -0.251 OA
ATOM     27  C   LIG A   1      -8.947  -3.974 127.815  0.00  0.00    +0.136 C 
ENDBRANCH  24  25
ENDBRANCH   1  24
BRANCH  21  28
ATOM     28  O   LIG A   1      -5.309  -3.129 129.222  0.00  0.00    -0.455 OA
BRANCH  28  29
ATOM     29  C   LIG A   1      -4.119  -3.591 129.690  0.00  0.00    +0.304 C 
ATOM     30  O   LIG A   1      -3.083  -3.661 129.052  0.00  0.00    -0.251 OA
ATOM     31  C   LIG A   1      -4.261  -3.984 131.131  0.00  0.00    +0.136 C 
ENDBRANCH  28  29
ENDBRANCH  21  28
TORSDOF 5
ENDMDL
