MODEL 1
REMARK VINA RESULT:      -6.3      0.000      0.000
REMARK  Name = NuBBE_402
REMARK  7 active torsions:
REMARK  status: ('A' for Active; 'I' for Inactive)
REMARK    1  A    between atoms: C_1  and  C_2
REMARK    2  A    between atoms: C_2  and  S_3
REMARK    3  A    between atoms: S_3  and  S_4
REMARK    4  A    between atoms: S_4  and  S_5
REMARK    5  A    between atoms: S_5  and  S_6
REMARK    6  A    between atoms: S_6  and  C_7
REMARK    7  A    between atoms: C_7  and  C_8
REMARK                            x       y       z     vdW  Elec       q    Type
REMARK                         _______ _______ _______ _____ _____    ______ ____
ROOT
ATOM      1  S   LIG A   1      -7.126   1.304 125.869  0.00  0.00    -0.013 S 
ENDROOT
BRANCH   1   2
ATOM      2  S   LIG A   1      -5.394   0.194 125.923  0.00  0.00    -0.076 S 
BRANCH   2   3
ATOM      3  C   LIG A   1      -5.872  -1.451 126.542  0.00  0.00    +0.116 C 
BRANCH   3   4
ATOM      4  C   LIG A   1      -7.033  -2.093 125.820  0.00  0.00    -0.037 A 
ATOM      5  C   LIG A   1      -6.896  -2.599 124.523  0.00  0.00    +0.004 A 
ATOM      6  C   LIG A   1      -7.983  -3.215 123.883  0.00  0.00    +0.000 A 
ATOM      7  C   LIG A   1      -9.198  -3.338 124.547  0.00  0.00    +0.000 A 
ATOM      8  C   LIG A   1      -9.349  -2.843 125.837  0.00  0.00    +0.000 A 
ATOM      9  C   LIG A   1      -8.269  -2.209 126.467  0.00  0.00    +0.004 A 
ENDBRANCH   3   4
ENDBRANCH   2   3
ENDBRANCH   1   2
BRANCH   1  10
ATOM     10  S   LIG A   1      -7.935   1.048 123.995  0.00  0.00    -0.013 S 
BRANCH  10  11
ATOM     11  S   LIG A   1      -8.069   2.908 123.156  0.00  0.00    -0.076 S 
BRANCH  11  12
ATOM     12  C   LIG A   1      -6.369   3.173 122.561  0.00  0.00    +0.116 C 
BRANCH  12  13
ATOM     13  C   LIG A   1      -6.314   3.841 121.206  0.00  0.00    -0.037 A 
ATOM     14  C   LIG A   1      -5.225   4.645 120.841  0.00  0.00    +0.004 A 
ATOM     15  C   LIG A   1      -5.241   5.368 119.650  0.00  0.00    +0.000 A 
ATOM     16  C   LIG A   1      -6.355   5.293 118.808  0.00  0.00    +0.000 A 
ATOM     17  C   LIG A   1      -7.429   4.480 119.153  0.00  0.00    +0.000 A 
ATOM     18  C   LIG A   1      -7.413   3.749 120.339  0.00  0.00    +0.004 A 
ENDBRANCH  12  13
ENDBRANCH  11  12
ENDBRANCH  10  11
ENDBRANCH   1  10
TORSDOF 7
ENDMDL
MODEL 2
REMARK VINA RESULT:      -6.2      1.792      7.152
REMARK  Name = NuBBE_402
REMARK  7 active torsions:
REMARK  status: ('A' for Active; 'I' for Inactive)
REMARK    1  A    between atoms: C_1  and  C_2
REMARK    2  A    between atoms: C_2  and  S_3
REMARK    3  A    between atoms: S_3  and  S_4
REMARK    4  A    between atoms: S_4  and  S_5
REMARK    5  A    between atoms: S_5  and  S_6
REMARK    6  A    between atoms: S_6  and  C_7
REMARK    7  A    between atoms: C_7  and  C_8
REMARK                            x       y       z     vdW  Elec       q    Type
REMARK                         _______ _______ _______ _____ _____    ______ ____
ROOT
ATOM      1  S   LIG A   1      -8.191   1.607 126.401  0.00  0.00    -0.013 S 
ENDROOT
BRANCH   1   2
ATOM      2  S   LIG A   1      -6.600   1.921 125.134  0.00  0.00    -0.076 S 
BRANCH   2   3
ATOM      3  C   LIG A   1      -6.753   3.640 124.553  0.00  0.00    +0.116 C 
BRANCH   3   4
ATOM      4  C   LIG A   1      -6.236   3.892 123.156  0.00  0.00    -0.037 A 
ATOM      5  C   LIG A   1      -5.022   4.553 122.937  0.00  0.00    +0.004 A 
ATOM      6  C   LIG A   1      -4.550   4.753 121.630  0.00  0.00    +0.000 A 
ATOM      7  C   LIG A   1      -5.283   4.277 120.549  0.00  0.00    +0.000 A 
ATOM      8  C   LIG A   1      -6.488   3.616 120.752  0.00  0.00    +0.000 A 
ATOM      9  C   LIG A   1      -6.970   3.436 122.056  0.00  0.00    +0.004 A 
ENDBRANCH   3   4
ENDBRANCH   2   3
ENDBRANCH   1   2
BRANCH   1  10
ATOM     10  S   LIG A   1      -9.530   0.420 125.387  0.00  0.00    -0.013 S 
BRANCH  10  11
ATOM     11  S   LIG A   1      -9.089   0.606 123.398  0.00  0.00    -0.076 S 
BRANCH  11  12
ATOM     12  C   LIG A   1      -9.325  -1.097 122.801  0.00  0.00    +0.116 C 
BRANCH  12  13
ATOM     13  C   LIG A   1      -8.190  -2.019 123.181  0.00  0.00    -0.037 A 
ATOM     14  C   LIG A   1      -8.406  -3.122 124.019  0.00  0.00    +0.004 A 
ATOM     15  C   LIG A   1      -7.336  -3.889 124.478  0.00  0.00    +0.000 A 
ATOM     16  C   LIG A   1      -6.031  -3.555 124.101  0.00  0.00    +0.000 A 
ATOM     17  C   LIG A   1      -5.812  -2.475 123.253  0.00  0.00    +0.000 A 
ATOM     18  C   LIG A   1      -6.879  -1.712 122.785  0.00  0.00    +0.004 A 
ENDBRANCH  12  13
ENDBRANCH  11  12
ENDBRANCH  10  11
ENDBRANCH   1  10
TORSDOF 7
ENDMDL
MODEL 3
REMARK VINA RESULT:      -6.1      1.073      7.789
REMARK  Name = NuBBE_402
REMARK  7 active torsions:
REMARK  status: ('A' for Active; 'I' for Inactive)
REMARK    1  A    between atoms: C_1  and  C_2
REMARK    2  A    between atoms: C_2  and  S_3
REMARK    3  A    between atoms: S_3  and  S_4
REMARK    4  A    between atoms: S_4  and  S_5
REMARK    5  A    between atoms: S_5  and  S_6
REMARK    6  A    between atoms: S_6  and  C_7
REMARK    7  A    between atoms: C_7  and  C_8
REMARK                            x       y       z     vdW  Elec       q    Type
REMARK                         _______ _______ _______ _____ _____    ______ ____
ROOT
ATOM      1  S   LIG A   1      -7.202   3.224 125.137  0.00  0.00    -0.013 S 
ENDROOT
BRANCH   1   2
ATOM      2  S   LIG A   1      -7.865   3.003 123.201  0.00  0.00    -0.076 S 
BRANCH   2   3
ATOM      3  C   LIG A   1      -6.369   2.891 122.168  0.00  0.00    +0.116 C 
BRANCH   3   4
ATOM      4  C   LIG A   1      -6.354   3.801 120.963  0.00  0.00    -0.037 A 
ATOM      5  C   LIG A   1      -5.260   4.629 120.689  0.00  0.00    +0.004 A 
ATOM      6  C   LIG A   1      -5.259   5.448 119.548  0.00  0.00    +0.000 A 
ATOM      7  C   LIG A   1      -6.342   5.424 118.677  0.00  0.00    +0.000 A 
ATOM      8  C   LIG A   1      -7.434   4.604 118.935  0.00  0.00    +0.000 A 
ATOM      9  C   LIG A   1      -7.444   3.803 120.085  0.00  0.00    +0.004 A 
ENDBRANCH   3   4
ENDBRANCH   2   3
ENDBRANCH   1   2
BRANCH   1  10
ATOM     10  S   LIG A   1      -8.209   1.835 126.270  0.00  0.00    -0.013 S 
BRANCH  10  11
ATOM     11  S   LIG A   1      -6.870   0.351 126.704  0.00  0.00    -0.076 S 
BRANCH  11  12
ATOM     12  C   LIG A   1      -7.953  -1.108 126.822  0.00  0.00    +0.116 C 
BRANCH  12  13
ATOM     13  C   LIG A   1      -8.177  -1.787 125.491  0.00  0.00    -0.037 A 
ATOM     14  C   LIG A   1      -7.522  -1.341 124.334  0.00  0.00    +0.004 A 
ATOM     15  C   LIG A   1      -7.833  -1.879 123.087  0.00  0.00    +0.000 A 
ATOM     16  C   LIG A   1      -8.811  -2.874 122.985  0.00  0.00    +0.000 A 
ATOM     17  C   LIG A   1      -9.449  -3.335 124.131  0.00  0.00    +0.000 A 
ATOM     18  C   LIG A   1      -9.135  -2.806 125.381  0.00  0.00    +0.004 A 
ENDBRANCH  12  13
ENDBRANCH  11  12
ENDBRANCH  10  11
ENDBRANCH   1  10
TORSDOF 7
ENDMDL
MODEL 4
REMARK VINA RESULT:      -6.0      2.090      8.481
REMARK  Name = NuBBE_402
REMARK  7 active torsions:
REMARK  status: ('A' for Active; 'I' for Inactive)
REMARK    1  A    between atoms: C_1  and  C_2
REMARK    2  A    between atoms: C_2  and  S_3
REMARK    3  A    between atoms: S_3  and  S_4
REMARK    4  A    between atoms: S_4  and  S_5
REMARK    5  A    between atoms: S_5  and  S_6
REMARK    6  A    between atoms: S_6  and  C_7
REMARK    7  A    between atoms: C_7  and  C_8
REMARK                            x       y       z     vdW  Elec       q    Type
REMARK                         _______ _______ _______ _____ _____    ______ ____
ROOT
ATOM      1  S   LIG A   1      -7.258  -0.060 124.173  0.00  0.00    -0.013 S 
ENDROOT
BRANCH   1   2
ATOM      2  S   LIG A   1      -8.965   0.864 123.488  0.00  0.00    -0.076 S 
BRANCH   2   3
ATOM      3  C   LIG A   1      -8.610   2.650 123.506  0.00  0.00    +0.116 C 
BRANCH   3   4
ATOM      4  C   LIG A   1      -7.926   3.179 122.267  0.00  0.00    -0.037 A 
ATOM      5  C   LIG A   1      -6.531   3.243 122.177  0.00  0.00    +0.004 A 
ATOM      6  C   LIG A   1      -5.918   3.714 121.005  0.00  0.00    +0.000 A 
ATOM      7  C   LIG A   1      -6.699   4.104 119.923  0.00  0.00    +0.000 A 
ATOM      8  C   LIG A   1      -8.085   4.043 119.998  0.00  0.00    +0.000 A 
ATOM      9  C   LIG A   1      -8.697   3.592 121.175  0.00  0.00    +0.004 A 
ENDBRANCH   3   4
ENDBRANCH   2   3
ENDBRANCH   1   2
BRANCH   1  10
ATOM     10  S   LIG A   1      -7.228  -1.941 123.341  0.00  0.00    -0.013 S 
BRANCH  10  11
ATOM     11  S   LIG A   1      -8.214  -3.173 124.643  0.00  0.00    -0.076 S 
BRANCH  11  12
ATOM     12  C   LIG A   1      -8.568  -2.046 126.029  0.00  0.00    +0.116 C 
BRANCH  12  13
ATOM     13  C   LIG A   1      -7.784  -2.380 127.277  0.00  0.00    -0.037 A 
ATOM     14  C   LIG A   1      -6.421  -2.066 127.378  0.00  0.00    +0.004 A 
ATOM     15  C   LIG A   1      -5.670  -2.496 128.470  0.00  0.00    +0.000 A 
ATOM     16  C   LIG A   1      -6.280  -3.250 129.477  0.00  0.00    +0.000 A 
ATOM     17  C   LIG A   1      -7.636  -3.546 129.394  0.00  0.00    +0.000 A 
ATOM     18  C   LIG A   1      -8.392  -3.111 128.308  0.00  0.00    +0.004 A 
ENDBRANCH  12  13
ENDBRANCH  11  12
ENDBRANCH  10  11
ENDBRANCH   1  10
TORSDOF 7
ENDMDL
MODEL 5
REMARK VINA RESULT:      -6.0      1.554      8.442
REMARK  Name = NuBBE_402
REMARK  7 active torsions:
REMARK  status: ('A' for Active; 'I' for Inactive)
REMARK    1  A    between atoms: C_1  and  C_2
REMARK    2  A    between atoms: C_2  and  S_3
REMARK    3  A    between atoms: S_3  and  S_4
REMARK    4  A    between atoms: S_4  and  S_5
REMARK    5  A    between atoms: S_5  and  S_6
REMARK    6  A    between atoms: S_6  and  C_7
REMARK    7  A    between atoms: C_7  and  C_8
REMARK                            x       y       z     vdW  Elec       q    Type
REMARK                         _______ _______ _______ _____ _____    ______ ____
ROOT
ATOM      1  S   LIG A   1      -7.390   3.275 126.123  0.00  0.00    -0.013 S 
ENDROOT
BRANCH   1   2
ATOM      2  S   LIG A   1      -8.180   2.765 124.293  0.00  0.00    -0.076 S 
BRANCH   2   3
ATOM      3  C   LIG A   1      -6.822   2.945 123.093  0.00  0.00    +0.116 C 
BRANCH   3   4
ATOM      4  C   LIG A   1      -7.234   3.459 121.733  0.00  0.00    -0.037 A 
ATOM      5  C   LIG A   1      -6.286   3.899 120.803  0.00  0.00    +0.004 A 
ATOM      6  C   LIG A   1      -6.691   4.350 119.537  0.00  0.00    +0.000 A 
ATOM      7  C   LIG A   1      -8.040   4.342 119.198  0.00  0.00    +0.000 A 
ATOM      8  C   LIG A   1      -8.992   3.904 120.110  0.00  0.00    +0.000 A 
ATOM      9  C   LIG A   1      -8.589   3.476 121.382  0.00  0.00    +0.004 A 
ENDBRANCH   3   4
ENDBRANCH   2   3
ENDBRANCH   1   2
BRANCH   1  10
ATOM     10  S   LIG A   1      -5.809   2.003 126.461  0.00  0.00    -0.013 S 
BRANCH  10  11
ATOM     11  S   LIG A   1      -6.424   0.139 125.886  0.00  0.00    -0.076 S 
BRANCH  11  12
ATOM     12  C   LIG A   1      -6.083  -0.845 127.380  0.00  0.00    +0.116 C 
BRANCH  12  13
ATOM     13  C   LIG A   1      -7.049  -1.992 127.564  0.00  0.00    -0.037 A 
ATOM     14  C   LIG A   1      -7.794  -2.489 126.486  0.00  0.00    +0.004 A 
ATOM     15  C   LIG A   1      -8.782  -3.452 126.685  0.00  0.00    +0.000 A 
ATOM     16  C   LIG A   1      -9.036  -3.928 127.975  0.00  0.00    +0.000 A 
ATOM     17  C   LIG A   1      -8.286  -3.455 129.047  0.00  0.00    +0.000 A 
ATOM     18  C   LIG A   1      -7.293  -2.498 128.850  0.00  0.00    +0.004 A 
ENDBRANCH  12  13
ENDBRANCH  11  12
ENDBRANCH  10  11
ENDBRANCH   1  10
TORSDOF 7
ENDMDL
MODEL 6
REMARK VINA RESULT:      -6.0      1.632      2.884
REMARK  Name = NuBBE_402
REMARK  7 active torsions:
REMARK  status: ('A' for Active; 'I' for Inactive)
REMARK    1  A    between atoms: C_1  and  C_2
REMARK    2  A    between atoms: C_2  and  S_3
REMARK    3  A    between atoms: S_3  and  S_4
REMARK    4  A    between atoms: S_4  and  S_5
REMARK    5  A    between atoms: S_5  and  S_6
REMARK    6  A    between atoms: S_6  and  C_7
REMARK    7  A    between atoms: C_7  and  C_8
REMARK                            x       y       z     vdW  Elec       q    Type
REMARK                         _______ _______ _______ _____ _____    ______ ____
ROOT
ATOM      1  S   LIG A   1      -7.169   0.718 125.662  0.00  0.00    -0.013 S 
ENDROOT
BRANCH   1   2
ATOM      2  S   LIG A   1      -8.809  -0.514 125.824  0.00  0.00    -0.076 S 
BRANCH   2   3
ATOM      3  C   LIG A   1      -8.807  -1.552 124.328  0.00  0.00    +0.116 C 
BRANCH   3   4
ATOM      4  C   LIG A   1      -7.455  -2.098 123.930  0.00  0.00    -0.037 A 
ATOM      5  C   LIG A   1      -6.881  -1.788 122.692  0.00  0.00    +0.004 A 
ATOM      6  C   LIG A   1      -5.612  -2.287 122.355  0.00  0.00    +0.000 A 
ATOM      7  C   LIG A   1      -4.916  -3.077 123.262  0.00  0.00    +0.000 A 
ATOM      8  C   LIG A   1      -5.472  -3.390 124.496  0.00  0.00    +0.000 A 
ATOM      9  C   LIG A   1      -6.748  -2.910 124.823  0.00  0.00    +0.004 A 
ENDBRANCH   3   4
ENDBRANCH   2   3
ENDBRANCH   1   2
BRANCH   1  10
ATOM     10  S   LIG A   1      -7.597   2.418 126.737  0.00  0.00    -0.013 S 
BRANCH  10  11
ATOM     11  S   LIG A   1      -7.903   3.911 125.373  0.00  0.00    -0.076 S 
BRANCH  11  12
ATOM     12  C   LIG A   1      -7.985   2.980 123.810  0.00  0.00    +0.116 C 
BRANCH  12  13
ATOM     13  C   LIG A   1      -7.089   3.551 122.735  0.00  0.00    -0.037 A 
ATOM     14  C   LIG A   1      -7.450   3.479 121.382  0.00  0.00    +0.004 A 
ATOM     15  C   LIG A   1      -6.562   3.881 120.386  0.00  0.00    +0.000 A 
ATOM     16  C   LIG A   1      -5.296   4.360 120.737  0.00  0.00    +0.000 A 
ATOM     17  C   LIG A   1      -4.940   4.454 122.078  0.00  0.00    +0.000 A 
ATOM     18  C   LIG A   1      -5.827   4.061 123.077  0.00  0.00    +0.004 A 
ENDBRANCH  12  13
ENDBRANCH  11  12
ENDBRANCH  10  11
ENDBRANCH   1  10
TORSDOF 7
ENDMDL
MODEL 7
REMARK VINA RESULT:      -6.0      3.976      4.700
REMARK  Name = NuBBE_402
REMARK  7 active torsions:
REMARK  status: ('A' for Active; 'I' for Inactive)
REMARK    1  A    between atoms: C_1  and  C_2
REMARK    2  A    between atoms: C_2  and  S_3
REMARK    3  A    between atoms: S_3  and  S_4
REMARK    4  A    between atoms: S_4  and  S_5
REMARK    5  A    between atoms: S_5  and  S_6
REMARK    6  A    between atoms: S_6  and  C_7
REMARK    7  A    between atoms: C_7  and  C_8
REMARK                            x       y       z     vdW  Elec       q    Type
REMARK                         _______ _______ _______ _____ _____    ______ ____
ROOT
ATOM      1  S   LIG A   1      -6.011  -0.486 129.730  0.00  0.00    -0.013 S 
ENDROOT
BRANCH   1   2
ATOM      2  S   LIG A   1      -6.341  -2.337 128.891  0.00  0.00    -0.076 S 
BRANCH   2   3
ATOM      3  C   LIG A   1      -5.960  -2.158 127.119  0.00  0.00    +0.116 C 
BRANCH   3   4
ATOM      4  C   LIG A   1      -7.095  -2.502 126.183  0.00  0.00    -0.037 A 
ATOM      5  C   LIG A   1      -6.861  -2.827 124.843  0.00  0.00    +0.004 A 
ATOM      6  C   LIG A   1      -7.930  -3.168 123.999  0.00  0.00    +0.000 A 
ATOM      7  C   LIG A   1      -9.226  -3.198 124.501  0.00  0.00    +0.000 A 
ATOM      8  C   LIG A   1      -9.473  -2.881 125.830  0.00  0.00    +0.000 A 
ATOM      9  C   LIG A   1      -8.408  -2.520 126.667  0.00  0.00    +0.004 A 
ENDBRANCH   3   4
ENDBRANCH   2   3
ENDBRANCH   1   2
BRANCH   1  10
ATOM     10  S   LIG A   1      -7.831   0.468 129.793  0.00  0.00    -0.013 S 
BRANCH  10  11
ATOM     11  S   LIG A   1      -7.670   2.116 128.592  0.00  0.00    -0.076 S 
BRANCH  11  12
ATOM     12  C   LIG A   1      -6.699   1.468 127.195  0.00  0.00    +0.116 C 
BRANCH  12  13
ATOM     13  C   LIG A   1      -7.536   1.204 125.965  0.00  0.00    -0.037 A 
ATOM     14  C   LIG A   1      -8.931   1.090 126.053  0.00  0.00    +0.004 A 
ATOM     15  C   LIG A   1      -9.686   0.712 124.944  0.00  0.00    +0.000 A 
ATOM     16  C   LIG A   1      -9.048   0.440 123.730  0.00  0.00    +0.000 A 
ATOM     17  C   LIG A   1      -7.667   0.572 123.631  0.00  0.00    +0.000 A 
ATOM     18  C   LIG A   1      -6.910   0.959 124.734  0.00  0.00    +0.004 A 
ENDBRANCH  12  13
ENDBRANCH  11  12
ENDBRANCH  10  11
ENDBRANCH   1  10
TORSDOF 7
ENDMDL
MODEL 8
REMARK VINA RESULT:      -5.9      3.515      4.942
REMARK  Name = NuBBE_402
REMARK  7 active torsions:
REMARK  status: ('A' for Active; 'I' for Inactive)
REMARK    1  A    between atoms: C_1  and  C_2
REMARK    2  A    between atoms: C_2  and  S_3
REMARK    3  A    between atoms: S_3  and  S_4
REMARK    4  A    between atoms: S_4  and  S_5
REMARK    5  A    between atoms: S_5  and  S_6
REMARK    6  A    between atoms: S_6  and  C_7
REMARK    7  A    between atoms: C_7  and  C_8
REMARK                            x       y       z     vdW  Elec       q    Type
REMARK                         _______ _______ _______ _____ _____    ______ ____
ROOT
ATOM      1  S   LIG A   1      -7.405   3.191 127.223  0.00  0.00    -0.013 S 
ENDROOT
BRANCH   1   2
ATOM      2  S   LIG A   1      -8.369   1.501 127.896  0.00  0.00    -0.076 S 
BRANCH   2   3
ATOM      3  C   LIG A   1      -7.164   0.143 127.744  0.00  0.00    +0.116 C 
BRANCH   3   4
ATOM      4  C   LIG A   1      -7.743  -1.244 127.891  0.00  0.00    -0.037 A 
ATOM      5  C   LIG A   1      -8.322  -1.911 126.805  0.00  0.00    +0.004 A 
ATOM      6  C   LIG A   1      -8.830  -3.210 126.960  0.00  0.00    +0.000 A 
ATOM      7  C   LIG A   1      -8.743  -3.845 128.194  0.00  0.00    +0.000 A 
ATOM      8  C   LIG A   1      -8.167  -3.197 129.280  0.00  0.00    +0.000 A 
ATOM      9  C   LIG A   1      -7.680  -1.892 129.130  0.00  0.00    +0.004 A 
ENDBRANCH   3   4
ENDBRANCH   2   3
ENDBRANCH   1   2
BRANCH   1  10
ATOM     10  S   LIG A   1      -7.725   3.287 125.194  0.00  0.00    -0.013 S 
BRANCH  10  11
ATOM     11  S   LIG A   1      -9.134   1.870 124.755  0.00  0.00    -0.076 S 
BRANCH  11  12
ATOM     12  C   LIG A   1      -8.454   1.121 123.242  0.00  0.00    +0.116 C 
BRANCH  12  13
ATOM     13  C   LIG A   1      -8.083  -0.333 123.417  0.00  0.00    -0.037 A 
ATOM     14  C   LIG A   1      -6.758  -0.715 123.670  0.00  0.00    +0.004 A 
ATOM     15  C   LIG A   1      -6.397  -2.061 123.694  0.00  0.00    +0.000 A 
ATOM     16  C   LIG A   1      -7.365  -3.043 123.463  0.00  0.00    +0.000 A 
ATOM     17  C   LIG A   1      -8.685  -2.672 123.234  0.00  0.00    +0.000 A 
ATOM     18  C   LIG A   1      -9.052  -1.329 123.216  0.00  0.00    +0.004 A 
ENDBRANCH  12  13
ENDBRANCH  11  12
ENDBRANCH  10  11
ENDBRANCH   1  10
TORSDOF 7
ENDMDL
MODEL 9
REMARK VINA RESULT:      -5.9      1.350      2.353
REMARK  Name = NuBBE_402
REMARK  7 active torsions:
REMARK  status: ('A' for Active; 'I' for Inactive)
REMARK    1  A    between atoms: C_1  and  C_2
REMARK    2  A    between atoms: C_2  and  S_3
REMARK    3  A    between atoms: S_3  and  S_4
REMARK    4  A    between atoms: S_4  and  S_5
REMARK    5  A    between atoms: S_5  and  S_6
REMARK    6  A    between atoms: S_6  and  C_7
REMARK    7  A    between atoms: C_7  and  C_8
REMARK                            x       y       z     vdW  Elec       q    Type
REMARK                         _______ _______ _______ _____ _____    ______ ____
ROOT
ATOM      1  S   LIG A   1      -8.913   0.707 124.176  0.00  0.00    -0.013 S 
ENDROOT
BRANCH   1   2
ATOM      2  S   LIG A   1      -8.619   0.739 126.212  0.00  0.00    -0.076 S 
BRANCH   2   3
ATOM      3  C   LIG A   1      -8.495  -1.003 126.729  0.00  0.00    +0.116 C 
BRANCH   3   4
ATOM      4  C   LIG A   1      -7.641  -1.875 125.838  0.00  0.00    -0.037 A 
ATOM      5  C   LIG A   1      -8.197  -2.925 125.098  0.00  0.00    +0.004 A 
ATOM      6  C   LIG A   1      -7.387  -3.706 124.258  0.00  0.00    +0.000 A 
ATOM      7  C   LIG A   1      -6.030  -3.424 124.146  0.00  0.00    +0.000 A 
ATOM      8  C   LIG A   1      -5.466  -2.383 124.872  0.00  0.00    +0.000 A 
ATOM      9  C   LIG A   1      -6.270  -1.618 125.728  0.00  0.00    +0.004 A 
ENDBRANCH   3   4
ENDBRANCH   2   3
ENDBRANCH   1   2
BRANCH   1  10
ATOM     10  S   LIG A   1      -7.091   1.101 123.307  0.00  0.00    -0.013 S 
BRANCH  10  11
ATOM     11  S   LIG A   1      -6.739   3.099 123.567  0.00  0.00    -0.076 S 
BRANCH  11  12
ATOM     12  C   LIG A   1      -5.928   3.543 121.999  0.00  0.00    +0.116 C 
BRANCH  12  13
ATOM     13  C   LIG A   1      -6.910   3.910 120.910  0.00  0.00    -0.037 A 
ATOM     14  C   LIG A   1      -8.283   3.674 121.067  0.00  0.00    +0.004 A 
ATOM     15  C   LIG A   1      -9.167   3.885 120.010  0.00  0.00    +0.000 A 
ATOM     16  C   LIG A   1      -8.682   4.337 118.779  0.00  0.00    +0.000 A 
ATOM     17  C   LIG A   1      -7.324   4.594 118.624  0.00  0.00    +0.000 A 
ATOM     18  C   LIG A   1      -6.438   4.392 119.680  0.00  0.00    +0.004 A 
ENDBRANCH  12  13
ENDBRANCH  11  12
ENDBRANCH  10  11
ENDBRANCH   1  10
TORSDOF 7
ENDMDL
