MODEL 1
REMARK VINA RESULT:      -7.2      0.000      0.000
REMARK  Name = NuBBE_19
REMARK  8 active torsions:
REMARK  status: ('A' for Active; 'I' for Inactive)
REMARK    1  A    between atoms: C_1  and  O_2
REMARK    2  A    between atoms: O_2  and  C_3
REMARK    3  A    between atoms: C_4  and  O_5
REMARK    4  A    between atoms: O_5  and  C_6
REMARK    5  A    between atoms: C_7  and  O_8
REMARK    6  A    between atoms: O_8  and  C_9
REMARK    7  A    between atoms: C_11  and  C_12
REMARK    8  A    between atoms: C_13  and  C_14
REMARK                            x       y       z     vdW  Elec       q    Type
REMARK                         _______ _______ _______ _____ _____    ______ ____
ROOT
ATOM      1  C   LIG A   1      -4.748   6.156 132.917  0.00  0.00    +0.166 A 
ATOM      2  C   LIG A   1      -4.137   6.867 131.864  0.00  0.00    +0.203 A 
ATOM      3  C   LIG A   1      -4.939   7.285 130.776  0.00  0.00    +0.166 A 
ATOM      4  C   LIG A   1      -6.324   7.074 130.808  0.00  0.00    +0.057 A 
ATOM      5  C   LIG A   1      -6.936   6.428 131.880  0.00  0.00    -0.018 A 
ATOM      6  C   LIG A   1      -6.135   5.950 132.917  0.00  0.00    +0.057 A 
ENDROOT
BRANCH   1   8
ATOM      7  C   LIG A   1      -4.230   6.437 135.228  0.00  0.00    +0.277 C 
ATOM      8  O   LIG A   1      -4.149   5.651 134.047  0.00  0.00    -0.491 OA
ENDBRANCH   1   8
BRANCH   2   9
ATOM      9  O   LIG A   1      -2.778   7.025 131.928  0.00  0.00    -0.488 OA
ATOM     10  C   LIG A   1      -2.224   8.201 132.505  0.00  0.00    +0.277 C 
ENDBRANCH   2   9
BRANCH   3  11
ATOM     11  O   LIG A   1      -4.317   7.843 129.687  0.00  0.00    -0.491 OA
ATOM     12  C   LIG A   1      -3.808   6.973 128.685  0.00  0.00    +0.277 C 
ENDBRANCH   3  11
BRANCH   5  13
ATOM     13  C   LIG A   1      -8.388   6.222 131.832  0.00  0.00    +0.013 C 
ATOM     14  C   LIG A   1      -9.169   6.863 130.952  0.00  0.00    +0.068 C 
BRANCH  14  15
ATOM     15  C   LIG A   1     -10.639   6.675 130.975  0.00  0.00    +0.246 C 
ATOM     16  N   LIG A   1     -11.363   7.118 129.856  0.00  0.00    -0.235 N 
ATOM     17  C   LIG A   1     -12.814   6.979 129.973  0.00  0.00    +0.121 C 
ATOM     18  C   LIG A   1     -13.531   6.797 128.641  0.00  0.00    +0.047 C 
ATOM     19  C   LIG A   1     -12.996   7.730 127.606  0.00  0.00    -0.020 C 
ATOM     20  C   LIG A   1     -11.776   8.263 127.720  0.00  0.00    +0.064 C 
ATOM     21  C   LIG A   1     -10.855   7.920 128.832  0.00  0.00    +0.246 C 
ATOM     22  O   LIG A   1      -9.703   8.357 128.736  0.00  0.00    -0.270 OA
ATOM     23  O   LIG A   1     -11.167   6.174 131.967  0.00  0.00    -0.270 OA
ENDBRANCH  14  15
ENDBRANCH   5  13
TORSDOF 5
ENDMDL
MODEL 2
REMARK VINA RESULT:      -7.1      0.560      2.684
REMARK  Name = NuBBE_19
REMARK  8 active torsions:
REMARK  status: ('A' for Active; 'I' for Inactive)
REMARK    1  A    between atoms: C_1  and  O_2
REMARK    2  A    between atoms: O_2  and  C_3
REMARK    3  A    between atoms: C_4  and  O_5
REMARK    4  A    between atoms: O_5  and  C_6
REMARK    5  A    between atoms: C_7  and  O_8
REMARK    6  A    between atoms: O_8  and  C_9
REMARK    7  A    between atoms: C_11  and  C_12
REMARK    8  A    between atoms: C_13  and  C_14
REMARK                            x       y       z     vdW  Elec       q    Type
REMARK                         _______ _______ _______ _____ _____    ______ ____
ROOT
ATOM      1  C   LIG A   1      -4.792   7.119 130.960  0.00  0.00    +0.166 A 
ATOM      2  C   LIG A   1      -4.083   6.603 132.065  0.00  0.00    +0.203 A 
ATOM      3  C   LIG A   1      -4.813   5.999 133.114  0.00  0.00    +0.166 A 
ATOM      4  C   LIG A   1      -6.202   5.839 132.998  0.00  0.00    +0.057 A 
ATOM      5  C   LIG A   1      -6.893   6.291 131.876  0.00  0.00    -0.018 A 
ATOM      6  C   LIG A   1      -6.181   6.953 130.875  0.00  0.00    +0.057 A 
ENDROOT
BRANCH   1   8
ATOM      7  C   LIG A   1      -3.765   6.928 128.816  0.00  0.00    +0.277 C 
ATOM      8  O   LIG A   1      -4.276   7.753 129.855  0.00  0.00    -0.491 OA
ENDBRANCH   1   8
BRANCH   2   9
ATOM      9  O   LIG A   1      -2.729   6.807 132.084  0.00  0.00    -0.488 OA
ATOM     10  C   LIG A   1      -1.845   5.757 131.710  0.00  0.00    +0.277 C 
ENDBRANCH   2   9
BRANCH   3  11
ATOM     11  O   LIG A   1      -4.137   5.634 134.252  0.00  0.00    -0.491 OA
ATOM     12  C   LIG A   1      -4.309   6.426 135.419  0.00  0.00    +0.277 C 
ENDBRANCH   3  11
BRANCH   5  13
ATOM     13  C   LIG A   1      -8.348   6.109 131.835  0.00  0.00    +0.013 C 
ATOM     14  C   LIG A   1      -9.134   6.837 131.030  0.00  0.00    +0.068 C 
BRANCH  14  15
ATOM     15  C   LIG A   1     -10.606   6.666 131.062  0.00  0.00    +0.246 C 
ATOM     16  N   LIG A   1     -11.333   7.126 129.952  0.00  0.00    -0.235 N 
ATOM     17  C   LIG A   1     -12.784   7.003 130.078  0.00  0.00    +0.121 C 
ATOM     18  C   LIG A   1     -13.513   6.840 128.750  0.00  0.00    +0.047 C 
ATOM     19  C   LIG A   1     -12.974   7.775 127.719  0.00  0.00    -0.020 C 
ATOM     20  C   LIG A   1     -11.747   8.294 127.829  0.00  0.00    +0.064 C 
ATOM     21  C   LIG A   1     -10.822   7.931 128.931  0.00  0.00    +0.246 C 
ATOM     22  O   LIG A   1      -9.666   8.355 128.832  0.00  0.00    -0.270 OA
ATOM     23  O   LIG A   1     -11.134   6.162 132.053  0.00  0.00    -0.270 OA
ENDBRANCH  14  15
ENDBRANCH   5  13
TORSDOF 5
ENDMDL
MODEL 3
REMARK VINA RESULT:      -6.8      1.624      3.313
REMARK  Name = NuBBE_19
REMARK  8 active torsions:
REMARK  status: ('A' for Active; 'I' for Inactive)
REMARK    1  A    between atoms: C_1  and  O_2
REMARK    2  A    between atoms: O_2  and  C_3
REMARK    3  A    between atoms: C_4  and  O_5
REMARK    4  A    between atoms: O_5  and  C_6
REMARK    5  A    between atoms: C_7  and  O_8
REMARK    6  A    between atoms: O_8  and  C_9
REMARK    7  A    between atoms: C_11  and  C_12
REMARK    8  A    between atoms: C_13  and  C_14
REMARK                            x       y       z     vdW  Elec       q    Type
REMARK                         _______ _______ _______ _____ _____    ______ ____
ROOT
ATOM      1  C   LIG A   1      -5.794   6.043 132.654  0.00  0.00    +0.166 A 
ATOM      2  C   LIG A   1      -5.527   5.655 133.984  0.00  0.00    +0.203 A 
ATOM      3  C   LIG A   1      -6.618   5.440 134.857  0.00  0.00    +0.166 A 
ATOM      4  C   LIG A   1      -7.930   5.520 134.369  0.00  0.00    +0.057 A 
ATOM      5  C   LIG A   1      -8.192   5.839 133.039  0.00  0.00    -0.018 A 
ATOM      6  C   LIG A   1      -7.117   6.124 132.196  0.00  0.00    +0.057 A 
ENDROOT
BRANCH   1   8
ATOM      7  C   LIG A   1      -4.685   5.311 130.674  0.00  0.00    +0.277 C 
ATOM      8  O   LIG A   1      -4.884   6.314 131.661  0.00  0.00    -0.491 OA
ENDBRANCH   1   8
BRANCH   2   9
ATOM      9  O   LIG A   1      -4.212   5.603 134.362  0.00  0.00    -0.488 OA
ATOM     10  C   LIG A   1      -3.480   4.390 134.228  0.00  0.00    +0.277 C 
ENDBRANCH   2   9
BRANCH   3  11
ATOM     11  O   LIG A   1      -6.353   5.211 136.184  0.00  0.00    -0.491 OA
ATOM     12  C   LIG A   1      -6.587   6.266 137.108  0.00  0.00    +0.277 C 
ENDBRANCH   3  11
BRANCH   5  13
ATOM     13  C   LIG A   1      -9.591   5.927 132.606  0.00  0.00    +0.013 C 
ATOM     14  C   LIG A   1      -9.943   6.496 131.446  0.00  0.00    +0.068 C 
BRANCH  14  15
ATOM     15  C   LIG A   1     -11.373   6.621 131.072  0.00  0.00    +0.246 C 
ATOM     16  N   LIG A   1     -11.663   7.009 129.755  0.00  0.00    -0.235 N 
ATOM     17  C   LIG A   1     -13.086   7.193 129.471  0.00  0.00    +0.121 C 
ATOM     18  C   LIG A   1     -13.468   6.942 128.018  0.00  0.00    +0.047 C 
ATOM     19  C   LIG A   1     -12.480   7.560 127.084  0.00  0.00    -0.020 C 
ATOM     20  C   LIG A   1     -11.237   7.843 127.482  0.00  0.00    +0.064 C 
ATOM     21  C   LIG A   1     -10.735   7.509 128.838  0.00  0.00    +0.246 C 
ATOM     22  O   LIG A   1      -9.526   7.678 129.027  0.00  0.00    -0.270 OA
ATOM     23  O   LIG A   1     -12.238   6.410 131.921  0.00  0.00    -0.270 OA
ENDBRANCH  14  15
ENDBRANCH   5  13
TORSDOF 5
ENDMDL
MODEL 4
REMARK VINA RESULT:      -6.7      1.835      2.377
REMARK  Name = NuBBE_19
REMARK  8 active torsions:
REMARK  status: ('A' for Active; 'I' for Inactive)
REMARK    1  A    between atoms: C_1  and  O_2
REMARK    2  A    between atoms: O_2  and  C_3
REMARK    3  A    between atoms: C_4  and  O_5
REMARK    4  A    between atoms: O_5  and  C_6
REMARK    5  A    between atoms: C_7  and  O_8
REMARK    6  A    between atoms: O_8  and  C_9
REMARK    7  A    between atoms: C_11  and  C_12
REMARK    8  A    between atoms: C_13  and  C_14
REMARK                            x       y       z     vdW  Elec       q    Type
REMARK                         _______ _______ _______ _____ _____    ______ ____
ROOT
ATOM      1  C   LIG A   1      -4.449   4.897 129.931  0.00  0.00    +0.166 A 
ATOM      2  C   LIG A   1      -3.704   6.072 130.155  0.00  0.00    +0.203 A 
ATOM      3  C   LIG A   1      -4.375   7.214 130.651  0.00  0.00    +0.166 A 
ATOM      4  C   LIG A   1      -5.731   7.132 130.997  0.00  0.00    +0.057 A 
ATOM      5  C   LIG A   1      -6.451   5.951 130.836  0.00  0.00    -0.018 A 
ATOM      6  C   LIG A   1      -5.807   4.846 130.278  0.00  0.00    +0.057 A 
ENDROOT
BRANCH   1   8
ATOM      7  C   LIG A   1      -4.318   2.529 130.188  0.00  0.00    +0.277 C 
ATOM      8  O   LIG A   1      -3.994   3.695 129.442  0.00  0.00    -0.491 OA
ENDBRANCH   1   8
BRANCH   2   9
ATOM      9  O   LIG A   1      -2.385   6.050 129.787  0.00  0.00    -0.488 OA
ATOM     10  C   LIG A   1      -2.006   6.439 128.472  0.00  0.00    +0.277 C 
ENDBRANCH   2   9
BRANCH   3  11
ATOM     11  O   LIG A   1      -3.680   8.396 130.725  0.00  0.00    -0.491 OA
ATOM     12  C   LIG A   1      -3.920   9.381 129.729  0.00  0.00    +0.277 C 
ENDBRANCH   3  11
BRANCH   5  13
ATOM     13  C   LIG A   1      -7.872   5.947 131.199  0.00  0.00    +0.013 C 
ATOM     14  C   LIG A   1      -8.743   6.822 130.677  0.00  0.00    +0.068 C 
BRANCH  14  15
ATOM     15  C   LIG A   1     -10.159   6.827 131.115  0.00  0.00    +0.246 C 
ATOM     16  N   LIG A   1     -11.112   7.318 130.209  0.00  0.00    -0.235 N 
ATOM     17  C   LIG A   1     -12.478   7.372 130.729  0.00  0.00    +0.121 C 
ATOM     18  C   LIG A   1     -13.556   7.235 129.661  0.00  0.00    +0.047 C 
ATOM     19  C   LIG A   1     -13.231   8.053 128.455  0.00  0.00    -0.020 C 
ATOM     20  C   LIG A   1     -11.976   8.428 128.193  0.00  0.00    +0.064 C 
ATOM     21  C   LIG A   1     -10.825   8.010 129.031  0.00  0.00    +0.246 C 
ATOM     22  O   LIG A   1      -9.704   8.291 128.593  0.00  0.00    -0.270 OA
ATOM     23  O   LIG A   1     -10.441   6.434 132.247  0.00  0.00    -0.270 OA
ENDBRANCH  14  15
ENDBRANCH   5  13
TORSDOF 5
ENDMDL
MODEL 5
REMARK VINA RESULT:      -6.7      8.600     10.423
REMARK  Name = NuBBE_19
REMARK  8 active torsions:
REMARK  status: ('A' for Active; 'I' for Inactive)
REMARK    1  A    between atoms: C_1  and  O_2
REMARK    2  A    between atoms: O_2  and  C_3
REMARK    3  A    between atoms: C_4  and  O_5
REMARK    4  A    between atoms: O_5  and  C_6
REMARK    5  A    between atoms: C_7  and  O_8
REMARK    6  A    between atoms: O_8  and  C_9
REMARK    7  A    between atoms: C_11  and  C_12
REMARK    8  A    between atoms: C_13  and  C_14
REMARK                            x       y       z     vdW  Elec       q    Type
REMARK                         _______ _______ _______ _____ _____    ______ ____
ROOT
ATOM      1  C   LIG A   1      -7.050   3.346 122.332  0.00  0.00    +0.166 A 
ATOM      2  C   LIG A   1      -6.020   3.864 123.146  0.00  0.00    +0.203 A 
ATOM      3  C   LIG A   1      -5.757   3.235 124.384  0.00  0.00    +0.166 A 
ATOM      4  C   LIG A   1      -6.447   2.066 124.735  0.00  0.00    +0.057 A 
ATOM      5  C   LIG A   1      -7.419   1.518 123.900  0.00  0.00    -0.018 A 
ATOM      6  C   LIG A   1      -7.730   2.181 122.713  0.00  0.00    +0.057 A 
ENDROOT
BRANCH   1   8
ATOM      7  C   LIG A   1      -8.847   3.656 120.795  0.00  0.00    +0.277 C 
ATOM      8  O   LIG A   1      -7.470   3.817 121.111  0.00  0.00    -0.491 OA
ENDBRANCH   1   8
BRANCH   2   9
ATOM      9  O   LIG A   1      -5.403   5.008 122.713  0.00  0.00    -0.488 OA
ATOM     10  C   LIG A   1      -4.306   4.928 121.811  0.00  0.00    +0.277 C 
ENDBRANCH   2   9
BRANCH   3  11
ATOM     11  O   LIG A   1      -4.861   3.828 125.238  0.00  0.00    -0.491 OA
ATOM     12  C   LIG A   1      -5.361   4.727 126.219  0.00  0.00    +0.277 C 
ENDBRANCH   3  11
BRANCH   5  13
ATOM     13  C   LIG A   1      -8.115   0.306 124.344  0.00  0.00    +0.013 C 
ATOM     14  C   LIG A   1      -8.082  -0.108 125.618  0.00  0.00    +0.068 C 
BRANCH  14  15
ATOM     15  C   LIG A   1      -8.746  -1.372 126.017  0.00  0.00    +0.246 C 
ATOM     16  N   LIG A   1      -8.187  -2.084 127.089  0.00  0.00    -0.235 N 
ATOM     17  C   LIG A   1      -8.838  -3.360 127.381  0.00  0.00    +0.121 C 
ATOM     18  C   LIG A   1      -8.735  -3.792 128.839  0.00  0.00    +0.047 C 
ATOM     19  C   LIG A   1      -7.359  -3.567 129.374  0.00  0.00    -0.020 C 
ATOM     20  C   LIG A   1      -6.532  -2.685 128.805  0.00  0.00    +0.064 C 
ATOM     21  C   LIG A   1      -6.937  -1.832 127.661  0.00  0.00    +0.246 C 
ATOM     22  O   LIG A   1      -6.137  -0.950 127.331  0.00  0.00    -0.270 OA
ATOM     23  O   LIG A   1      -9.731  -1.759 125.388  0.00  0.00    -0.270 OA
ENDBRANCH  14  15
ENDBRANCH   5  13
TORSDOF 5
ENDMDL
MODEL 6
REMARK VINA RESULT:      -6.5      2.253      3.250
REMARK  Name = NuBBE_19
REMARK  8 active torsions:
REMARK  status: ('A' for Active; 'I' for Inactive)
REMARK    1  A    between atoms: C_1  and  O_2
REMARK    2  A    between atoms: O_2  and  C_3
REMARK    3  A    between atoms: C_4  and  O_5
REMARK    4  A    between atoms: O_5  and  C_6
REMARK    5  A    between atoms: C_7  and  O_8
REMARK    6  A    between atoms: O_8  and  C_9
REMARK    7  A    between atoms: C_11  and  C_12
REMARK    8  A    between atoms: C_13  and  C_14
REMARK                            x       y       z     vdW  Elec       q    Type
REMARK                         _______ _______ _______ _____ _____    ______ ____
ROOT
ATOM      1  C   LIG A   1      -7.277   3.011 133.497  0.00  0.00    +0.166 A 
ATOM      2  C   LIG A   1      -6.282   3.996 133.672  0.00  0.00    +0.203 A 
ATOM      3  C   LIG A   1      -6.522   5.295 133.168  0.00  0.00    +0.166 A 
ATOM      4  C   LIG A   1      -7.764   5.605 132.597  0.00  0.00    +0.057 A 
ATOM      5  C   LIG A   1      -8.770   4.648 132.484  0.00  0.00    -0.018 A 
ATOM      6  C   LIG A   1      -8.507   3.347 132.914  0.00  0.00    +0.057 A 
ENDROOT
BRANCH   1   8
ATOM      7  C   LIG A   1      -7.200   0.711 132.871  0.00  0.00    +0.277 C 
ATOM      8  O   LIG A   1      -7.234   1.696 133.895  0.00  0.00    -0.491 OA
ENDBRANCH   1   8
BRANCH   2   9
ATOM      9  O   LIG A   1      -5.104   3.594 134.244  0.00  0.00    -0.488 OA
ATOM     10  C   LIG A   1      -4.048   3.101 133.428  0.00  0.00    +0.277 C 
ENDBRANCH   2   9
BRANCH   3  11
ATOM     11  O   LIG A   1      -5.496   6.206 133.205  0.00  0.00    -0.491 OA
ATOM     12  C   LIG A   1      -4.815   6.502 131.994  0.00  0.00    +0.277 C 
ENDBRANCH   3  11
BRANCH   5  13
ATOM     13  C   LIG A   1     -10.036   5.040 131.855  0.00  0.00    +0.013 C 
ATOM     14  C   LIG A   1     -10.337   6.320 131.598  0.00  0.00    +0.068 C 
BRANCH  14  15
ATOM     15  C   LIG A   1     -11.652   6.682 131.018  0.00  0.00    +0.246 C 
ATOM     16  N   LIG A   1     -11.692   6.980 129.647  0.00  0.00    -0.235 N 
ATOM     17  C   LIG A   1     -12.999   7.407 129.151  0.00  0.00    +0.121 C 
ATOM     18  C   LIG A   1     -13.244   7.085 127.682  0.00  0.00    +0.047 C 
ATOM     19  C   LIG A   1     -12.043   7.397 126.852  0.00  0.00    -0.020 C 
ATOM     20  C   LIG A   1     -10.826   7.472 127.399  0.00  0.00    +0.064 C 
ATOM     21  C   LIG A   1     -10.575   7.190 128.834  0.00  0.00    +0.246 C 
ATOM     22  O   LIG A   1      -9.390   7.138 129.178  0.00  0.00    -0.270 OA
ATOM     23  O   LIG A   1     -12.640   6.735 131.750  0.00  0.00    -0.270 OA
ENDBRANCH  14  15
ENDBRANCH   5  13
TORSDOF 5
ENDMDL
MODEL 7
REMARK VINA RESULT:      -6.3      9.785     11.827
REMARK  Name = NuBBE_19
REMARK  8 active torsions:
REMARK  status: ('A' for Active; 'I' for Inactive)
REMARK    1  A    between atoms: C_1  and  O_2
REMARK    2  A    between atoms: O_2  and  C_3
REMARK    3  A    between atoms: C_4  and  O_5
REMARK    4  A    between atoms: O_5  and  C_6
REMARK    5  A    between atoms: C_7  and  O_8
REMARK    6  A    between atoms: O_8  and  C_9
REMARK    7  A    between atoms: C_11  and  C_12
REMARK    8  A    between atoms: C_13  and  C_14
REMARK                            x       y       z     vdW  Elec       q    Type
REMARK                         _______ _______ _______ _____ _____    ______ ____
ROOT
ATOM      1  C   LIG A   1      -9.189  -2.156 125.737  0.00  0.00    +0.166 A 
ATOM      2  C   LIG A   1      -8.951  -0.767 125.798  0.00  0.00    +0.203 A 
ATOM      3  C   LIG A   1      -8.257  -0.248 126.915  0.00  0.00    +0.166 A 
ATOM      4  C   LIG A   1      -7.740  -1.121 127.883  0.00  0.00    +0.057 A 
ATOM      5  C   LIG A   1      -7.920  -2.499 127.788  0.00  0.00    -0.018 A 
ATOM      6  C   LIG A   1      -8.668  -3.004 126.724  0.00  0.00    +0.057 A 
ENDROOT
BRANCH   1   8
ATOM      7  C   LIG A   1      -9.068  -3.378 123.693  0.00  0.00    +0.277 C 
ATOM      8  O   LIG A   1      -9.853  -2.851 124.754  0.00  0.00    -0.491 OA
ENDBRANCH   1   8
BRANCH   2   9
ATOM      9  O   LIG A   1      -9.495  -0.000 124.802  0.00  0.00    -0.488 OA
ATOM     10  C   LIG A   1      -8.726   0.319 123.648  0.00  0.00    +0.277 C 
ENDBRANCH   2   9
BRANCH   3  11
ATOM     11  O   LIG A   1      -8.159   1.115 127.045  0.00  0.00    -0.491 OA
ATOM     12  C   LIG A   1      -6.943   1.741 126.659  0.00  0.00    +0.277 C 
ENDBRANCH   3  11
BRANCH   5  13
ATOM     13  C   LIG A   1      -7.370  -3.347 128.851  0.00  0.00    +0.013 C 
ATOM     14  C   LIG A   1      -6.502  -2.879 129.758  0.00  0.00    +0.068 C 
BRANCH  14  15
ATOM     15  C   LIG A   1      -5.920  -3.783 130.779  0.00  0.00    +0.246 C 
ATOM     16  N   LIG A   1      -6.435  -3.698 132.083  0.00  0.00    -0.235 N 
ATOM     17  C   LIG A   1      -5.766  -4.556 133.061  0.00  0.00    +0.121 C 
ATOM     18  C   LIG A   1      -6.657  -4.993 134.217  0.00  0.00    +0.047 C 
ATOM     19  C   LIG A   1      -7.480  -3.856 134.726  0.00  0.00    -0.020 C 
ATOM     20  C   LIG A   1      -7.733  -2.789 133.962  0.00  0.00    +0.064 C 
ATOM     21  C   LIG A   1      -7.277  -2.688 132.554  0.00  0.00    +0.246 C 
ATOM     22  O   LIG A   1      -7.709  -1.726 131.911  0.00  0.00    -0.270 OA
ATOM     23  O   LIG A   1      -5.005  -4.542 130.462  0.00  0.00    -0.270 OA
ENDBRANCH  14  15
ENDBRANCH   5  13
TORSDOF 5
ENDMDL
MODEL 8
REMARK VINA RESULT:      -6.2     10.372     11.004
REMARK  Name = NuBBE_19
REMARK  8 active torsions:
REMARK  status: ('A' for Active; 'I' for Inactive)
REMARK    1  A    between atoms: C_1  and  O_2
REMARK    2  A    between atoms: O_2  and  C_3
REMARK    3  A    between atoms: C_4  and  O_5
REMARK    4  A    between atoms: O_5  and  C_6
REMARK    5  A    between atoms: C_7  and  O_8
REMARK    6  A    between atoms: O_8  and  C_9
REMARK    7  A    between atoms: C_11  and  C_12
REMARK    8  A    between atoms: C_13  and  C_14
REMARK                            x       y       z     vdW  Elec       q    Type
REMARK                         _______ _______ _______ _____ _____    ______ ____
ROOT
ATOM      1  C   LIG A   1      -4.724  -3.301 131.057  0.00  0.00    +0.166 A 
ATOM      2  C   LIG A   1      -5.293  -3.148 132.339  0.00  0.00    +0.203 A 
ATOM      3  C   LIG A   1      -6.693  -2.980 132.442  0.00  0.00    +0.166 A 
ATOM      4  C   LIG A   1      -7.493  -3.065 131.294  0.00  0.00    +0.057 A 
ATOM      5  C   LIG A   1      -6.936  -3.282 130.035  0.00  0.00    -0.018 A 
ATOM      6  C   LIG A   1      -5.549  -3.373 129.926  0.00  0.00    +0.057 A 
ENDROOT
BRANCH   1   8
ATOM      7  C   LIG A   1      -3.062  -3.529 129.363  0.00  0.00    +0.277 C 
ATOM      8  O   LIG A   1      -3.396  -3.459 130.742  0.00  0.00    -0.491 OA
ENDBRANCH   1   8
BRANCH   2   9
ATOM      9  O   LIG A   1      -4.426  -3.081 133.398  0.00  0.00    -0.488 OA
ATOM     10  C   LIG A   1      -4.099  -4.258 134.126  0.00  0.00    +0.277 C 
ENDBRANCH   2   9
BRANCH   3  11
ATOM     11  O   LIG A   1      -7.223  -2.682 133.672  0.00  0.00    -0.491 OA
ATOM     12  C   LIG A   1      -8.051  -3.652 134.301  0.00  0.00    +0.277 C 
ENDBRANCH   3  11
BRANCH   5  13
ATOM     13  C   LIG A   1      -7.835  -3.336 128.877  0.00  0.00    +0.013 C 
ATOM     14  C   LIG A   1      -7.450  -2.935 127.658  0.00  0.00    +0.068 C 
BRANCH  14  15
ATOM     15  C   LIG A   1      -8.407  -2.947 126.525  0.00  0.00    +0.246 C 
ATOM     16  N   LIG A   1      -7.949  -2.462 125.290  0.00  0.00    -0.235 N 
ATOM     17  C   LIG A   1      -8.960  -2.424 124.235  0.00  0.00    +0.121 C 
ATOM     18  C   LIG A   1      -8.397  -2.566 122.827  0.00  0.00    +0.047 C 
ATOM     19  C   LIG A   1      -7.167  -1.739 122.650  0.00  0.00    -0.020 C 
ATOM     20  C   LIG A   1      -6.439  -1.350 123.700  0.00  0.00    +0.064 C 
ATOM     21  C   LIG A   1      -6.757  -1.760 125.090  0.00  0.00    +0.246 C 
ATOM     22  O   LIG A   1      -5.919  -1.466 125.949  0.00  0.00    -0.270 OA
ATOM     23  O   LIG A   1      -9.555  -3.349 126.710  0.00  0.00    -0.270 OA
ENDBRANCH  14  15
ENDBRANCH   5  13
TORSDOF 5
ENDMDL
MODEL 9
REMARK VINA RESULT:      -6.2      7.004      8.635
REMARK  Name = NuBBE_19
REMARK  8 active torsions:
REMARK  status: ('A' for Active; 'I' for Inactive)
REMARK    1  A    between atoms: C_1  and  O_2
REMARK    2  A    between atoms: O_2  and  C_3
REMARK    3  A    between atoms: C_4  and  O_5
REMARK    4  A    between atoms: O_5  and  C_6
REMARK    5  A    between atoms: C_7  and  O_8
REMARK    6  A    between atoms: O_8  and  C_9
REMARK    7  A    between atoms: C_11  and  C_12
REMARK    8  A    between atoms: C_13  and  C_14
REMARK                            x       y       z     vdW  Elec       q    Type
REMARK                         _______ _______ _______ _____ _____    ______ ____
ROOT
ATOM      1  C   LIG A   1      -8.257  -1.420 126.870  0.00  0.00    +0.166 A 
ATOM      2  C   LIG A   1      -9.094  -1.099 125.781  0.00  0.00    +0.203 A 
ATOM      3  C   LIG A   1      -9.426   0.258 125.562  0.00  0.00    +0.166 A 
ATOM      4  C   LIG A   1      -8.849   1.257 126.359  0.00  0.00    +0.057 A 
ATOM      5  C   LIG A   1      -7.971   0.942 127.394  0.00  0.00    -0.018 A 
ATOM      6  C   LIG A   1      -7.702  -0.401 127.657  0.00  0.00    +0.057 A 
ENDROOT
BRANCH   1   8
ATOM      7  C   LIG A   1      -7.999  -3.007 128.632  0.00  0.00    +0.277 C 
ATOM      8  O   LIG A   1      -7.833  -2.668 127.261  0.00  0.00    -0.491 OA
ENDBRANCH   1   8
BRANCH   2   9
ATOM      9  O   LIG A   1      -9.604  -2.145 125.060  0.00  0.00    -0.488 OA
ATOM     10  C   LIG A   1      -8.939  -2.592 123.884  0.00  0.00    +0.277 C 
ENDBRANCH   2   9
BRANCH   3  11
ATOM     11  O   LIG A   1     -10.357   0.552 124.597  0.00  0.00    -0.491 OA
ATOM     12  C   LIG A   1      -9.914   1.192 123.407  0.00  0.00    +0.277 C 
ENDBRANCH   3  11
BRANCH   5  13
ATOM     13  C   LIG A   1      -7.424   2.039 128.200  0.00  0.00    +0.013 C 
ATOM     14  C   LIG A   1      -8.052   3.217 128.319  0.00  0.00    +0.068 C 
BRANCH  14  15
ATOM     15  C   LIG A   1      -7.438   4.322 129.093  0.00  0.00    +0.246 C 
ATOM     16  N   LIG A   1      -8.182   4.855 130.157  0.00  0.00    -0.235 N 
ATOM     17  C   LIG A   1      -7.558   5.994 130.829  0.00  0.00    +0.121 C 
ATOM     18  C   LIG A   1      -7.947   6.141 132.295  0.00  0.00    +0.047 C 
ATOM     19  C   LIG A   1      -9.411   5.926 132.491  0.00  0.00    -0.020 C 
ATOM     20  C   LIG A   1     -10.134   5.240 131.601  0.00  0.00    +0.064 C 
ATOM     21  C   LIG A   1      -9.532   4.597 130.407  0.00  0.00    +0.246 C 
ATOM     22  O   LIG A   1     -10.278   3.862 129.752  0.00  0.00    -0.270 OA
ATOM     23  O   LIG A   1      -6.330   4.745 128.764  0.00  0.00    -0.270 OA
ENDBRANCH  14  15
ENDBRANCH   5  13
TORSDOF 5
ENDMDL
