MODEL 1
REMARK VINA RESULT:      -6.8      0.000      0.000
REMARK  Name = NuBBE_1161
REMARK  3 active torsions:
REMARK  status: ('A' for Active; 'I' for Inactive)
REMARK    1  A    between atoms: C_1  and  C_2
REMARK    2  A    between atoms: C_2  and  C_3
REMARK    3  A    between atoms: C_16  and  C_18
REMARK                            x       y       z     vdW  Elec       q    Type
REMARK                         _______ _______ _______ _____ _____    ______ ____
ROOT
ATOM      1  C   LIG A   1      -9.645  -3.311 123.625  0.00  0.00    +0.011 C 
ATOM      2  C   LIG A   1      -8.670  -3.074 124.761  0.00  0.00    -0.028 C 
ATOM      3  C   LIG A   1      -7.355  -3.758 124.479  0.00  0.00    +0.011 C 
ATOM      4  C   LIG A   1      -8.648  -1.796 125.623  0.00  0.00    +0.002 C 
ATOM      5  C   LIG A   1      -9.395  -3.020 126.106  0.00  0.00    -0.001 C 
ATOM      6  C   LIG A   1      -9.031  -4.050 127.121  0.00  0.00    +0.009 C 
ATOM      7  C   LIG A   1      -8.720  -3.536 128.523  0.00  0.00    +0.031 C 
ATOM      8  C   LIG A   1      -7.573  -2.558 128.713  0.00  0.00    -0.073 C 
ATOM      9  C   LIG A   1      -7.304  -2.174 129.962  0.00  0.00    +0.008 C 
ATOM     10  C   LIG A   1      -6.795  -2.131 127.468  0.00  0.00    +0.018 C 
ATOM     11  C   LIG A   1      -7.610  -1.196 126.546  0.00  0.00    +0.003 C 
ATOM     12  C   LIG A   1      -6.597  -0.247 125.870  0.00  0.00    -0.010 C 
ATOM     13  C   LIG A   1      -5.987  -0.709 124.551  0.00  0.00    +0.008 C 
ATOM     14  C   LIG A   1      -5.522  -0.076 126.945  0.00  0.00    +0.004 C 
ATOM     15  C   LIG A   1      -5.435  -1.420 127.660  0.00  0.00    +0.008 C 
ENDROOT
TORSDOF 0
ENDMDL
MODEL 2
REMARK VINA RESULT:      -6.4      1.216      3.823
REMARK  Name = NuBBE_1161
REMARK  3 active torsions:
REMARK  status: ('A' for Active; 'I' for Inactive)
REMARK    1  A    between atoms: C_1  and  C_2
REMARK    2  A    between atoms: C_2  and  C_3
REMARK    3  A    between atoms: C_16  and  C_18
REMARK                            x       y       z     vdW  Elec       q    Type
REMARK                         _______ _______ _______ _____ _____    ______ ____
ROOT
ATOM      1  C   LIG A   1      -4.887   1.126 126.232  0.00  0.00    +0.011 C 
ATOM      2  C   LIG A   1      -6.053   0.159 126.230  0.00  0.00    -0.028 C 
ATOM      3  C   LIG A   1      -7.292   0.828 125.686  0.00  0.00    +0.011 C 
ATOM      4  C   LIG A   1      -5.910  -1.363 126.031  0.00  0.00    +0.002 C 
ATOM      5  C   LIG A   1      -5.986  -0.788 127.429  0.00  0.00    -0.001 C 
ATOM      6  C   LIG A   1      -7.112  -0.737 128.404  0.00  0.00    +0.009 C 
ATOM      7  C   LIG A   1      -7.732  -2.077 128.790  0.00  0.00    +0.031 C 
ATOM      8  C   LIG A   1      -8.357  -2.940 127.707  0.00  0.00    -0.073 C 
ATOM      9  C   LIG A   1      -8.933  -4.079 128.095  0.00  0.00    +0.008 C 
ATOM     10  C   LIG A   1      -8.316  -2.413 126.272  0.00  0.00    +0.018 C 
ATOM     11  C   LIG A   1      -6.896  -2.450 125.663  0.00  0.00    +0.003 C 
ATOM     12  C   LIG A   1      -7.070  -2.697 124.149  0.00  0.00    -0.010 C 
ATOM     13  C   LIG A   1      -7.217  -1.469 123.258  0.00  0.00    +0.008 C 
ATOM     14  C   LIG A   1      -8.321  -3.575 124.089  0.00  0.00    +0.004 C 
ATOM     15  C   LIG A   1      -9.224  -3.086 125.217  0.00  0.00    +0.008 C 
ENDROOT
TORSDOF 0
ENDMDL
MODEL 3
REMARK VINA RESULT:      -6.2      2.373      3.936
REMARK  Name = NuBBE_1161
REMARK  3 active torsions:
REMARK  status: ('A' for Active; 'I' for Inactive)
REMARK    1  A    between atoms: C_1  and  C_2
REMARK    2  A    between atoms: C_2  and  C_3
REMARK    3  A    between atoms: C_16  and  C_18
REMARK                            x       y       z     vdW  Elec       q    Type
REMARK                         _______ _______ _______ _____ _____    ______ ____
ROOT
ATOM      1  C   LIG A   1      -9.371  -3.494 124.021  0.00  0.00    +0.011 C 
ATOM      2  C   LIG A   1      -8.596  -2.193 123.982  0.00  0.00    -0.028 C 
ATOM      3  C   LIG A   1      -8.137  -1.895 122.576  0.00  0.00    +0.011 C 
ATOM      4  C   LIG A   1      -8.870  -0.999 124.919  0.00  0.00    +0.002 C 
ATOM      5  C   LIG A   1      -7.784  -1.997 125.263  0.00  0.00    -0.001 C 
ATOM      6  C   LIG A   1      -6.301  -1.912 125.126  0.00  0.00    +0.009 C 
ATOM      7  C   LIG A   1      -5.624  -0.744 125.837  0.00  0.00    +0.031 C 
ATOM      8  C   LIG A   1      -6.007   0.675 125.453  0.00  0.00    -0.073 C 
ATOM      9  C   LIG A   1      -5.353   1.665 126.062  0.00  0.00    +0.008 C 
ATOM     10  C   LIG A   1      -7.075   0.851 124.372  0.00  0.00    +0.018 C 
ATOM     11  C   LIG A   1      -8.488   0.463 124.860  0.00  0.00    +0.003 C 
ATOM     12  C   LIG A   1      -9.482   1.374 124.108  0.00  0.00    -0.010 C 
ATOM     13  C   LIG A   1     -10.009   0.868 122.770  0.00  0.00    +0.008 C 
ATOM     14  C   LIG A   1      -8.691   2.671 123.935  0.00  0.00    +0.004 C 
ATOM     15  C   LIG A   1      -7.241   2.246 123.726  0.00  0.00    +0.008 C 
ENDROOT
TORSDOF 0
ENDMDL
MODEL 4
REMARK VINA RESULT:      -6.2      1.718      4.964
REMARK  Name = NuBBE_1161
REMARK  3 active torsions:
REMARK  status: ('A' for Active; 'I' for Inactive)
REMARK    1  A    between atoms: C_1  and  C_2
REMARK    2  A    between atoms: C_2  and  C_3
REMARK    3  A    between atoms: C_16  and  C_18
REMARK                            x       y       z     vdW  Elec       q    Type
REMARK                         _______ _______ _______ _____ _____    ______ ____
ROOT
ATOM      1  C   LIG A   1      -5.405  -1.772 127.671  0.00  0.00    +0.011 C 
ATOM      2  C   LIG A   1      -6.159  -1.593 126.369  0.00  0.00    -0.028 C 
ATOM      3  C   LIG A   1      -5.356  -2.141 125.215  0.00  0.00    +0.011 C 
ATOM      4  C   LIG A   1      -7.697  -1.620 126.254  0.00  0.00    +0.002 C 
ATOM      5  C   LIG A   1      -6.971  -0.298 126.377  0.00  0.00    -0.001 C 
ATOM      6  C   LIG A   1      -6.630   0.728 125.349  0.00  0.00    +0.009 C 
ATOM      7  C   LIG A   1      -7.800   1.304 124.556  0.00  0.00    +0.031 C 
ATOM      8  C   LIG A   1      -8.657   0.367 123.722  0.00  0.00    -0.073 C 
ATOM      9  C   LIG A   1      -9.636   0.919 123.003  0.00  0.00    +0.008 C 
ATOM     10  C   LIG A   1      -8.300  -1.121 123.737  0.00  0.00    +0.018 C 
ATOM     11  C   LIG A   1      -8.637  -1.801 125.083  0.00  0.00    +0.003 C 
ATOM     12  C   LIG A   1      -9.012  -3.263 124.758  0.00  0.00    -0.010 C 
ATOM     13  C   LIG A   1      -7.879  -4.282 124.741  0.00  0.00    +0.008 C 
ATOM     14  C   LIG A   1      -9.671  -3.147 123.383  0.00  0.00    +0.004 C 
ATOM     15  C   LIG A   1      -8.922  -2.036 122.657  0.00  0.00    +0.008 C 
ENDROOT
TORSDOF 0
ENDMDL
MODEL 5
REMARK VINA RESULT:      -6.1      2.354      4.314
REMARK  Name = NuBBE_1161
REMARK  3 active torsions:
REMARK  status: ('A' for Active; 'I' for Inactive)
REMARK    1  A    between atoms: C_1  and  C_2
REMARK    2  A    between atoms: C_2  and  C_3
REMARK    3  A    between atoms: C_16  and  C_18
REMARK                            x       y       z     vdW  Elec       q    Type
REMARK                         _______ _______ _______ _____ _____    ______ ____
ROOT
ATOM      1  C   LIG A   1      -5.234  -3.571 123.982  0.00  0.00    +0.011 C 
ATOM      2  C   LIG A   1      -6.276  -2.520 124.305  0.00  0.00    -0.028 C 
ATOM      3  C   LIG A   1      -6.847  -2.750 125.683  0.00  0.00    +0.011 C 
ATOM      4  C   LIG A   1      -6.233  -1.072 123.776  0.00  0.00    +0.002 C 
ATOM      5  C   LIG A   1      -7.057  -2.117 123.055  0.00  0.00    -0.001 C 
ATOM      6  C   LIG A   1      -8.527  -2.372 123.055  0.00  0.00    +0.009 C 
ATOM      7  C   LIG A   1      -9.415  -1.203 122.635  0.00  0.00    +0.031 C 
ATOM      8  C   LIG A   1      -9.368   0.084 123.440  0.00  0.00    -0.073 C 
ATOM      9  C   LIG A   1     -10.198   1.061 123.071  0.00  0.00    +0.008 C 
ATOM     10  C   LIG A   1      -8.411   0.139 124.632  0.00  0.00    +0.018 C 
ATOM     11  C   LIG A   1      -6.928   0.200 124.204  0.00  0.00    +0.003 C 
ATOM     12  C   LIG A   1      -6.190   1.024 125.282  0.00  0.00    -0.010 C 
ATOM     13  C   LIG A   1      -5.621   0.259 126.470  0.00  0.00    +0.008 C 
ATOM     14  C   LIG A   1      -7.253   2.028 125.730  0.00  0.00    +0.004 C 
ATOM     15  C   LIG A   1      -8.582   1.283 125.658  0.00  0.00    +0.008 C 
ENDROOT
TORSDOF 0
ENDMDL
MODEL 6
REMARK VINA RESULT:      -6.1      0.947      4.003
REMARK  Name = NuBBE_1161
REMARK  3 active torsions:
REMARK  status: ('A' for Active; 'I' for Inactive)
REMARK    1  A    between atoms: C_1  and  C_2
REMARK    2  A    between atoms: C_2  and  C_3
REMARK    3  A    between atoms: C_16  and  C_18
REMARK                            x       y       z     vdW  Elec       q    Type
REMARK                         _______ _______ _______ _____ _____    ______ ____
ROOT
ATOM      1  C   LIG A   1      -6.332  -2.119 131.271  0.00  0.00    +0.011 C 
ATOM      2  C   LIG A   1      -6.880  -1.909 129.874  0.00  0.00    -0.028 C 
ATOM      3  C   LIG A   1      -7.677  -0.629 129.807  0.00  0.00    +0.011 C 
ATOM      4  C   LIG A   1      -6.171  -2.386 128.590  0.00  0.00    +0.002 C 
ATOM      5  C   LIG A   1      -7.248  -3.242 129.222  0.00  0.00    -0.001 C 
ATOM      6  C   LIG A   1      -8.676  -3.449 128.847  0.00  0.00    +0.009 C 
ATOM      7  C   LIG A   1      -8.936  -3.951 127.429  0.00  0.00    +0.031 C 
ATOM      8  C   LIG A   1      -8.471  -3.110 126.253  0.00  0.00    -0.073 C 
ATOM      9  C   LIG A   1      -8.765  -3.560 125.032  0.00  0.00    +0.008 C 
ATOM     10  C   LIG A   1      -7.749  -1.798 126.563  0.00  0.00    +0.018 C 
ATOM     11  C   LIG A   1      -6.329  -2.019 127.132  0.00  0.00    +0.003 C 
ATOM     12  C   LIG A   1      -5.471  -0.827 126.655  0.00  0.00    -0.010 C 
ATOM     13  C   LIG A   1      -5.436   0.405 127.551  0.00  0.00    +0.008 C 
ATOM     14  C   LIG A   1      -6.075  -0.499 125.289  0.00  0.00    +0.004 C 
ATOM     15  C   LIG A   1      -7.569  -0.771 125.420  0.00  0.00    +0.008 C 
ENDROOT
TORSDOF 0
ENDMDL
MODEL 7
REMARK VINA RESULT:      -6.0      1.671      4.228
REMARK  Name = NuBBE_1161
REMARK  3 active torsions:
REMARK  status: ('A' for Active; 'I' for Inactive)
REMARK    1  A    between atoms: C_1  and  C_2
REMARK    2  A    between atoms: C_2  and  C_3
REMARK    3  A    between atoms: C_16  and  C_18
REMARK                            x       y       z     vdW  Elec       q    Type
REMARK                         _______ _______ _______ _____ _____    ______ ____
ROOT
ATOM      1  C   LIG A   1      -5.177  -4.508 124.022  0.00  0.00    +0.011 C 
ATOM      2  C   LIG A   1      -6.081  -3.341 124.363  0.00  0.00    -0.028 C 
ATOM      3  C   LIG A   1      -7.504  -3.811 124.543  0.00  0.00    +0.011 C 
ATOM      4  C   LIG A   1      -5.625  -2.102 125.160  0.00  0.00    +0.002 C 
ATOM      5  C   LIG A   1      -5.629  -2.068 123.647  0.00  0.00    -0.001 C 
ATOM      6  C   LIG A   1      -6.587  -1.446 122.687  0.00  0.00    +0.009 C 
ATOM      7  C   LIG A   1      -6.823   0.053 122.845  0.00  0.00    +0.031 C 
ATOM      8  C   LIG A   1      -7.383   0.577 124.157  0.00  0.00    -0.073 C 
ATOM      9  C   LIG A   1      -7.623   1.887 124.233  0.00  0.00    +0.008 C 
ATOM     10  C   LIG A   1      -7.668  -0.441 125.261  0.00  0.00    +0.018 C 
ATOM     11  C   LIG A   1      -6.379  -1.015 125.891  0.00  0.00    +0.003 C 
ATOM     12  C   LIG A   1      -6.706  -1.318 127.369  0.00  0.00    -0.010 C 
ATOM     13  C   LIG A   1      -7.255  -2.704 127.688  0.00  0.00    +0.008 C 
ATOM     14  C   LIG A   1      -7.719  -0.229 127.724  0.00  0.00    +0.004 C 
ATOM     15  C   LIG A   1      -8.540   0.001 126.460  0.00  0.00    +0.008 C 
ENDROOT
TORSDOF 0
ENDMDL
MODEL 8
REMARK VINA RESULT:      -5.7      1.907      4.236
REMARK  Name = NuBBE_1161
REMARK  3 active torsions:
REMARK  status: ('A' for Active; 'I' for Inactive)
REMARK    1  A    between atoms: C_1  and  C_2
REMARK    2  A    between atoms: C_2  and  C_3
REMARK    3  A    between atoms: C_16  and  C_18
REMARK                            x       y       z     vdW  Elec       q    Type
REMARK                         _______ _______ _______ _____ _____    ______ ____
ROOT
ATOM      1  C   LIG A   1      -8.209   2.309 122.860  0.00  0.00    +0.011 C 
ATOM      2  C   LIG A   1      -8.085   1.144 123.821  0.00  0.00    -0.028 C 
ATOM      3  C   LIG A   1      -9.408   0.873 124.494  0.00  0.00    +0.011 C 
ATOM      4  C   LIG A   1      -7.125  -0.045 123.614  0.00  0.00    +0.002 C 
ATOM      5  C   LIG A   1      -6.708   1.121 124.484  0.00  0.00    -0.001 C 
ATOM      6  C   LIG A   1      -6.661   1.264 125.968  0.00  0.00    +0.009 C 
ATOM      7  C   LIG A   1      -5.813   0.241 126.718  0.00  0.00    +0.031 C 
ATOM      8  C   LIG A   1      -6.163  -1.232 126.605  0.00  0.00    -0.073 C 
ATOM      9  C   LIG A   1      -5.428  -2.087 127.318  0.00  0.00    +0.008 C 
ATOM     10  C   LIG A   1      -7.353  -1.610 125.722  0.00  0.00    +0.018 C 
ATOM     11  C   LIG A   1      -7.059  -1.431 124.215  0.00  0.00    +0.003 C 
ATOM     12  C   LIG A   1      -7.876  -2.511 123.474  0.00  0.00    -0.010 C 
ATOM     13  C   LIG A   1      -9.293  -2.140 123.051  0.00  0.00    +0.008 C 
ATOM     14  C   LIG A   1      -7.883  -3.674 124.467  0.00  0.00    +0.004 C 
ATOM     15  C   LIG A   1      -7.939  -3.036 125.851  0.00  0.00    +0.008 C 
ENDROOT
TORSDOF 0
ENDMDL
MODEL 9
REMARK VINA RESULT:      -5.7      1.321      4.813
REMARK  Name = NuBBE_1161
REMARK  3 active torsions:
REMARK  status: ('A' for Active; 'I' for Inactive)
REMARK    1  A    between atoms: C_1  and  C_2
REMARK    2  A    between atoms: C_2  and  C_3
REMARK    3  A    between atoms: C_16  and  C_18
REMARK                            x       y       z     vdW  Elec       q    Type
REMARK                         _______ _______ _______ _____ _____    ______ ____
ROOT
ATOM      1  C   LIG A   1      -7.950   0.381 129.323  0.00  0.00    +0.011 C 
ATOM      2  C   LIG A   1      -7.548  -0.407 128.094  0.00  0.00    -0.028 C 
ATOM      3  C   LIG A   1      -6.542  -1.472 128.456  0.00  0.00    +0.011 C 
ATOM      4  C   LIG A   1      -8.486  -0.678 126.900  0.00  0.00    +0.002 C 
ATOM      5  C   LIG A   1      -7.518   0.485 126.853  0.00  0.00    -0.001 C 
ATOM      6  C   LIG A   1      -6.210   0.640 126.153  0.00  0.00    +0.009 C 
ATOM      7  C   LIG A   1      -6.224   0.431 124.642  0.00  0.00    +0.031 C 
ATOM      8  C   LIG A   1      -6.665  -0.913 124.087  0.00  0.00    -0.073 C 
ATOM      9  C   LIG A   1      -6.613  -1.070 122.763  0.00  0.00    +0.008 C 
ATOM     10  C   LIG A   1      -7.087  -1.988 125.090  0.00  0.00    +0.018 C 
ATOM     11  C   LIG A   1      -8.442  -1.676 125.764  0.00  0.00    +0.003 C 
ATOM     12  C   LIG A   1      -9.116  -3.035 126.054  0.00  0.00    -0.010 C 
ATOM     13  C   LIG A   1      -8.810  -3.687 127.397  0.00  0.00    +0.008 C 
ATOM     14  C   LIG A   1      -8.634  -3.907 124.894  0.00  0.00    +0.004 C 
ATOM     15  C   LIG A   1      -7.212  -3.447 124.593  0.00  0.00    +0.008 C 
ENDROOT
TORSDOF 0
ENDMDL
