MODEL 1
REMARK VINA RESULT:      -6.8      0.000      0.000
REMARK  Name = NuBBE_2291
REMARK  5 active torsions:
REMARK  status: ('A' for Active; 'I' for Inactive)
REMARK    1  A    between atoms: C_1  and  C_2
REMARK    2  A    between atoms: C_6  and  O_19
REMARK    3  A    between atoms: C_7  and  C_9
REMARK    4  A    between atoms: C_16  and  C_17
REMARK    5  A    between atoms: C_16  and  C_18
REMARK                            x       y       z     vdW  Elec       q    Type
REMARK                         _______ _______ _______ _____ _____    ______ ____
ROOT
ATOM      1  C   LIG A   1      -6.729  -2.061 129.130  0.00  0.00    +0.008 C 
ATOM      2  C   LIG A   1      -7.859  -2.077 128.094  0.00  0.00    -0.008 C 
ATOM      3  C   LIG A   1      -7.356  -1.955 126.617  0.00  0.00    +0.028 C 
ATOM      4  C   LIG A   1      -8.462  -2.732 125.844  0.00  0.00    +0.072 C 
ATOM      5  C   LIG A   1      -8.151  -3.274 124.412  0.00  0.00    +0.018 C 
ATOM      6  C   LIG A   1      -9.388  -3.221 123.500  0.00  0.00    +0.010 C 
ATOM      7  C   LIG A   1      -6.902  -2.725 123.714  0.00  0.00    +0.006 C 
ATOM      8  C   LIG A   1      -6.748  -1.218 123.703  0.00  0.00    +0.005 C 
ATOM      9  C   LIG A   1      -6.192  -0.705 125.013  0.00  0.00    -0.001 C 
ATOM     10  C   LIG A   1      -7.234  -0.488 126.107  0.00  0.00    +0.005 C 
ATOM     11  C   LIG A   1      -6.319   0.684 125.402  0.00  0.00    -0.028 C 
ATOM     12  C   LIG A   1      -5.303   1.361 126.310  0.00  0.00    +0.011 C 
ATOM     13  C   LIG A   1      -6.730   1.592 124.249  0.00  0.00    +0.011 C 
ATOM     14  C   LIG A   1      -8.743  -3.933 126.765  0.00  0.00    +0.035 C 
ATOM     15  C   LIG A   1      -8.641  -3.396 128.184  0.00  0.00    +0.006 C 
ENDROOT
BRANCH   4  16
ATOM     16  O   LIG A   1      -9.662  -1.944 125.841  0.00  0.00    -0.388 OA
ATOM     17  H   LIG A   1     -10.116  -2.101 126.687  0.00  0.00    +0.210 HD
ENDBRANCH   4  16
TORSDOF 1
ENDMDL
MODEL 2
REMARK VINA RESULT:      -6.5      2.083      3.341
REMARK  Name = NuBBE_2291
REMARK  5 active torsions:
REMARK  status: ('A' for Active; 'I' for Inactive)
REMARK    1  A    between atoms: C_1  and  C_2
REMARK    2  A    between atoms: C_6  and  O_19
REMARK    3  A    between atoms: C_7  and  C_9
REMARK    4  A    between atoms: C_16  and  C_17
REMARK    5  A    between atoms: C_16  and  C_18
REMARK                            x       y       z     vdW  Elec       q    Type
REMARK                         _______ _______ _______ _____ _____    ______ ____
ROOT
ATOM      1  C   LIG A   1      -4.571  -2.941 128.460  0.00  0.00    +0.008 C 
ATOM      2  C   LIG A   1      -5.302  -1.747 127.836  0.00  0.00    -0.008 C 
ATOM      3  C   LIG A   1      -6.312  -2.150 126.711  0.00  0.00    +0.028 C 
ATOM      4  C   LIG A   1      -7.372  -1.015 126.820  0.00  0.00    +0.072 C 
ATOM      5  C   LIG A   1      -8.798  -1.245 126.222  0.00  0.00    +0.018 C 
ATOM      6  C   LIG A   1      -9.388   0.050 125.639  0.00  0.00    +0.010 C 
ATOM      7  C   LIG A   1      -8.971  -2.432 125.270  0.00  0.00    +0.006 C 
ATOM      8  C   LIG A   1      -7.955  -2.550 124.152  0.00  0.00    +0.005 C 
ATOM      9  C   LIG A   1      -6.666  -3.178 124.636  0.00  0.00    -0.001 C 
ATOM     10  C   LIG A   1      -5.686  -2.204 125.286  0.00  0.00    +0.005 C 
ATOM     11  C   LIG A   1      -5.429  -3.043 123.893  0.00  0.00    -0.028 C 
ATOM     12  C   LIG A   1      -4.336  -4.100 123.955  0.00  0.00    +0.011 C 
ATOM     13  C   LIG A   1      -5.638  -2.537 122.472  0.00  0.00    +0.011 C 
ATOM     14  C   LIG A   1      -7.512  -0.822 128.341  0.00  0.00    +0.035 C 
ATOM     15  C   LIG A   1      -6.113  -1.003 128.908  0.00  0.00    +0.006 C 
ENDROOT
BRANCH   4  16
ATOM     16  O   LIG A   1      -6.798   0.201 126.316  0.00  0.00    -0.388 OA
ATOM     17  H   LIG A   1      -6.260  -0.031 125.540  0.00  0.00    +0.210 HD
ENDBRANCH   4  16
TORSDOF 1
ENDMDL
MODEL 3
REMARK VINA RESULT:      -6.4      1.620      3.870
REMARK  Name = NuBBE_2291
REMARK  5 active torsions:
REMARK  status: ('A' for Active; 'I' for Inactive)
REMARK    1  A    between atoms: C_1  and  C_2
REMARK    2  A    between atoms: C_6  and  O_19
REMARK    3  A    between atoms: C_7  and  C_9
REMARK    4  A    between atoms: C_16  and  C_17
REMARK    5  A    between atoms: C_16  and  C_18
REMARK                            x       y       z     vdW  Elec       q    Type
REMARK                         _______ _______ _______ _____ _____    ______ ____
ROOT
ATOM      1  C   LIG A   1      -9.761  -4.307 128.139  0.00  0.00    +0.008 C 
ATOM      2  C   LIG A   1      -8.403  -3.599 128.064  0.00  0.00    -0.008 C 
ATOM      3  C   LIG A   1      -8.408  -2.329 127.151  0.00  0.00    +0.028 C 
ATOM      4  C   LIG A   1      -7.307  -1.455 127.822  0.00  0.00    +0.072 C 
ATOM      5  C   LIG A   1      -7.283   0.083 127.547  0.00  0.00    +0.018 C 
ATOM      6  C   LIG A   1      -5.848   0.633 127.503  0.00  0.00    +0.010 C 
ATOM      7  C   LIG A   1      -8.128   0.594 126.375  0.00  0.00    +0.006 C 
ATOM      8  C   LIG A   1      -7.958  -0.133 125.057  0.00  0.00    +0.005 C 
ATOM      9  C   LIG A   1      -8.760  -1.416 125.022  0.00  0.00    -0.001 C 
ATOM     10  C   LIG A   1      -8.069  -2.619 125.658  0.00  0.00    +0.005 C 
ATOM     11  C   LIG A   1      -8.472  -2.468 124.069  0.00  0.00    -0.028 C 
ATOM     12  C   LIG A   1      -9.549  -3.419 123.571  0.00  0.00    +0.011 C 
ATOM     13  C   LIG A   1      -7.560  -2.014 122.937  0.00  0.00    +0.011 C 
ATOM     14  C   LIG A   1      -7.565  -1.674 129.324  0.00  0.00    +0.035 C 
ATOM     15  C   LIG A   1      -7.971  -3.132 129.463  0.00  0.00    +0.006 C 
ENDROOT
BRANCH   4  16
ATOM     16  O   LIG A   1      -6.025  -2.042 127.549  0.00  0.00    -0.388 OA
ATOM     17  H   LIG A   1      -6.029  -2.938 127.925  0.00  0.00    +0.210 HD
ENDBRANCH   4  16
TORSDOF 1
ENDMDL
MODEL 4
REMARK VINA RESULT:      -6.2      1.398      4.640
REMARK  Name = NuBBE_2291
REMARK  5 active torsions:
REMARK  status: ('A' for Active; 'I' for Inactive)
REMARK    1  A    between atoms: C_1  and  C_2
REMARK    2  A    between atoms: C_6  and  O_19
REMARK    3  A    between atoms: C_7  and  C_9
REMARK    4  A    between atoms: C_16  and  C_17
REMARK    5  A    between atoms: C_16  and  C_18
REMARK                            x       y       z     vdW  Elec       q    Type
REMARK                         _______ _______ _______ _____ _____    ______ ____
ROOT
ATOM      1  C   LIG A   1      -9.390  -3.291 123.594  0.00  0.00    +0.008 C 
ATOM      2  C   LIG A   1      -9.119  -1.876 124.119  0.00  0.00    -0.008 C 
ATOM      3  C   LIG A   1      -7.949  -1.806 125.155  0.00  0.00    +0.028 C 
ATOM      4  C   LIG A   1      -7.408  -0.365 124.920  0.00  0.00    +0.072 C 
ATOM      5  C   LIG A   1      -5.960  -0.010 125.390  0.00  0.00    +0.018 C 
ATOM      6  C   LIG A   1      -5.860   1.443 125.884  0.00  0.00    +0.010 C 
ATOM      7  C   LIG A   1      -5.279  -0.989 126.351  0.00  0.00    +0.006 C 
ATOM      8  C   LIG A   1      -6.088  -1.413 127.560  0.00  0.00    +0.005 C 
ATOM      9  C   LIG A   1      -7.076  -2.505 127.213  0.00  0.00    -0.001 C 
ATOM     10  C   LIG A   1      -8.398  -2.008 126.633  0.00  0.00    +0.005 C 
ATOM     11  C   LIG A   1      -8.212  -2.801 128.063  0.00  0.00    -0.028 C 
ATOM     12  C   LIG A   1      -8.826  -4.191 128.129  0.00  0.00    +0.011 C 
ATOM     13  C   LIG A   1      -8.102  -2.172 129.447  0.00  0.00    +0.011 C 
ATOM     14  C   LIG A   1      -7.468  -0.222 123.388  0.00  0.00    +0.035 C 
ATOM     15  C   LIG A   1      -8.734  -0.946 122.958  0.00  0.00    +0.006 C 
ENDROOT
BRANCH   4  16
ATOM     16  O   LIG A   1      -8.358   0.575 125.445  0.00  0.00    -0.388 OA
ATOM     17  H   LIG A   1      -9.247   0.215 125.276  0.00  0.00    +0.210 HD
ENDBRANCH   4  16
TORSDOF 1
ENDMDL
MODEL 5
REMARK VINA RESULT:      -6.1      1.803      4.354
REMARK  Name = NuBBE_2291
REMARK  5 active torsions:
REMARK  status: ('A' for Active; 'I' for Inactive)
REMARK    1  A    between atoms: C_1  and  C_2
REMARK    2  A    between atoms: C_6  and  O_19
REMARK    3  A    between atoms: C_7  and  C_9
REMARK    4  A    between atoms: C_16  and  C_17
REMARK    5  A    between atoms: C_16  and  C_18
REMARK                            x       y       z     vdW  Elec       q    Type
REMARK                         _______ _______ _______ _____ _____    ______ ____
ROOT
ATOM      1  C   LIG A   1      -8.244   1.463 128.439  0.00  0.00    +0.008 C 
ATOM      2  C   LIG A   1      -7.655   0.457 127.443  0.00  0.00    -0.008 C 
ATOM      3  C   LIG A   1      -8.127  -1.015 127.687  0.00  0.00    +0.028 C 
ATOM      4  C   LIG A   1      -8.068  -1.606 126.247  0.00  0.00    +0.072 C 
ATOM      5  C   LIG A   1      -8.888  -2.896 125.921  0.00  0.00    +0.018 C 
ATOM      6  C   LIG A   1      -8.158  -3.794 124.908  0.00  0.00    +0.010 C 
ATOM      7  C   LIG A   1      -9.430  -3.697 127.109  0.00  0.00    +0.006 C 
ATOM      8  C   LIG A   1      -8.440  -4.020 128.208  0.00  0.00    +0.005 C 
ATOM      9  C   LIG A   1      -8.241  -2.847 129.142  0.00  0.00    -0.001 C 
ATOM     10  C   LIG A   1      -7.219  -1.818 128.666  0.00  0.00    +0.005 C 
ATOM     11  C   LIG A   1      -7.087  -2.755 130.013  0.00  0.00    -0.028 C 
ATOM     12  C   LIG A   1      -7.138  -2.011 131.339  0.00  0.00    +0.011 C 
ATOM     13  C   LIG A   1      -6.327  -4.069 130.138  0.00  0.00    +0.011 C 
ATOM     14  C   LIG A   1      -8.614  -0.455 125.383  0.00  0.00    +0.035 C 
ATOM     15  C   LIG A   1      -8.076   0.821 126.011  0.00  0.00    +0.006 C 
ENDROOT
BRANCH   4  16
ATOM     16  O   LIG A   1      -6.692  -1.767 125.873  0.00  0.00    -0.388 OA
ATOM     17  H   LIG A   1      -6.639  -2.541 125.285  0.00  0.00    +0.210 HD
ENDBRANCH   4  16
TORSDOF 1
ENDMDL
MODEL 6
REMARK VINA RESULT:      -5.9      3.082      5.801
REMARK  Name = NuBBE_2291
REMARK  5 active torsions:
REMARK  status: ('A' for Active; 'I' for Inactive)
REMARK    1  A    between atoms: C_1  and  C_2
REMARK    2  A    between atoms: C_6  and  O_19
REMARK    3  A    between atoms: C_7  and  C_9
REMARK    4  A    between atoms: C_16  and  C_17
REMARK    5  A    between atoms: C_16  and  C_18
REMARK                            x       y       z     vdW  Elec       q    Type
REMARK                         _______ _______ _______ _____ _____    ______ ____
ROOT
ATOM      1  C   LIG A   1      -5.587  -5.247 131.055  0.00  0.00    +0.008 C 
ATOM      2  C   LIG A   1      -4.905  -4.071 130.346  0.00  0.00    -0.008 C 
ATOM      3  C   LIG A   1      -5.850  -2.845 130.118  0.00  0.00    +0.028 C 
ATOM      4  C   LIG A   1      -4.839  -1.661 130.145  0.00  0.00    +0.072 C 
ATOM      5  C   LIG A   1      -5.366  -0.216 130.425  0.00  0.00    +0.018 C 
ATOM      6  C   LIG A   1      -4.575   0.842 129.639  0.00  0.00    +0.010 C 
ATOM      7  C   LIG A   1      -6.878   0.006 130.322  0.00  0.00    +0.006 C 
ATOM      8  C   LIG A   1      -7.550  -0.518 129.069  0.00  0.00    +0.005 C 
ATOM      9  C   LIG A   1      -7.816  -2.004 129.160  0.00  0.00    -0.001 C 
ATOM     10  C   LIG A   1      -6.633  -2.889 128.772  0.00  0.00    +0.005 C 
ATOM     11  C   LIG A   1      -8.074  -2.804 127.980  0.00  0.00    -0.028 C 
ATOM     12  C   LIG A   1      -8.928  -4.062 128.033  0.00  0.00    +0.011 C 
ATOM     13  C   LIG A   1      -8.389  -1.966 126.748  0.00  0.00    +0.011 C 
ATOM     14  C   LIG A   1      -3.881  -2.055 131.284  0.00  0.00    +0.035 C 
ATOM     15  C   LIG A   1      -3.721  -3.563 131.183  0.00  0.00    +0.006 C 
ENDROOT
BRANCH   4  16
ATOM     16  O   LIG A   1      -4.059  -1.694 128.940  0.00  0.00    -0.388 OA
ATOM     17  H   LIG A   1      -3.233  -2.168 129.141  0.00  0.00    +0.210 HD
ENDBRANCH   4  16
TORSDOF 1
ENDMDL
MODEL 7
REMARK VINA RESULT:      -5.8      1.733      2.943
REMARK  Name = NuBBE_2291
REMARK  5 active torsions:
REMARK  status: ('A' for Active; 'I' for Inactive)
REMARK    1  A    between atoms: C_1  and  C_2
REMARK    2  A    between atoms: C_6  and  O_19
REMARK    3  A    between atoms: C_7  and  C_9
REMARK    4  A    between atoms: C_16  and  C_17
REMARK    5  A    between atoms: C_16  and  C_18
REMARK                            x       y       z     vdW  Elec       q    Type
REMARK                         _______ _______ _______ _____ _____    ______ ____
ROOT
ATOM      1  C   LIG A   1      -5.034   1.392 126.224  0.00  0.00    +0.008 C 
ATOM      2  C   LIG A   1      -6.073   0.298 126.499  0.00  0.00    -0.008 C 
ATOM      3  C   LIG A   1      -6.666  -0.343 125.202  0.00  0.00    +0.028 C 
ATOM      4  C   LIG A   1      -7.008  -1.782 125.690  0.00  0.00    +0.072 C 
ATOM      5  C   LIG A   1      -7.186  -2.921 124.635  0.00  0.00    +0.018 C 
ATOM      6  C   LIG A   1      -8.263  -3.932 125.063  0.00  0.00    +0.010 C 
ATOM      7  C   LIG A   1      -7.349  -2.497 123.172  0.00  0.00    +0.006 C 
ATOM      8  C   LIG A   1      -8.378  -1.420 122.896  0.00  0.00    +0.005 C 
ATOM      9  C   LIG A   1      -7.832  -0.040 123.192  0.00  0.00    -0.001 C 
ATOM     10  C   LIG A   1      -7.931   0.385 124.655  0.00  0.00    +0.005 C 
ATOM     11  C   LIG A   1      -8.707   1.097 123.391  0.00  0.00    -0.028 C 
ATOM     12  C   LIG A   1      -8.267   2.517 123.065  0.00  0.00    +0.011 C 
ATOM     13  C   LIG A   1     -10.137   0.837 122.936  0.00  0.00    +0.011 C 
ATOM     14  C   LIG A   1      -5.805  -2.134 126.583  0.00  0.00    +0.035 C 
ATOM     15  C   LIG A   1      -5.436  -0.847 127.303  0.00  0.00    +0.006 C 
ENDROOT
BRANCH   4  16
ATOM     16  O   LIG A   1      -8.145  -1.713 126.563  0.00  0.00    -0.388 OA
ATOM     17  H   LIG A   1      -8.416  -2.626 126.761  0.00  0.00    +0.210 HD
ENDBRANCH   4  16
TORSDOF 1
ENDMDL
MODEL 8
REMARK VINA RESULT:      -5.8      7.865      9.671
REMARK  Name = NuBBE_2291
REMARK  5 active torsions:
REMARK  status: ('A' for Active; 'I' for Inactive)
REMARK    1  A    between atoms: C_1  and  C_2
REMARK    2  A    between atoms: C_6  and  O_19
REMARK    3  A    between atoms: C_7  and  C_9
REMARK    4  A    between atoms: C_16  and  C_17
REMARK    5  A    between atoms: C_16  and  C_18
REMARK                            x       y       z     vdW  Elec       q    Type
REMARK                         _______ _______ _______ _____ _____    ______ ____
ROOT
ATOM      1  C   LIG A   1      -5.820   7.318 130.640  0.00  0.00    +0.008 C 
ATOM      2  C   LIG A   1      -6.637   6.617 131.732  0.00  0.00    -0.008 C 
ATOM      3  C   LIG A   1      -7.815   5.752 131.175  0.00  0.00    +0.028 C 
ATOM      4  C   LIG A   1      -7.934   4.645 132.264  0.00  0.00    +0.072 C 
ATOM      5  C   LIG A   1      -8.653   3.303 131.911  0.00  0.00    +0.018 C 
ATOM      6  C   LIG A   1      -9.424   2.735 133.113  0.00  0.00    +0.010 C 
ATOM      7  C   LIG A   1      -9.493   3.279 130.629  0.00  0.00    +0.006 C 
ATOM      8  C   LIG A   1     -10.478   4.415 130.451  0.00  0.00    +0.005 C 
ATOM      9  C   LIG A   1      -9.800   5.665 129.934  0.00  0.00    -0.001 C 
ATOM     10  C   LIG A   1      -9.153   6.532 131.012  0.00  0.00    +0.005 C 
ATOM     11  C   LIG A   1     -10.418   6.970 130.053  0.00  0.00    -0.028 C 
ATOM     12  C   LIG A   1     -10.134   8.087 129.060  0.00  0.00    +0.011 C 
ATOM     13  C   LIG A   1     -11.898   6.900 130.408  0.00  0.00    +0.011 C 
ATOM     14  C   LIG A   1      -6.464   4.333 132.597  0.00  0.00    +0.035 C 
ATOM     15  C   LIG A   1      -5.738   5.667 132.538  0.00  0.00    +0.006 C 
ENDROOT
BRANCH   4  16
ATOM     16  O   LIG A   1      -8.496   5.227 133.451  0.00  0.00    -0.388 OA
ATOM     17  H   LIG A   1      -7.958   6.005 133.676  0.00  0.00    +0.210 HD
ENDBRANCH   4  16
TORSDOF 1
ENDMDL
MODEL 9
REMARK VINA RESULT:      -5.6      3.008      5.749
REMARK  Name = NuBBE_2291
REMARK  5 active torsions:
REMARK  status: ('A' for Active; 'I' for Inactive)
REMARK    1  A    between atoms: C_1  and  C_2
REMARK    2  A    between atoms: C_6  and  O_19
REMARK    3  A    between atoms: C_7  and  C_9
REMARK    4  A    between atoms: C_16  and  C_17
REMARK    5  A    between atoms: C_16  and  C_18
REMARK                            x       y       z     vdW  Elec       q    Type
REMARK                         _______ _______ _______ _____ _____    ______ ____
ROOT
ATOM      1  C   LIG A   1      -9.201   0.886 131.830  0.00  0.00    +0.008 C 
ATOM      2  C   LIG A   1      -8.068   0.690 130.816  0.00  0.00    -0.008 C 
ATOM      3  C   LIG A   1      -7.981  -0.765 130.247  0.00  0.00    +0.028 C 
ATOM      4  C   LIG A   1      -7.384  -0.513 128.831  0.00  0.00    +0.072 C 
ATOM      5  C   LIG A   1      -7.553  -1.608 127.729  0.00  0.00    +0.018 C 
ATOM      6  C   LIG A   1      -6.331  -1.674 126.798  0.00  0.00    +0.010 C 
ATOM      7  C   LIG A   1      -7.995  -3.001 128.191  0.00  0.00    +0.006 C 
ATOM      8  C   LIG A   1      -7.225  -3.598 129.350  0.00  0.00    +0.005 C 
ATOM      9  C   LIG A   1      -7.703  -3.051 130.677  0.00  0.00    -0.001 C 
ATOM     10  C   LIG A   1      -7.076  -1.719 131.082  0.00  0.00    +0.005 C 
ATOM     11  C   LIG A   1      -6.896  -3.150 131.876  0.00  0.00    -0.028 C 
ATOM     12  C   LIG A   1      -7.519  -3.215 133.262  0.00  0.00    +0.011 C 
ATOM     13  C   LIG A   1      -5.738  -4.130 131.737  0.00  0.00    +0.011 C 
ATOM     14  C   LIG A   1      -8.123   0.756 128.369  0.00  0.00    +0.035 C 
ATOM     15  C   LIG A   1      -8.268   1.621 129.610  0.00  0.00    +0.006 C 
ENDROOT
BRANCH   4  16
ATOM     16  O   LIG A   1      -6.005  -0.141 128.973  0.00  0.00    -0.388 OA
ATOM     17  H   LIG A   1      -5.887   0.202 129.876  0.00  0.00    +0.210 HD
ENDBRANCH   4  16
TORSDOF 1
ENDMDL
