MODEL 1
REMARK VINA RESULT:      -6.8      0.000      0.000
REMARK  Name = NuBBE_2092
REMARK  10 active torsions:
REMARK  status: ('A' for Active; 'I' for Inactive)
REMARK    1  A    between atoms: C_1  and  C_2
REMARK    2  A    between atoms: C_2  and  O_4
REMARK    3  A    between atoms: O_4  and  C_5
REMARK    4  A    between atoms: C_5  and  C_6
REMARK    5  A    between atoms: C_5  and  C_7
REMARK    6  A    between atoms: C_5  and  C_8
REMARK    7  A    between atoms: C_8  and  N_9
REMARK    8  A    between atoms: C_10  and  C_12
REMARK    9  A    between atoms: C_13  and  C_14
REMARK   10  A    between atoms: C_15  and  C_16
REMARK                            x       y       z     vdW  Elec       q    Type
REMARK                         _______ _______ _______ _____ _____    ______ ____
ROOT
ATOM      1  C   LIG A   1      -8.666  -3.500 127.713  0.00  0.00    +0.067 C 
ATOM      2  C   LIG A   1      -7.847  -2.855 128.550  0.00  0.00    +0.005 C 
ENDROOT
BRANCH   1   4
ATOM      3  N   LIG A   1      -8.190  -1.869 126.091  0.00  0.00    -0.308 N 
ATOM      4  C   LIG A   1      -9.095  -2.825 126.463  0.00  0.00    +0.237 C 
ATOM      5  O   LIG A   1     -10.081  -3.141 125.844  0.00  0.00    -0.271 OA
ATOM      6  H   LIG A   1      -7.319  -1.864 126.614  0.00  0.00    +0.149 HD
BRANCH   3   7
ATOM      7  C   LIG A   1      -8.218  -1.170 124.824  0.00  0.00    +0.151 C 
BRANCH   7   8
ATOM      8  C   LIG A   1      -7.559  -1.948 123.641  0.00  0.00    +0.123 C 
ATOM      9  C   LIG A   1      -6.594  -1.078 122.822  0.00  0.00    +0.057 C 
ATOM     10  C   LIG A   1      -8.688  -2.407 122.689  0.00  0.00    +0.057 C 
BRANCH   8  11
ATOM     11  O   LIG A   1      -6.907  -3.189 124.070  0.00  0.00    -0.457 OA
BRANCH  11  13
ATOM     12  C   LIG A   1      -4.703  -3.952 123.694  0.00  0.00    +0.136 C 
ATOM     13  C   LIG A   1      -5.643  -3.193 124.564  0.00  0.00    +0.304 C 
ATOM     14  O   LIG A   1      -5.261  -2.625 125.583  0.00  0.00    -0.251 OA
ENDBRANCH  11  13
ENDBRANCH   8  11
ENDBRANCH   7   8
ENDBRANCH   3   7
ENDBRANCH   1   4
BRANCH   2  15
ATOM     15  C   LIG A   1      -7.506  -3.378 129.855  0.00  0.00    +0.001 C 
ATOM     16  C   LIG A   1      -7.435  -2.610 130.953  0.00  0.00    +0.008 C 
BRANCH  16  17
ATOM     17  C   LIG A   1      -7.215  -3.129 132.316  0.00  0.00    -0.021 A 
ATOM     18  C   LIG A   1      -6.242  -4.140 132.500  0.00  0.00    +0.012 A 
ATOM     19  C   LIG A   1      -5.942  -4.636 133.774  0.00  0.00    +0.050 A 
ATOM     20  C   LIG A   1      -6.635  -4.116 134.843  0.00  0.00    +0.166 A 
ATOM     21  O   LIG A   1      -6.467  -4.458 136.148  0.00  0.00    -0.453 OA
ATOM     22  C   LIG A   1      -7.446  -3.608 136.780  0.00  0.00    +0.466 C 
ATOM     23  O   LIG A   1      -8.168  -2.774 135.850  0.00  0.00    -0.453 OA
ATOM     24  C   LIG A   1      -7.603  -3.156 134.674  0.00  0.00    +0.167 A 
ATOM     25  C   LIG A   1      -7.924  -2.654 133.430  0.00  0.00    +0.057 A 
ENDBRANCH  16  17
ENDBRANCH   2  15
TORSDOF 7
ENDMDL
MODEL 2
REMARK VINA RESULT:      -6.8      1.508      2.291
REMARK  Name = NuBBE_2092
REMARK  10 active torsions:
REMARK  status: ('A' for Active; 'I' for Inactive)
REMARK    1  A    between atoms: C_1  and  C_2
REMARK    2  A    between atoms: C_2  and  O_4
REMARK    3  A    between atoms: O_4  and  C_5
REMARK    4  A    between atoms: C_5  and  C_6
REMARK    5  A    between atoms: C_5  and  C_7
REMARK    6  A    between atoms: C_5  and  C_8
REMARK    7  A    between atoms: C_8  and  N_9
REMARK    8  A    between atoms: C_10  and  C_12
REMARK    9  A    between atoms: C_13  and  C_14
REMARK   10  A    between atoms: C_15  and  C_16
REMARK                            x       y       z     vdW  Elec       q    Type
REMARK                         _______ _______ _______ _____ _____    ______ ____
ROOT
ATOM      1  C   LIG A   1      -8.988  -3.352 127.345  0.00  0.00    +0.067 C 
ATOM      2  C   LIG A   1      -7.943  -2.938 128.069  0.00  0.00    +0.005 C 
ENDROOT
BRANCH   1   4
ATOM      3  N   LIG A   1      -8.522  -1.569 125.889  0.00  0.00    -0.308 N 
ATOM      4  C   LIG A   1      -9.244  -2.722 126.026  0.00  0.00    +0.237 C 
ATOM      5  O   LIG A   1      -9.951  -3.216 125.182  0.00  0.00    -0.271 OA
ATOM      6  H   LIG A   1      -7.828  -1.399 126.611  0.00  0.00    +0.149 HD
BRANCH   3   7
ATOM      7  C   LIG A   1      -8.402  -0.825 124.653  0.00  0.00    +0.151 C 
BRANCH   7   8
ATOM      8  C   LIG A   1      -6.934  -0.607 124.168  0.00  0.00    +0.123 C 
ATOM      9  C   LIG A   1      -5.940  -0.457 125.329  0.00  0.00    +0.057 C 
ATOM     10  C   LIG A   1      -6.894   0.707 123.353  0.00  0.00    +0.057 C 
BRANCH   8  11
ATOM     11  O   LIG A   1      -6.485  -1.641 123.229  0.00  0.00    -0.457 OA
BRANCH  11  13
ATOM     12  C   LIG A   1      -4.609  -3.068 123.369  0.00  0.00    +0.136 C 
ATOM     13  C   LIG A   1      -6.053  -2.853 123.660  0.00  0.00    +0.304 C 
ATOM     14  O   LIG A   1      -6.722  -3.692 124.256  0.00  0.00    -0.251 OA
ENDBRANCH  11  13
ENDBRANCH   8  11
ENDBRANCH   7   8
ENDBRANCH   3   7
ENDBRANCH   1   4
BRANCH   2  15
ATOM     15  C   LIG A   1      -7.713  -3.389 129.424  0.00  0.00    +0.001 C 
ATOM     16  C   LIG A   1      -6.489  -3.648 129.910  0.00  0.00    +0.008 C 
BRANCH  16  17
ATOM     17  C   LIG A   1      -6.210  -3.987 131.318  0.00  0.00    -0.021 A 
ATOM     18  C   LIG A   1      -6.989  -3.367 132.324  0.00  0.00    +0.012 A 
ATOM     19  C   LIG A   1      -6.816  -3.687 133.676  0.00  0.00    +0.050 A 
ATOM     20  C   LIG A   1      -5.854  -4.617 133.996  0.00  0.00    +0.166 A 
ATOM     21  O   LIG A   1      -5.559  -5.065 135.246  0.00  0.00    -0.453 OA
ATOM     22  C   LIG A   1      -4.496  -5.996 134.955  0.00  0.00    +0.466 C 
ATOM     23  O   LIG A   1      -4.185  -6.093 133.551  0.00  0.00    -0.453 OA
ATOM     24  C   LIG A   1      -5.072  -5.204 133.032  0.00  0.00    +0.167 A 
ATOM     25  C   LIG A   1      -5.215  -4.903 131.693  0.00  0.00    +0.057 A 
ENDBRANCH  16  17
ENDBRANCH   2  15
TORSDOF 7
ENDMDL
MODEL 3
REMARK VINA RESULT:      -6.7      1.551      2.124
REMARK  Name = NuBBE_2092
REMARK  10 active torsions:
REMARK  status: ('A' for Active; 'I' for Inactive)
REMARK    1  A    between atoms: C_1  and  C_2
REMARK    2  A    between atoms: C_2  and  O_4
REMARK    3  A    between atoms: O_4  and  C_5
REMARK    4  A    between atoms: C_5  and  C_6
REMARK    5  A    between atoms: C_5  and  C_7
REMARK    6  A    between atoms: C_5  and  C_8
REMARK    7  A    between atoms: C_8  and  N_9
REMARK    8  A    between atoms: C_10  and  C_12
REMARK    9  A    between atoms: C_13  and  C_14
REMARK   10  A    between atoms: C_15  and  C_16
REMARK                            x       y       z     vdW  Elec       q    Type
REMARK                         _______ _______ _______ _____ _____    ______ ____
ROOT
ATOM      1  C   LIG A   1      -8.973  -3.267 126.805  0.00  0.00    +0.067 C 
ATOM      2  C   LIG A   1      -8.044  -2.780 127.634  0.00  0.00    +0.005 C 
ENDROOT
BRANCH   1   4
ATOM      3  N   LIG A   1      -8.824  -1.258 125.598  0.00  0.00    -0.308 N 
ATOM      4  C   LIG A   1      -9.245  -2.558 125.530  0.00  0.00    +0.237 C 
ATOM      5  O   LIG A   1      -9.717  -3.096 124.560  0.00  0.00    -0.271 OA
ATOM      6  H   LIG A   1      -8.271  -1.019 126.416  0.00  0.00    +0.149 HD
BRANCH   3   7
ATOM      7  C   LIG A   1      -8.770  -0.359 124.464  0.00  0.00    +0.151 C 
BRANCH   7   8
ATOM      8  C   LIG A   1      -7.361   0.258 124.194  0.00  0.00    +0.123 C 
ATOM      9  C   LIG A   1      -6.481   0.305 125.452  0.00  0.00    +0.057 C 
ATOM     10  C   LIG A   1      -7.566   1.716 123.720  0.00  0.00    +0.057 C 
BRANCH   8  11
ATOM     11  O   LIG A   1      -6.655  -0.397 123.088  0.00  0.00    -0.457 OA
BRANCH  11  13
ATOM     12  C   LIG A   1      -5.897  -2.601 123.472  0.00  0.00    +0.136 C 
ATOM     13  C   LIG A   1      -6.866  -1.703 122.785  0.00  0.00    +0.304 C 
ATOM     14  O   LIG A   1      -7.757  -2.147 122.066  0.00  0.00    -0.251 OA
ENDBRANCH  11  13
ENDBRANCH   8  11
ENDBRANCH   7   8
ENDBRANCH   3   7
ENDBRANCH   1   4
BRANCH   2  15
ATOM     15  C   LIG A   1      -7.827  -3.321 128.957  0.00  0.00    +0.001 C 
ATOM     16  C   LIG A   1      -6.617  -3.371 129.537  0.00  0.00    +0.008 C 
BRANCH  16  17
ATOM     17  C   LIG A   1      -6.381  -3.798 130.928  0.00  0.00    -0.021 A 
ATOM     18  C   LIG A   1      -5.469  -4.855 131.161  0.00  0.00    +0.012 A 
ATOM     19  C   LIG A   1      -5.155  -5.270 132.460  0.00  0.00    +0.050 A 
ATOM     20  C   LIG A   1      -5.773  -4.624 133.506  0.00  0.00    +0.166 A 
ATOM     21  O   LIG A   1      -5.578  -4.875 134.828  0.00  0.00    -0.453 OA
ATOM     22  C   LIG A   1      -6.476  -3.913 135.421  0.00  0.00    +0.466 C 
ATOM     23  O   LIG A   1      -7.176  -3.107 134.452  0.00  0.00    -0.453 OA
ATOM     24  C   LIG A   1      -6.681  -3.616 133.293  0.00  0.00    +0.167 A 
ATOM     25  C   LIG A   1      -7.016  -3.191 132.024  0.00  0.00    +0.057 A 
ENDBRANCH  16  17
ENDBRANCH   2  15
TORSDOF 7
ENDMDL
MODEL 4
REMARK VINA RESULT:      -6.7      2.323      2.678
REMARK  Name = NuBBE_2092
REMARK  10 active torsions:
REMARK  status: ('A' for Active; 'I' for Inactive)
REMARK    1  A    between atoms: C_1  and  C_2
REMARK    2  A    between atoms: C_2  and  O_4
REMARK    3  A    between atoms: O_4  and  C_5
REMARK    4  A    between atoms: C_5  and  C_6
REMARK    5  A    between atoms: C_5  and  C_7
REMARK    6  A    between atoms: C_5  and  C_8
REMARK    7  A    between atoms: C_8  and  N_9
REMARK    8  A    between atoms: C_10  and  C_12
REMARK    9  A    between atoms: C_13  and  C_14
REMARK   10  A    between atoms: C_15  and  C_16
REMARK                            x       y       z     vdW  Elec       q    Type
REMARK                         _______ _______ _______ _____ _____    ______ ____
ROOT
ATOM      1  C   LIG A   1      -7.510  -2.867 128.358  0.00  0.00    +0.067 C 
ATOM      2  C   LIG A   1      -8.011  -3.007 129.590  0.00  0.00    +0.005 C 
ENDROOT
BRANCH   1   4
ATOM      3  N   LIG A   1      -8.127  -1.744 126.389  0.00  0.00    -0.308 N 
ATOM      4  C   LIG A   1      -8.443  -2.795 127.206  0.00  0.00    +0.237 C 
ATOM      5  O   LIG A   1      -9.314  -3.605 127.008  0.00  0.00    -0.271 OA
ATOM      6  H   LIG A   1      -7.248  -1.280 126.594  0.00  0.00    +0.149 HD
BRANCH   3   7
ATOM      7  C   LIG A   1      -8.720  -1.517 125.088  0.00  0.00    +0.151 C 
BRANCH   7   8
ATOM      8  C   LIG A   1      -8.136  -2.409 123.946  0.00  0.00    +0.123 C 
ATOM      9  C   LIG A   1      -7.705  -1.594 122.718  0.00  0.00    +0.057 C 
ATOM     10  C   LIG A   1      -9.249  -3.380 123.488  0.00  0.00    +0.057 C 
BRANCH   8  11
ATOM     11  O   LIG A   1      -7.048  -3.278 124.403  0.00  0.00    -0.457 OA
BRANCH  11  13
ATOM     12  C   LIG A   1      -4.859  -3.726 123.637  0.00  0.00    +0.136 C 
ATOM     13  C   LIG A   1      -5.761  -2.849 124.433  0.00  0.00    +0.304 C 
ATOM     14  O   LIG A   1      -5.344  -1.845 125.004  0.00  0.00    -0.251 OA
ENDBRANCH  11  13
ENDBRANCH   8  11
ENDBRANCH   7   8
ENDBRANCH   3   7
ENDBRANCH   1   4
BRANCH   2  15
ATOM     15  C   LIG A   1      -7.171  -3.238 130.745  0.00  0.00    +0.001 C 
ATOM     16  C   LIG A   1      -6.117  -4.069 130.727  0.00  0.00    +0.008 C 
BRANCH  16  17
ATOM     17  C   LIG A   1      -5.168  -4.230 131.844  0.00  0.00    -0.021 A 
ATOM     18  C   LIG A   1      -5.226  -5.420 132.607  0.00  0.00    +0.012 A 
ATOM     19  C   LIG A   1      -4.316  -5.663 133.644  0.00  0.00    +0.050 A 
ATOM     20  C   LIG A   1      -3.371  -4.698 133.906  0.00  0.00    +0.166 A 
ATOM     21  O   LIG A   1      -2.400  -4.767 134.855  0.00  0.00    -0.453 OA
ATOM     22  C   LIG A   1      -1.741  -3.498 134.660  0.00  0.00    +0.466 C 
ATOM     23  O   LIG A   1      -2.319  -2.707 133.602  0.00  0.00    -0.453 OA
ATOM     24  C   LIG A   1      -3.324  -3.526 133.192  0.00  0.00    +0.167 A 
ATOM     25  C   LIG A   1      -4.210  -3.256 132.170  0.00  0.00    +0.057 A 
ENDBRANCH  16  17
ENDBRANCH   2  15
TORSDOF 7
ENDMDL
MODEL 5
REMARK VINA RESULT:      -6.7      1.403      2.194
REMARK  Name = NuBBE_2092
REMARK  10 active torsions:
REMARK  status: ('A' for Active; 'I' for Inactive)
REMARK    1  A    between atoms: C_1  and  C_2
REMARK    2  A    between atoms: C_2  and  O_4
REMARK    3  A    between atoms: O_4  and  C_5
REMARK    4  A    between atoms: C_5  and  C_6
REMARK    5  A    between atoms: C_5  and  C_7
REMARK    6  A    between atoms: C_5  and  C_8
REMARK    7  A    between atoms: C_8  and  N_9
REMARK    8  A    between atoms: C_10  and  C_12
REMARK    9  A    between atoms: C_13  and  C_14
REMARK   10  A    between atoms: C_15  and  C_16
REMARK                            x       y       z     vdW  Elec       q    Type
REMARK                         _______ _______ _______ _____ _____    ______ ____
ROOT
ATOM      1  C   LIG A   1      -8.885  -3.609 127.437  0.00  0.00    +0.067 C 
ATOM      2  C   LIG A   1      -7.968  -3.030 128.220  0.00  0.00    +0.005 C 
ENDROOT
BRANCH   1   4
ATOM      3  N   LIG A   1      -7.820  -3.133 125.398  0.00  0.00    -0.308 N 
ATOM      4  C   LIG A   1      -9.031  -3.145 126.035  0.00  0.00    +0.237 C 
ATOM      5  O   LIG A   1     -10.095  -2.881 125.532  0.00  0.00    -0.271 OA
ATOM      6  H   LIG A   1      -7.055  -3.569 125.903  0.00  0.00    +0.149 HD
BRANCH   3   7
ATOM      7  C   LIG A   1      -7.650  -2.915 123.977  0.00  0.00    +0.151 C 
BRANCH   7   8
ATOM      8  C   LIG A   1      -6.589  -1.830 123.610  0.00  0.00    +0.123 C 
ATOM      9  C   LIG A   1      -5.689  -2.249 122.439  0.00  0.00    +0.057 C 
ATOM     10  C   LIG A   1      -5.678  -1.623 124.842  0.00  0.00    +0.057 C 
BRANCH   8  11
ATOM     11  O   LIG A   1      -7.185  -0.512 123.364  0.00  0.00    -0.457 OA
BRANCH  11  13
ATOM     12  C   LIG A   1      -9.475  -0.115 122.945  0.00  0.00    +0.136 C 
ATOM     13  C   LIG A   1      -8.362  -0.148 123.933  0.00  0.00    +0.304 C 
ATOM     14  O   LIG A   1      -8.547   0.102 125.121  0.00  0.00    -0.251 OA
ENDBRANCH  11  13
ENDBRANCH   8  11
ENDBRANCH   7   8
ENDBRANCH   3   7
ENDBRANCH   1   4
BRANCH   2  15
ATOM     15  C   LIG A   1      -7.866  -3.316 129.634  0.00  0.00    +0.001 C 
ATOM     16  C   LIG A   1      -6.698  -3.562 130.247  0.00  0.00    +0.008 C 
BRANCH  16  17
ATOM     17  C   LIG A   1      -6.546  -3.731 131.704  0.00  0.00    -0.021 A 
ATOM     18  C   LIG A   1      -5.608  -4.681 132.175  0.00  0.00    +0.012 A 
ATOM     19  C   LIG A   1      -5.371  -4.850 133.544  0.00  0.00    +0.050 A 
ATOM     20  C   LIG A   1      -6.091  -4.070 134.420  0.00  0.00    +0.166 A 
ATOM     21  O   LIG A   1      -5.982  -4.081 135.775  0.00  0.00    -0.453 OA
ATOM     22  C   LIG A   1      -6.962  -3.084 136.133  0.00  0.00    +0.466 C 
ATOM     23  O   LIG A   1      -7.624  -2.495 134.995  0.00  0.00    -0.453 OA
ATOM     24  C   LIG A   1      -7.025  -3.166 133.977  0.00  0.00    +0.167 A 
ATOM     25  C   LIG A   1      -7.284  -2.983 132.634  0.00  0.00    +0.057 A 
ENDBRANCH  16  17
ENDBRANCH   2  15
TORSDOF 7
ENDMDL
MODEL 6
REMARK VINA RESULT:      -6.6      2.669      3.605
REMARK  Name = NuBBE_2092
REMARK  10 active torsions:
REMARK  status: ('A' for Active; 'I' for Inactive)
REMARK    1  A    between atoms: C_1  and  C_2
REMARK    2  A    between atoms: C_2  and  O_4
REMARK    3  A    between atoms: O_4  and  C_5
REMARK    4  A    between atoms: C_5  and  C_6
REMARK    5  A    between atoms: C_5  and  C_7
REMARK    6  A    between atoms: C_5  and  C_8
REMARK    7  A    between atoms: C_8  and  N_9
REMARK    8  A    between atoms: C_10  and  C_12
REMARK    9  A    between atoms: C_13  and  C_14
REMARK   10  A    between atoms: C_15  and  C_16
REMARK                            x       y       z     vdW  Elec       q    Type
REMARK                         _______ _______ _______ _____ _____    ______ ____
ROOT
ATOM      1  C   LIG A   1      -8.689  -3.285 126.266  0.00  0.00    +0.067 C 
ATOM      2  C   LIG A   1      -8.249  -2.508 127.261  0.00  0.00    +0.005 C 
ENDROOT
BRANCH   1   4
ATOM      3  N   LIG A   1      -8.375  -1.475 124.802  0.00  0.00    -0.308 N 
ATOM      4  C   LIG A   1      -9.035  -2.662 124.964  0.00  0.00    +0.237 C 
ATOM      5  O   LIG A   1      -9.756  -3.185 124.150  0.00  0.00    -0.271 OA
ATOM      6  H   LIG A   1      -7.657  -1.276 125.493  0.00  0.00    +0.149 HD
BRANCH   3   7
ATOM      7  C   LIG A   1      -8.347  -0.721 123.567  0.00  0.00    +0.151 C 
BRANCH   7   8
ATOM      8  C   LIG A   1      -9.132   0.629 123.615  0.00  0.00    +0.123 C 
ATOM      9  C   LIG A   1      -9.776   0.893 124.984  0.00  0.00    +0.057 C 
ATOM     10  C   LIG A   1     -10.273   0.552 122.575  0.00  0.00    +0.057 C 
BRANCH   8  11
ATOM     11  O   LIG A   1      -8.320   1.774 123.192  0.00  0.00    -0.457 OA
BRANCH  11  13
ATOM     12  C   LIG A   1      -6.528   2.401 124.597  0.00  0.00    +0.136 C 
ATOM     13  C   LIG A   1      -7.889   2.707 124.080  0.00  0.00    +0.304 C 
ATOM     14  O   LIG A   1      -8.497   3.718 124.421  0.00  0.00    -0.251 OA
ENDBRANCH  11  13
ENDBRANCH   8  11
ENDBRANCH   7   8
ENDBRANCH   3   7
ENDBRANCH   1   4
BRANCH   2  15
ATOM     15  C   LIG A   1      -8.037  -3.011 128.600  0.00  0.00    +0.001 C 
ATOM     16  C   LIG A   1      -6.829  -3.043 129.185  0.00  0.00    +0.008 C 
BRANCH  16  17
ATOM     17  C   LIG A   1      -6.598  -3.430 130.589  0.00  0.00    -0.021 A 
ATOM     18  C   LIG A   1      -7.396  -2.828 131.591  0.00  0.00    +0.012 A 
ATOM     19  C   LIG A   1      -7.270  -3.193 132.937  0.00  0.00    +0.050 A 
ATOM     20  C   LIG A   1      -6.333  -4.150 133.256  0.00  0.00    +0.166 A 
ATOM     21  O   LIG A   1      -6.084  -4.642 134.498  0.00  0.00    -0.453 OA
ATOM     22  C   LIG A   1      -5.029  -5.583 134.210  0.00  0.00    +0.466 C 
ATOM     23  O   LIG A   1      -4.677  -5.642 132.813  0.00  0.00    -0.453 OA
ATOM     24  C   LIG A   1      -5.533  -4.720 132.296  0.00  0.00    +0.167 A 
ATOM     25  C   LIG A   1      -5.630  -4.375 130.964  0.00  0.00    +0.057 A 
ENDBRANCH  16  17
ENDBRANCH   2  15
TORSDOF 7
ENDMDL
MODEL 7
REMARK VINA RESULT:      -6.6      4.773     10.957
REMARK  Name = NuBBE_2092
REMARK  10 active torsions:
REMARK  status: ('A' for Active; 'I' for Inactive)
REMARK    1  A    between atoms: C_1  and  C_2
REMARK    2  A    between atoms: C_2  and  O_4
REMARK    3  A    between atoms: O_4  and  C_5
REMARK    4  A    between atoms: C_5  and  C_6
REMARK    5  A    between atoms: C_5  and  C_7
REMARK    6  A    between atoms: C_5  and  C_8
REMARK    7  A    between atoms: C_8  and  N_9
REMARK    8  A    between atoms: C_10  and  C_12
REMARK    9  A    between atoms: C_13  and  C_14
REMARK   10  A    between atoms: C_15  and  C_16
REMARK                            x       y       z     vdW  Elec       q    Type
REMARK                         _______ _______ _______ _____ _____    ______ ____
ROOT
ATOM      1  C   LIG A   1      -7.869   2.154 126.899  0.00  0.00    +0.067 C 
ATOM      2  C   LIG A   1      -8.075   1.568 125.715  0.00  0.00    +0.005 C 
ENDROOT
BRANCH   1   4
ATOM      3  N   LIG A   1      -7.940   0.008 127.851  0.00  0.00    -0.308 N 
ATOM      4  C   LIG A   1      -8.000   1.345 128.136  0.00  0.00    +0.237 C 
ATOM      5  O   LIG A   1      -8.083   1.828 129.238  0.00  0.00    -0.271 OA
ATOM      6  H   LIG A   1      -7.672  -0.225 126.899  0.00  0.00    +0.149 HD
BRANCH   3   7
ATOM      7  C   LIG A   1      -7.845  -1.034 128.851  0.00  0.00    +0.151 C 
BRANCH   7   8
ATOM      8  C   LIG A   1      -7.536  -2.454 128.279  0.00  0.00    +0.123 C 
ATOM      9  C   LIG A   1      -8.582  -3.501 128.688  0.00  0.00    +0.057 C 
ATOM     10  C   LIG A   1      -6.176  -2.911 128.855  0.00  0.00    +0.057 C 
BRANCH   8  11
ATOM     11  O   LIG A   1      -7.342  -2.451 126.825  0.00  0.00    -0.457 OA
BRANCH  11  13
ATOM     12  C   LIG A   1      -8.193  -3.865 125.135  0.00  0.00    +0.136 C 
ATOM     13  C   LIG A   1      -8.378  -2.647 125.970  0.00  0.00    +0.304 C 
ATOM     14  O   LIG A   1      -9.386  -1.951 125.881  0.00  0.00    -0.251 OA
ENDBRANCH  11  13
ENDBRANCH   8  11
ENDBRANCH   7   8
ENDBRANCH   3   7
ENDBRANCH   1   4
BRANCH   2  15
ATOM     15  C   LIG A   1      -8.118   2.316 124.478  0.00  0.00    +0.001 C 
ATOM     16  C   LIG A   1      -7.057   2.446 123.666  0.00  0.00    +0.008 C 
BRANCH  16  17
ATOM     17  C   LIG A   1      -7.100   3.092 122.341  0.00  0.00    -0.021 A 
ATOM     18  C   LIG A   1      -8.346   3.175 121.675  0.00  0.00    +0.012 A 
ATOM     19  C   LIG A   1      -8.470   3.827 120.443  0.00  0.00    +0.050 A 
ATOM     20  C   LIG A   1      -7.334   4.376 119.892  0.00  0.00    +0.166 A 
ATOM     21  O   LIG A   1      -7.264   5.061 118.720  0.00  0.00    -0.453 OA
ATOM     22  C   LIG A   1      -5.857   5.374 118.673  0.00  0.00    +0.466 C 
ATOM     23  O   LIG A   1      -5.121   4.885 119.812  0.00  0.00    -0.453 OA
ATOM     24  C   LIG A   1      -6.114   4.277 120.515  0.00  0.00    +0.167 A 
ATOM     25  C   LIG A   1      -5.961   3.635 121.726  0.00  0.00    +0.057 A 
ENDBRANCH  16  17
ENDBRANCH   2  15
TORSDOF 7
ENDMDL
MODEL 8
REMARK VINA RESULT:      -6.5     12.027     14.011
REMARK  Name = NuBBE_2092
REMARK  10 active torsions:
REMARK  status: ('A' for Active; 'I' for Inactive)
REMARK    1  A    between atoms: C_1  and  C_2
REMARK    2  A    between atoms: C_2  and  O_4
REMARK    3  A    between atoms: O_4  and  C_5
REMARK    4  A    between atoms: C_5  and  C_6
REMARK    5  A    between atoms: C_5  and  C_7
REMARK    6  A    between atoms: C_5  and  C_8
REMARK    7  A    between atoms: C_8  and  N_9
REMARK    8  A    between atoms: C_10  and  C_12
REMARK    9  A    between atoms: C_13  and  C_14
REMARK   10  A    between atoms: C_15  and  C_16
REMARK                            x       y       z     vdW  Elec       q    Type
REMARK                         _______ _______ _______ _____ _____    ______ ____
ROOT
ATOM      1  C   LIG A   1      -5.022   6.758 131.604  0.00  0.00    +0.067 C 
ATOM      2  C   LIG A   1      -5.909   5.996 132.254  0.00  0.00    +0.005 C 
ENDROOT
BRANCH   1   4
ATOM      3  N   LIG A   1      -3.056   7.954 132.076  0.00  0.00    -0.308 N 
ATOM      4  C   LIG A   1      -3.593   6.698 132.001  0.00  0.00    +0.237 C 
ATOM      5  O   LIG A   1      -3.025   5.670 132.275  0.00  0.00    -0.271 OA
ATOM      6  H   LIG A   1      -3.721   8.719 132.005  0.00  0.00    +0.149 HD
BRANCH   3   7
ATOM      7  C   LIG A   1      -1.747   8.248 132.618  0.00  0.00    +0.151 C 
BRANCH   7   8
ATOM      8  C   LIG A   1      -1.653   9.609 133.379  0.00  0.00    +0.123 C 
ATOM      9  C   LIG A   1      -0.206  10.011 133.701  0.00  0.00    +0.057 C 
ATOM     10  C   LIG A   1      -2.398   9.452 134.725  0.00  0.00    +0.057 C 
BRANCH   8  11
ATOM     11  O   LIG A   1      -2.355  10.696 132.689  0.00  0.00    -0.457 OA
BRANCH  11  13
ATOM     12  C   LIG A   1      -2.411  12.852 133.652  0.00  0.00    +0.136 C 
ATOM     13  C   LIG A   1      -1.834  11.947 132.620  0.00  0.00    +0.304 C 
ATOM     14  O   LIG A   1      -0.964  12.329 131.843  0.00  0.00    -0.251 OA
ENDBRANCH  11  13
ENDBRANCH   8  11
ENDBRANCH   7   8
ENDBRANCH   3   7
ENDBRANCH   1   4
BRANCH   2  15
ATOM     15  C   LIG A   1      -7.334   6.108 132.035  0.00  0.00    +0.001 C 
ATOM     16  C   LIG A   1      -7.867   6.903 131.094  0.00  0.00    +0.008 C 
BRANCH  16  17
ATOM     17  C   LIG A   1      -9.303   6.945 130.761  0.00  0.00    -0.021 A 
ATOM     18  C   LIG A   1     -10.219   6.351 131.661  0.00  0.00    +0.012 A 
ATOM     19  C   LIG A   1     -11.599   6.406 131.436  0.00  0.00    +0.050 A 
ATOM     20  C   LIG A   1     -12.037   7.049 130.300  0.00  0.00    +0.166 A 
ATOM     21  O   LIG A   1     -13.333   7.219 129.927  0.00  0.00    -0.453 OA
ATOM     22  C   LIG A   1     -13.166   7.939 128.688  0.00  0.00    +0.466 C 
ATOM     23  O   LIG A   1     -11.787   8.192 128.352  0.00  0.00    -0.453 OA
ATOM     24  C   LIG A   1     -11.157   7.604 129.403  0.00  0.00    +0.167 A 
ATOM     25  C   LIG A   1      -9.792   7.558 129.596  0.00  0.00    +0.057 A 
ENDBRANCH  16  17
ENDBRANCH   2  15
TORSDOF 7
ENDMDL
MODEL 9
REMARK VINA RESULT:      -6.2      7.345     10.374
REMARK  Name = NuBBE_2092
REMARK  10 active torsions:
REMARK  status: ('A' for Active; 'I' for Inactive)
REMARK    1  A    between atoms: C_1  and  C_2
REMARK    2  A    between atoms: C_2  and  O_4
REMARK    3  A    between atoms: O_4  and  C_5
REMARK    4  A    between atoms: C_5  and  C_6
REMARK    5  A    between atoms: C_5  and  C_7
REMARK    6  A    between atoms: C_5  and  C_8
REMARK    7  A    between atoms: C_8  and  N_9
REMARK    8  A    between atoms: C_10  and  C_12
REMARK    9  A    between atoms: C_13  and  C_14
REMARK   10  A    between atoms: C_15  and  C_16
REMARK                            x       y       z     vdW  Elec       q    Type
REMARK                         _______ _______ _______ _____ _____    ______ ____
ROOT
ATOM      1  C   LIG A   1      -8.562   3.857 128.913  0.00  0.00    +0.067 C 
ATOM      2  C   LIG A   1      -8.256   2.565 129.077  0.00  0.00    +0.005 C 
ENDROOT
BRANCH   1   4
ATOM      3  N   LIG A   1      -9.552   5.812 129.758  0.00  0.00    -0.308 N 
ATOM      4  C   LIG A   1      -8.863   4.683 130.108  0.00  0.00    +0.237 C 
ATOM      5  O   LIG A   1      -8.581   4.350 131.232  0.00  0.00    -0.271 OA
ATOM      6  H   LIG A   1      -9.879   5.845 128.797  0.00  0.00    +0.149 HD
BRANCH   3   7
ATOM      7  C   LIG A   1     -10.157   6.723 130.706  0.00  0.00    +0.151 C 
BRANCH   7   8
ATOM      8  C   LIG A   1     -11.607   7.172 130.337  0.00  0.00    +0.123 C 
ATOM      9  C   LIG A   1     -12.548   7.198 131.550  0.00  0.00    +0.057 C 
ATOM     10  C   LIG A   1     -12.179   6.145 129.332  0.00  0.00    +0.057 C 
BRANCH   8  11
ATOM     11  O   LIG A   1     -11.642   8.452 129.622  0.00  0.00    -0.457 OA
BRANCH  11  13
ATOM     12  C   LIG A   1     -13.457   8.954 128.196  0.00  0.00    +0.136 C 
ATOM     13  C   LIG A   1     -12.036   8.530 128.325  0.00  0.00    +0.304 C 
ATOM     14  O   LIG A   1     -11.333   8.322 127.340  0.00  0.00    -0.251 OA
ENDBRANCH  11  13
ENDBRANCH   8  11
ENDBRANCH   7   8
ENDBRANCH   3   7
ENDBRANCH   1   4
BRANCH   2  15
ATOM     15  C   LIG A   1      -8.101   1.658 127.961  0.00  0.00    +0.001 C 
ATOM     16  C   LIG A   1      -7.814   0.356 128.113  0.00  0.00    +0.008 C 
BRANCH  16  17
ATOM     17  C   LIG A   1      -7.775  -0.619 127.007  0.00  0.00    -0.021 A 
ATOM     18  C   LIG A   1      -6.632  -1.444 126.880  0.00  0.00    +0.012 A 
ATOM     19  C   LIG A   1      -6.555  -2.430 125.889  0.00  0.00    +0.050 A 
ATOM     20  C   LIG A   1      -7.625  -2.562 125.033  0.00  0.00    +0.166 A 
ATOM     21  O   LIG A   1      -7.737  -3.472 124.029  0.00  0.00    -0.453 OA
ATOM     22  C   LIG A   1      -9.034  -3.130 123.498  0.00  0.00    +0.466 C 
ATOM     23  O   LIG A   1      -9.671  -2.040 124.194  0.00  0.00    -0.453 OA
ATOM     24  C   LIG A   1      -8.727  -1.748 125.128  0.00  0.00    +0.167 A 
ATOM     25  C   LIG A   1      -8.827  -0.764 126.089  0.00  0.00    +0.057 A 
ENDBRANCH  16  17
ENDBRANCH   2  15
TORSDOF 7
ENDMDL
