MODEL 1
REMARK VINA RESULT:      -6.6      0.000      0.000
REMARK  Name = NuBBE_165
REMARK  7 active torsions:
REMARK  status: ('A' for Active; 'I' for Inactive)
REMARK    1  A    between atoms: C_1  and  O_2
REMARK    2  A    between atoms: O_2  and  C_3
REMARK    3  A    between atoms: C_9  and  O_11
REMARK    4  A    between atoms: O_11  and  C_12
REMARK    5  A    between atoms: C_20  and  O_22
REMARK    6  A    between atoms: C_24  and  O_25
REMARK    7  A    between atoms: O_25  and  C_26
REMARK                            x       y       z     vdW  Elec       q    Type
REMARK                         _______ _______ _______ _____ _____    ______ ____
ROOT
ATOM      1  C   LIG A   1      -7.503  -1.688 124.042  0.00  0.00    +0.162 A 
ATOM      2  C   LIG A   1      -8.577  -0.972 123.494  0.00  0.00    +0.056 A 
ATOM      3  C   LIG A   1      -8.597   0.432 123.482  0.00  0.00    -0.009 A 
ATOM      4  C   LIG A   1      -7.531   1.157 124.040  0.00  0.00    -0.013 A 
ATOM      5  C   LIG A   1      -7.561   2.701 124.000  0.00  0.00    +0.076 C 
ATOM      6  C   LIG A   1      -8.275   3.348 125.203  0.00  0.00    +0.068 C 
ATOM      7  C   LIG A   1      -7.448   3.255 126.502  0.00  0.00    +0.143 C 
ATOM      8  C   LIG A   1      -5.996   3.613 126.277  0.00  0.00    +0.004 C 
ATOM      9  C   LIG A   1      -5.420   3.677 125.061  0.00  0.00    +0.004 C 
ATOM     10  C   LIG A   1      -6.181   3.338 123.894  0.00  0.00    -0.026 C 
ATOM     11  C   LIG A   1      -5.885   3.627 122.617  0.00  0.00    -0.006 C 
ATOM     12  C   LIG A   1      -7.060   3.306 121.758  0.00  0.00    +0.113 C 
ATOM     13  N   LIG A   1      -8.165   3.192 122.727  0.00  0.00    -0.282 NA
ATOM     14  C   LIG A   1      -9.348   2.494 122.215  0.00  0.00    +0.122 C 
ATOM     15  C   LIG A   1      -9.770   1.176 122.901  0.00  0.00    +0.159 C 
ATOM     16  C   LIG A   1      -6.469   0.426 124.609  0.00  0.00    +0.055 A 
ATOM     17  C   LIG A   1      -6.446  -0.978 124.627  0.00  0.00    +0.162 A 
ENDROOT
BRANCH   1  19
ATOM     18  C   LIG A   1      -8.422  -3.749 124.875  0.00  0.00    +0.277 C 
ATOM     19  O   LIG A   1      -7.651  -3.045 123.912  0.00  0.00    -0.491 OA
ENDBRANCH   1  19
BRANCH   7  20
ATOM     20  O   LIG A   1      -7.453   1.952 127.090  0.00  0.00    -0.376 OA
ATOM     21  C   LIG A   1      -8.731   1.505 127.517  0.00  0.00    +0.194 C 
ENDBRANCH   7  20
BRANCH  15  22
ATOM     22  O   LIG A   1     -10.727   1.433 123.932  0.00  0.00    -0.386 OA
ATOM     23  H   LIG A   1     -11.369   0.704 123.923  0.00  0.00    +0.210 HD
ENDBRANCH  15  22
BRANCH  17  24
ATOM     24  O   LIG A   1      -5.377  -1.671 125.127  0.00  0.00    -0.491 OA
ATOM     25  C   LIG A   1      -5.450  -2.090 126.484  0.00  0.00    +0.277 C 
ENDBRANCH  17  24
TORSDOF 4
ENDMDL
MODEL 2
REMARK VINA RESULT:      -6.5      3.404      6.615
REMARK  Name = NuBBE_165
REMARK  7 active torsions:
REMARK  status: ('A' for Active; 'I' for Inactive)
REMARK    1  A    between atoms: C_1  and  O_2
REMARK    2  A    between atoms: O_2  and  C_3
REMARK    3  A    between atoms: C_9  and  O_11
REMARK    4  A    between atoms: O_11  and  C_12
REMARK    5  A    between atoms: C_20  and  O_22
REMARK    6  A    between atoms: C_24  and  O_25
REMARK    7  A    between atoms: O_25  and  C_26
REMARK                            x       y       z     vdW  Elec       q    Type
REMARK                         _______ _______ _______ _____ _____    ______ ____
ROOT
ATOM      1  C   LIG A   1      -8.516   1.871 128.670  0.00  0.00    +0.162 A 
ATOM      2  C   LIG A   1      -8.323   1.490 127.334  0.00  0.00    +0.056 A 
ATOM      3  C   LIG A   1      -7.883   0.201 126.992  0.00  0.00    -0.009 A 
ATOM      4  C   LIG A   1      -7.611  -0.742 127.998  0.00  0.00    -0.013 A 
ATOM      5  C   LIG A   1      -7.148  -2.162 127.602  0.00  0.00    +0.076 C 
ATOM      6  C   LIG A   1      -5.622  -2.302 127.436  0.00  0.00    +0.068 C 
ATOM      7  C   LIG A   1      -4.876  -2.279 128.786  0.00  0.00    +0.143 C 
ATOM      8  C   LIG A   1      -5.548  -3.153 129.822  0.00  0.00    +0.004 C 
ATOM      9  C   LIG A   1      -6.806  -3.621 129.703  0.00  0.00    +0.004 C 
ATOM     10  C   LIG A   1      -7.602  -3.246 128.571  0.00  0.00    -0.026 C 
ATOM     11  C   LIG A   1      -8.726  -3.836 128.136  0.00  0.00    -0.006 C 
ATOM     12  C   LIG A   1      -9.083  -3.280 126.799  0.00  0.00    +0.113 C 
ATOM     13  N   LIG A   1      -7.839  -2.624 126.363  0.00  0.00    -0.282 NA
ATOM     14  C   LIG A   1      -8.014  -1.658 125.275  0.00  0.00    +0.122 C 
ATOM     15  C   LIG A   1      -7.668  -0.178 125.551  0.00  0.00    +0.159 C 
ATOM     16  C   LIG A   1      -7.787  -0.339 129.337  0.00  0.00    +0.055 A 
ATOM     17  C   LIG A   1      -8.223   0.950 129.684  0.00  0.00    +0.162 A 
ENDROOT
BRANCH   1  19
ATOM     18  C   LIG A   1      -8.070   4.220 128.928  0.00  0.00    +0.277 C 
ATOM     19  O   LIG A   1      -8.994   3.150 128.790  0.00  0.00    -0.491 OA
ENDBRANCH   1  19
BRANCH   7  20
ATOM     20  O   LIG A   1      -4.780  -0.975 129.364  0.00  0.00    -0.376 OA
ATOM     21  C   LIG A   1      -4.283  -0.957 130.694  0.00  0.00    +0.194 C 
ENDBRANCH   7  20
BRANCH  15  22
ATOM     22  O   LIG A   1      -6.313   0.095 125.185  0.00  0.00    -0.386 OA
ATOM     23  H   LIG A   1      -5.757  -0.103 125.957  0.00  0.00    +0.210 HD
ENDBRANCH  15  22
BRANCH  17  24
ATOM     24  O   LIG A   1      -8.448   1.304 130.987  0.00  0.00    -0.491 OA
ATOM     25  C   LIG A   1      -8.950   0.300 131.859  0.00  0.00    +0.277 C 
ENDBRANCH  17  24
TORSDOF 4
ENDMDL
MODEL 3
REMARK VINA RESULT:      -6.5      2.237      5.693
REMARK  Name = NuBBE_165
REMARK  7 active torsions:
REMARK  status: ('A' for Active; 'I' for Inactive)
REMARK    1  A    between atoms: C_1  and  O_2
REMARK    2  A    between atoms: O_2  and  C_3
REMARK    3  A    between atoms: C_9  and  O_11
REMARK    4  A    between atoms: O_11  and  C_12
REMARK    5  A    between atoms: C_20  and  O_22
REMARK    6  A    between atoms: C_24  and  O_25
REMARK    7  A    between atoms: O_25  and  C_26
REMARK                            x       y       z     vdW  Elec       q    Type
REMARK                         _______ _______ _______ _____ _____    ______ ____
ROOT
ATOM      1  C   LIG A   1      -6.104   3.188 124.132  0.00  0.00    +0.162 A 
ATOM      2  C   LIG A   1      -5.888   2.527 125.350  0.00  0.00    +0.056 A 
ATOM      3  C   LIG A   1      -6.189   1.166 125.512  0.00  0.00    -0.009 A 
ATOM      4  C   LIG A   1      -6.734   0.431 124.445  0.00  0.00    -0.013 A 
ATOM      5  C   LIG A   1      -7.040  -1.071 124.636  0.00  0.00    +0.076 C 
ATOM      6  C   LIG A   1      -8.446  -1.360 125.199  0.00  0.00    +0.068 C 
ATOM      7  C   LIG A   1      -9.559  -1.118 124.158  0.00  0.00    +0.143 C 
ATOM      8  C   LIG A   1      -9.213  -1.706 122.808  0.00  0.00    +0.004 C 
ATOM      9  C   LIG A   1      -7.970  -2.090 122.456  0.00  0.00    +0.004 C 
ATOM     10  C   LIG A   1      -6.880  -1.895 123.366  0.00  0.00    -0.026 C 
ATOM     11  C   LIG A   1      -5.669  -2.473 123.320  0.00  0.00    -0.006 C 
ATOM     12  C   LIG A   1      -4.939  -2.177 124.586  0.00  0.00    +0.113 C 
ATOM     13  N   LIG A   1      -6.007  -1.723 125.493  0.00  0.00    -0.282 NA
ATOM     14  C   LIG A   1      -5.530  -0.991 126.670  0.00  0.00    +0.122 C 
ATOM     15  C   LIG A   1      -5.961   0.484 126.835  0.00  0.00    +0.159 C 
ATOM     16  C   LIG A   1      -6.968   1.113 123.235  0.00  0.00    +0.055 A 
ATOM     17  C   LIG A   1      -6.672   2.476 123.068  0.00  0.00    +0.162 A 
ENDROOT
BRANCH   1  19
ATOM     18  C   LIG A   1      -6.218   5.354 125.172  0.00  0.00    +0.277 C 
ATOM     19  O   LIG A   1      -5.700   4.498 124.163  0.00  0.00    -0.491 OA
ENDBRANCH   1  19
BRANCH   7  20
ATOM     20  O   LIG A   1      -9.840   0.265 123.932  0.00  0.00    -0.376 OA
ATOM     21  C   LIG A   1     -10.376   0.555 122.650  0.00  0.00    +0.194 C 
ENDBRANCH   7  20
BRANCH  15  22
ATOM     22  O   LIG A   1      -7.150   0.570 127.625  0.00  0.00    -0.386 OA
ATOM     23  H   LIG A   1      -7.811   1.058 127.105  0.00  0.00    +0.210 HD
ENDBRANCH  15  22
BRANCH  17  24
ATOM     24  O   LIG A   1      -6.849   3.106 121.866  0.00  0.00    -0.491 OA
ATOM     25  C   LIG A   1      -5.730   3.169 120.993  0.00  0.00    +0.277 C 
ENDBRANCH  17  24
TORSDOF 4
ENDMDL
MODEL 4
REMARK VINA RESULT:      -6.0      2.847      5.409
REMARK  Name = NuBBE_165
REMARK  7 active torsions:
REMARK  status: ('A' for Active; 'I' for Inactive)
REMARK    1  A    between atoms: C_1  and  O_2
REMARK    2  A    between atoms: O_2  and  C_3
REMARK    3  A    between atoms: C_9  and  O_11
REMARK    4  A    between atoms: O_11  and  C_12
REMARK    5  A    between atoms: C_20  and  O_22
REMARK    6  A    between atoms: C_24  and  O_25
REMARK    7  A    between atoms: O_25  and  C_26
REMARK                            x       y       z     vdW  Elec       q    Type
REMARK                         _______ _______ _______ _____ _____    ______ ____
ROOT
ATOM      1  C   LIG A   1      -9.078  -1.854 125.586  0.00  0.00    +0.162 A 
ATOM      2  C   LIG A   1      -8.259  -2.506 126.519  0.00  0.00    +0.056 A 
ATOM      3  C   LIG A   1      -7.581  -1.798 127.525  0.00  0.00    -0.009 A 
ATOM      4  C   LIG A   1      -7.701  -0.400 127.608  0.00  0.00    -0.013 A 
ATOM      5  C   LIG A   1      -6.965   0.359 128.733  0.00  0.00    +0.076 C 
ATOM      6  C   LIG A   1      -5.525   0.776 128.373  0.00  0.00    +0.068 C 
ATOM      7  C   LIG A   1      -5.484   1.942 127.362  0.00  0.00    +0.143 C 
ATOM      8  C   LIG A   1      -6.460   3.040 127.721  0.00  0.00    +0.004 C 
ATOM      9  C   LIG A   1      -7.468   2.887 128.601  0.00  0.00    +0.004 C 
ATOM     10  C   LIG A   1      -7.695   1.608 129.209  0.00  0.00    -0.026 C 
ATOM     11  C   LIG A   1      -8.429   1.346 130.302  0.00  0.00    -0.006 C 
ATOM     12  C   LIG A   1      -8.193  -0.066 130.721  0.00  0.00    +0.113 C 
ATOM     13  N   LIG A   1      -6.962  -0.431 129.999  0.00  0.00    -0.282 NA
ATOM     14  C   LIG A   1      -6.720  -1.873 129.907  0.00  0.00    +0.122 C 
ATOM     15  C   LIG A   1      -6.694  -2.520 128.504  0.00  0.00    +0.159 C 
ATOM     16  C   LIG A   1      -8.509   0.244 126.650  0.00  0.00    +0.055 A 
ATOM     17  C   LIG A   1      -9.186  -0.459 125.640  0.00  0.00    +0.162 A 
ENDROOT
BRANCH   1  19
ATOM     18  C   LIG A   1      -9.046  -3.037 123.492  0.00  0.00    +0.277 C 
ATOM     19  O   LIG A   1      -9.688  -2.725 124.720  0.00  0.00    -0.491 OA
ENDBRANCH   1  19
BRANCH   7  20
ATOM     20  O   LIG A   1      -5.797   1.549 126.024  0.00  0.00    -0.376 OA
ATOM     21  C   LIG A   1      -6.017   2.630 125.131  0.00  0.00    +0.194 C 
ENDBRANCH   7  20
BRANCH  15  22
ATOM     22  O   LIG A   1      -5.358  -2.559 127.997  0.00  0.00    -0.386 OA
ATOM     23  H   LIG A   1      -5.372  -2.166 127.108  0.00  0.00    +0.210 HD
ENDBRANCH  15  22
BRANCH  17  24
ATOM     24  O   LIG A   1     -10.016   0.178 124.756  0.00  0.00    -0.491 OA
ATOM     25  C   LIG A   1      -9.695   1.518 124.410  0.00  0.00    +0.277 C 
ENDBRANCH  17  24
TORSDOF 4
ENDMDL
MODEL 5
REMARK VINA RESULT:      -6.0      2.469      5.814
REMARK  Name = NuBBE_165
REMARK  7 active torsions:
REMARK  status: ('A' for Active; 'I' for Inactive)
REMARK    1  A    between atoms: C_1  and  O_2
REMARK    2  A    between atoms: O_2  and  C_3
REMARK    3  A    between atoms: C_9  and  O_11
REMARK    4  A    between atoms: O_11  and  C_12
REMARK    5  A    between atoms: C_20  and  O_22
REMARK    6  A    between atoms: C_24  and  O_25
REMARK    7  A    between atoms: O_25  and  C_26
REMARK                            x       y       z     vdW  Elec       q    Type
REMARK                         _______ _______ _______ _____ _____    ______ ____
ROOT
ATOM      1  C   LIG A   1      -5.721   4.348 126.494  0.00  0.00    +0.162 A 
ATOM      2  C   LIG A   1      -6.404   3.801 127.589  0.00  0.00    +0.056 A 
ATOM      3  C   LIG A   1      -7.031   2.547 127.514  0.00  0.00    -0.009 A 
ATOM      4  C   LIG A   1      -6.997   1.811 126.317  0.00  0.00    -0.013 A 
ATOM      5  C   LIG A   1      -7.674   0.424 126.260  0.00  0.00    +0.076 C 
ATOM      6  C   LIG A   1      -9.165   0.469 125.872  0.00  0.00    +0.068 C 
ATOM      7  C   LIG A   1      -9.378   0.794 124.379  0.00  0.00    +0.143 C 
ATOM      8  C   LIG A   1      -8.448   0.003 123.486  0.00  0.00    +0.004 C 
ATOM      9  C   LIG A   1      -7.354  -0.644 123.933  0.00  0.00    +0.004 C 
ATOM     10  C   LIG A   1      -6.988  -0.554 125.316  0.00  0.00    -0.026 C 
ATOM     11  C   LIG A   1      -6.139  -1.350 125.986  0.00  0.00    -0.006 C 
ATOM     12  C   LIG A   1      -6.240  -1.053 127.444  0.00  0.00    +0.113 C 
ATOM     13  N   LIG A   1      -7.506  -0.307 127.549  0.00  0.00    -0.282 NA
ATOM     14  C   LIG A   1      -7.659   0.452 128.793  0.00  0.00    +0.122 C 
ATOM     15  C   LIG A   1      -7.772   1.990 128.700  0.00  0.00    +0.159 C 
ATOM     16  C   LIG A   1      -6.326   2.383 125.218  0.00  0.00    +0.055 A 
ATOM     17  C   LIG A   1      -5.701   3.639 125.286  0.00  0.00    +0.162 A 
ENDROOT
BRANCH   1  19
ATOM     18  C   LIG A   1      -3.928   5.572 127.530  0.00  0.00    +0.277 C 
ATOM     19  O   LIG A   1      -5.137   5.555 126.784  0.00  0.00    -0.491 OA
ENDBRANCH   1  19
BRANCH   7  20
ATOM     20  O   LIG A   1      -9.165   2.171 124.059  0.00  0.00    -0.376 OA
ATOM     21  C   LIG A   1      -9.023   2.436 122.671  0.00  0.00    +0.194 C 
ENDBRANCH   7  20
BRANCH  15  22
ATOM     22  O   LIG A   1      -9.145   2.386 128.632  0.00  0.00    -0.386 OA
ATOM     23  H   LIG A   1      -9.685   1.581 128.706  0.00  0.00    +0.210 HD
ENDBRANCH  15  22
BRANCH  17  24
ATOM     24  O   LIG A   1      -5.001   4.150 124.227  0.00  0.00    -0.491 OA
ATOM     25  C   LIG A   1      -5.635   4.126 122.955  0.00  0.00    +0.277 C 
ENDBRANCH  17  24
TORSDOF 4
ENDMDL
MODEL 6
REMARK VINA RESULT:      -6.0      6.817      9.921
REMARK  Name = NuBBE_165
REMARK  7 active torsions:
REMARK  status: ('A' for Active; 'I' for Inactive)
REMARK    1  A    between atoms: C_1  and  O_2
REMARK    2  A    between atoms: O_2  and  C_3
REMARK    3  A    between atoms: C_9  and  O_11
REMARK    4  A    between atoms: O_11  and  C_12
REMARK    5  A    between atoms: C_20  and  O_22
REMARK    6  A    between atoms: C_24  and  O_25
REMARK    7  A    between atoms: O_25  and  C_26
REMARK                            x       y       z     vdW  Elec       q    Type
REMARK                         _______ _______ _______ _____ _____    ______ ____
ROOT
ATOM      1  C   LIG A   1      -7.830   5.313 132.570  0.00  0.00    +0.162 A 
ATOM      2  C   LIG A   1      -6.755   4.539 133.031  0.00  0.00    +0.056 A 
ATOM      3  C   LIG A   1      -5.432   4.819 132.655  0.00  0.00    -0.009 A 
ATOM      4  C   LIG A   1      -5.156   5.888 131.785  0.00  0.00    -0.013 A 
ATOM      5  C   LIG A   1      -3.692   6.193 131.398  0.00  0.00    +0.076 C 
ATOM      6  C   LIG A   1      -3.192   5.416 130.165  0.00  0.00    +0.068 C 
ATOM      7  C   LIG A   1      -3.801   5.941 128.848  0.00  0.00    +0.143 C 
ATOM      8  C   LIG A   1      -3.781   7.452 128.776  0.00  0.00    +0.004 C 
ATOM      9  C   LIG A   1      -3.577   8.249 129.843  0.00  0.00    +0.004 C 
ATOM     10  C   LIG A   1      -3.421   7.670 131.145  0.00  0.00    -0.026 C 
ATOM     11  C   LIG A   1      -2.920   8.260 132.242  0.00  0.00    -0.006 C 
ATOM     12  C   LIG A   1      -2.717   7.229 133.300  0.00  0.00    +0.113 C 
ATOM     13  N   LIG A   1      -2.775   5.961 132.552  0.00  0.00    -0.282 NA
ATOM     14  C   LIG A   1      -3.005   4.777 133.384  0.00  0.00    +0.122 C 
ATOM     15  C   LIG A   1      -4.297   3.963 133.152  0.00  0.00    +0.159 C 
ATOM     16  C   LIG A   1      -6.247   6.643 131.311  0.00  0.00    +0.055 A 
ATOM     17  C   LIG A   1      -7.574   6.364 131.681  0.00  0.00    +0.162 A 
ENDROOT
BRANCH   1  19
ATOM     18  C   LIG A   1      -9.074   3.745 133.905  0.00  0.00    +0.277 C 
ATOM     19  O   LIG A   1      -9.033   4.909 133.091  0.00  0.00    -0.491 OA
ENDBRANCH   1  19
BRANCH   7  20
ATOM     20  O   LIG A   1      -5.161   5.549 128.651  0.00  0.00    -0.376 OA
ATOM     21  C   LIG A   1      -5.355   4.149 128.512  0.00  0.00    +0.194 C 
ENDBRANCH   7  20
BRANCH  15  22
ATOM     22  O   LIG A   1      -4.059   2.903 132.222  0.00  0.00    -0.386 OA
ATOM     23  H   LIG A   1      -4.896   2.423 132.105  0.00  0.00    +0.210 HD
ENDBRANCH  15  22
BRANCH  17  24
ATOM     24  O   LIG A   1      -8.615   7.147 131.260  0.00  0.00    -0.491 OA
ATOM     25  C   LIG A   1      -9.374   6.680 130.153  0.00  0.00    +0.277 C 
ENDBRANCH  17  24
TORSDOF 4
ENDMDL
MODEL 7
REMARK VINA RESULT:      -5.9      4.908      7.979
REMARK  Name = NuBBE_165
REMARK  7 active torsions:
REMARK  status: ('A' for Active; 'I' for Inactive)
REMARK    1  A    between atoms: C_1  and  O_2
REMARK    2  A    between atoms: O_2  and  C_3
REMARK    3  A    between atoms: C_9  and  O_11
REMARK    4  A    between atoms: O_11  and  C_12
REMARK    5  A    between atoms: C_20  and  O_22
REMARK    6  A    between atoms: C_24  and  O_25
REMARK    7  A    between atoms: O_25  and  C_26
REMARK                            x       y       z     vdW  Elec       q    Type
REMARK                         _______ _______ _______ _____ _____    ______ ____
ROOT
ATOM      1  C   LIG A   1      -6.269   3.673 127.774  0.00  0.00    +0.162 A 
ATOM      2  C   LIG A   1      -5.615   4.472 128.723  0.00  0.00    +0.056 A 
ATOM      3  C   LIG A   1      -6.317   5.110 129.757  0.00  0.00    -0.009 A 
ATOM      4  C   LIG A   1      -7.712   4.969 129.856  0.00  0.00    -0.013 A 
ATOM      5  C   LIG A   1      -8.465   5.661 131.013  0.00  0.00    +0.076 C 
ATOM      6  C   LIG A   1      -8.906   7.105 130.702  0.00  0.00    +0.068 C 
ATOM      7  C   LIG A   1     -10.086   7.161 129.709  0.00  0.00    +0.143 C 
ATOM      8  C   LIG A   1     -11.166   6.160 130.053  0.00  0.00    +0.004 C 
ATOM      9  C   LIG A   1     -10.988   5.128 130.900  0.00  0.00    +0.004 C 
ATOM     10  C   LIG A   1      -9.698   4.900 131.483  0.00  0.00    -0.026 C 
ATOM     11  C   LIG A   1      -9.411   4.137 132.550  0.00  0.00    -0.006 C 
ATOM     12  C   LIG A   1      -7.997   4.379 132.957  0.00  0.00    +0.113 C 
ATOM     13  N   LIG A   1      -7.658   5.636 132.268  0.00  0.00    -0.282 NA
ATOM     14  C   LIG A   1      -6.220   5.899 132.164  0.00  0.00    +0.122 C 
ATOM     15  C   LIG A   1      -5.593   5.976 130.754  0.00  0.00    +0.159 C 
ATOM     16  C   LIG A   1      -8.359   4.182 128.883  0.00  0.00    +0.055 A 
ATOM     17  C   LIG A   1      -7.662   3.545 127.843  0.00  0.00    +0.162 A 
ENDROOT
BRANCH   1  19
ATOM     18  C   LIG A   1      -4.143   3.718 126.650  0.00  0.00    +0.277 C 
ATOM     19  O   LIG A   1      -5.402   3.101 126.878  0.00  0.00    -0.491 OA
ENDBRANCH   1  19
BRANCH   7  20
ATOM     20  O   LIG A   1      -9.707   6.894 128.357  0.00  0.00    -0.376 OA
ATOM     21  C   LIG A   1     -10.635   7.353 127.385  0.00  0.00    +0.194 C 
ENDBRANCH   7  20
BRANCH  15  22
ATOM     22  O   LIG A   1      -5.579   7.328 130.287  0.00  0.00    -0.386 OA
ATOM     23  H   LIG A   1      -6.261   7.406 129.599  0.00  0.00    +0.210 HD
ENDBRANCH  15  22
BRANCH  17  24
ATOM     24  O   LIG A   1      -8.299   2.734 126.943  0.00  0.00    -0.491 OA
ATOM     25  C   LIG A   1      -8.578   1.401 127.350  0.00  0.00    +0.277 C 
ENDBRANCH  17  24
TORSDOF 4
ENDMDL
MODEL 8
REMARK VINA RESULT:      -5.9      2.115      4.783
REMARK  Name = NuBBE_165
REMARK  7 active torsions:
REMARK  status: ('A' for Active; 'I' for Inactive)
REMARK    1  A    between atoms: C_1  and  O_2
REMARK    2  A    between atoms: O_2  and  C_3
REMARK    3  A    between atoms: C_9  and  O_11
REMARK    4  A    between atoms: O_11  and  C_12
REMARK    5  A    between atoms: C_20  and  O_22
REMARK    6  A    between atoms: C_24  and  O_25
REMARK    7  A    between atoms: O_25  and  C_26
REMARK                            x       y       z     vdW  Elec       q    Type
REMARK                         _______ _______ _______ _____ _____    ______ ____
ROOT
ATOM      1  C   LIG A   1      -7.448  -0.447 128.365  0.00  0.00    +0.162 A 
ATOM      2  C   LIG A   1      -7.069   0.791 127.827  0.00  0.00    +0.056 A 
ATOM      3  C   LIG A   1      -7.217   1.076 126.460  0.00  0.00    -0.009 A 
ATOM      4  C   LIG A   1      -7.742   0.106 125.590  0.00  0.00    -0.013 A 
ATOM      5  C   LIG A   1      -7.917   0.445 124.093  0.00  0.00    +0.076 C 
ATOM      6  C   LIG A   1      -6.672   0.151 123.232  0.00  0.00    +0.068 C 
ATOM      7  C   LIG A   1      -6.450  -1.360 123.012  0.00  0.00    +0.143 C 
ATOM      8  C   LIG A   1      -7.732  -2.077 122.653  0.00  0.00    +0.004 C 
ATOM      9  C   LIG A   1      -8.959  -1.549 122.828  0.00  0.00    +0.004 C 
ATOM     10  C   LIG A   1      -9.098  -0.260 123.439  0.00  0.00    -0.026 C 
ATOM     11  C   LIG A   1     -10.178   0.537 123.418  0.00  0.00    -0.006 C 
ATOM     12  C   LIG A   1      -9.808   1.875 123.963  0.00  0.00    +0.113 C 
ATOM     13  N   LIG A   1      -8.336   1.865 123.911  0.00  0.00    -0.282 NA
ATOM     14  C   LIG A   1      -7.695   2.882 124.748  0.00  0.00    +0.122 C 
ATOM     15  C   LIG A   1      -6.787   2.408 125.905  0.00  0.00    +0.159 C 
ATOM     16  C   LIG A   1      -8.097  -1.142 126.139  0.00  0.00    +0.055 A 
ATOM     17  C   LIG A   1      -7.948  -1.433 127.505  0.00  0.00    +0.162 A 
ENDROOT
BRANCH   1  19
ATOM     18  C   LIG A   1      -8.196   0.158 130.569  0.00  0.00    +0.277 C 
ATOM     19  O   LIG A   1      -7.270  -0.509 129.723  0.00  0.00    -0.491 OA
ENDBRANCH   1  19
BRANCH   7  20
ATOM     20  O   LIG A   1      -5.922  -2.033 124.158  0.00  0.00    -0.376 OA
ATOM     21  C   LIG A   1      -5.573  -3.390 123.934  0.00  0.00    +0.194 C 
ENDBRANCH   7  20
BRANCH  15  22
ATOM     22  O   LIG A   1      -5.427   2.325 125.471  0.00  0.00    -0.386 OA
ATOM     23  H   LIG A   1      -5.045   1.520 125.859  0.00  0.00    +0.210 HD
ENDBRANCH  15  22
BRANCH  17  24
ATOM     24  O   LIG A   1      -8.356  -2.629 128.032  0.00  0.00    -0.491 OA
ATOM     25  C   LIG A   1      -8.853  -3.605 127.126  0.00  0.00    +0.277 C 
ENDBRANCH  17  24
TORSDOF 4
ENDMDL
MODEL 9
REMARK VINA RESULT:      -5.9      8.503     11.006
REMARK  Name = NuBBE_165
REMARK  7 active torsions:
REMARK  status: ('A' for Active; 'I' for Inactive)
REMARK    1  A    between atoms: C_1  and  O_2
REMARK    2  A    between atoms: O_2  and  C_3
REMARK    3  A    between atoms: C_9  and  O_11
REMARK    4  A    between atoms: O_11  and  C_12
REMARK    5  A    between atoms: C_20  and  O_22
REMARK    6  A    between atoms: C_24  and  O_25
REMARK    7  A    between atoms: O_25  and  C_26
REMARK                            x       y       z     vdW  Elec       q    Type
REMARK                         _______ _______ _______ _____ _____    ______ ____
ROOT
ATOM      1  C   LIG A   1      -7.036   6.820 131.208  0.00  0.00    +0.162 A 
ATOM      2  C   LIG A   1      -7.456   6.064 132.312  0.00  0.00    +0.056 A 
ATOM      3  C   LIG A   1      -6.542   5.567 133.254  0.00  0.00    -0.009 A 
ATOM      4  C   LIG A   1      -5.166   5.810 133.099  0.00  0.00    -0.013 A 
ATOM      5  C   LIG A   1      -4.177   5.273 134.157  0.00  0.00    +0.076 C 
ATOM      6  C   LIG A   1      -3.679   3.840 133.882  0.00  0.00    +0.068 C 
ATOM      7  C   LIG A   1      -2.681   3.777 132.708  0.00  0.00    +0.143 C 
ATOM      8  C   LIG A   1      -1.642   4.874 132.784  0.00  0.00    +0.004 C 
ATOM      9  C   LIG A   1      -1.760   5.962 133.570  0.00  0.00    +0.004 C 
ATOM     10  C   LIG A   1      -2.949   6.152 134.350  0.00  0.00    -0.026 C 
ATOM     11  C   LIG A   1      -3.114   6.984 135.390  0.00  0.00    -0.006 C 
ATOM     12  C   LIG A   1      -4.416   6.684 136.052  0.00  0.00    +0.113 C 
ATOM     13  N   LIG A   1      -4.763   5.352 135.527  0.00  0.00    -0.282 NA
ATOM     14  C   LIG A   1      -6.172   4.985 135.693  0.00  0.00    +0.122 C 
ATOM     15  C   LIG A   1      -7.017   4.744 134.422  0.00  0.00    +0.159 C 
ATOM     16  C   LIG A   1      -4.756   6.551 131.974  0.00  0.00    +0.055 A 
ATOM     17  C   LIG A   1      -5.666   7.047 131.026  0.00  0.00    +0.162 A 
ENDROOT
BRANCH   1  19
ATOM     18  C   LIG A   1      -9.402   6.848 130.775  0.00  0.00    +0.277 C 
ATOM     19  O   LIG A   1      -8.083   7.253 130.436  0.00  0.00    -0.491 OA
ENDBRANCH   1  19
BRANCH   7  20
ATOM     20  O   LIG A   1      -3.300   3.900 131.425  0.00  0.00    -0.376 OA
ATOM     21  C   LIG A   1      -4.169   2.830 131.086  0.00  0.00    +0.194 C 
ENDBRANCH   7  20
BRANCH  15  22
ATOM     22  O   LIG A   1      -7.000   3.359 134.066  0.00  0.00    -0.386 OA
ATOM     23  H   LIG A   1      -7.922   3.054 134.035  0.00  0.00    +0.210 HD
ENDBRANCH  15  22
BRANCH  17  24
ATOM     24  O   LIG A   1      -5.255   7.818 129.972  0.00  0.00    -0.491 OA
ATOM     25  C   LIG A   1      -3.857   8.024 129.821  0.00  0.00    +0.277 C 
ENDBRANCH  17  24
TORSDOF 4
ENDMDL
