MODEL 1
REMARK VINA RESULT:      -9.2      0.000      0.000
REMARK  Name = NuBBE_1063
REMARK  9 active torsions:
REMARK  status: ('A' for Active; 'I' for Inactive)
REMARK    1  A    between atoms: O_1  and  C_2
REMARK    2  A    between atoms: C_6  and  C_7
REMARK    3  A    between atoms: C_11  and  C_28
REMARK    4  A    between atoms: C_12  and  C_13
REMARK    5  A    between atoms: C_16  and  C_25
REMARK    6  A    between atoms: C_19  and  C_21
REMARK    7  A    between atoms: C_22  and  C_24
REMARK    8  A    between atoms: C_33  and  C_34
REMARK    9  A    between atoms: C_33  and  C_35
REMARK                            x       y       z     vdW  Elec       q    Type
REMARK                         _______ _______ _______ _____ _____    ______ ____
ROOT
ATOM      1  C   LIG A   1      -9.114  -1.184 124.552  0.00  0.00    +0.120 C 
ATOM      2  C   LIG A   1      -7.760  -0.618 124.180  0.00  0.00    +0.032 C 
ATOM      3  C   LIG A   1      -6.916  -0.406 125.411  0.00  0.00    +0.010 C 
ATOM      4  C   LIG A   1      -6.667  -1.830 126.156  0.00  0.00    -0.025 C 
ATOM      5  C   LIG A   1      -5.399  -2.329 125.428  0.00  0.00    +0.012 C 
ATOM      6  C   LIG A   1      -8.155  -2.450 126.255  0.00  0.00    +0.003 C 
ATOM      7  C   LIG A   1      -8.452  -3.358 127.474  0.00  0.00    +0.005 C 
ATOM      8  C   LIG A   1      -8.548  -2.560 128.803  0.00  0.00    +0.008 C 
ATOM      9  C   LIG A   1      -7.064  -2.326 129.285  0.00  0.00    -0.022 C 
ATOM     10  C   LIG A   1      -6.806  -1.182 130.881  0.00  0.00    -0.017 C 
ATOM     11  C   LIG A   1      -8.247  -0.854 131.452  0.00  0.00    +0.012 C 
ATOM     12  C   LIG A   1      -5.422   0.408 130.592  0.00  0.00    +0.066 C 
ATOM     13  C   LIG A   1      -5.191   0.877 131.871  0.00  0.00    +0.009 C 
ATOM     14  C   LIG A   1      -4.674  -0.840 131.665  0.00  0.00    -0.028 C 
ATOM     15  C   LIG A   1      -5.136  -1.281 129.798  0.00  0.00    +0.007 C 
ATOM     16  C   LIG A   1      -6.731  -0.014 129.171  0.00  0.00    +0.004 C 
ATOM     17  C   LIG A   1      -7.232   1.413 129.875  0.00  0.00    -0.011 C 
ATOM     18  C   LIG A   1      -8.743   1.604 129.541  0.00  0.00    +0.008 C 
ATOM     19  C   LIG A   1      -6.564   1.779 131.369  0.00  0.00    -0.007 C 
ATOM     20  C   LIG A   1      -6.189   3.284 131.236  0.00  0.00    +0.008 C 
ATOM     21  C   LIG A   1      -3.244  -1.446 131.660  0.00  0.00    +0.011 C 
ATOM     22  C   LIG A   1      -5.396  -1.435 132.847  0.00  0.00    +0.007 C 
ATOM     23  C   LIG A   1      -6.364  -2.196 132.075  0.00  0.00    +0.008 C 
ATOM     24  C   LIG A   1      -6.813  -3.835 129.799  0.00  0.00    +0.012 C 
ATOM     25  C   LIG A   1      -6.216  -1.634 127.671  0.00  0.00    +0.009 C 
ATOM     26  C   LIG A   1      -4.905  -0.322 127.641  0.00  0.00    +0.079 C 
ATOM     27  C   LIG A   1      -4.776   0.904 128.910  0.00  0.00    +0.138 C 
ATOM     28  O   LIG A   1      -4.258   2.001 128.719  0.00  0.00    -0.297 OA
ATOM     29  C   LIG A   1      -9.060  -2.785 124.999  0.00  0.00    -0.006 C 
ATOM     30  C   LIG A   1      -8.133  -4.138 124.836  0.00  0.00    +0.014 C 
ATOM     31  C   LIG A   1      -9.506  -3.159 123.528  0.00  0.00    +0.014 C 
ENDROOT
BRANCH   1  32
ATOM     32  O   LIG A   1      -9.855  -0.375 125.506  0.00  0.00    -0.391 OA
ATOM     33  H   LIG A   1     -10.634  -0.841 125.851  0.00  0.00    +0.210 HD
ENDBRANCH   1  32
TORSDOF 1
ENDMDL
MODEL 2
REMARK VINA RESULT:      -8.7      3.819      8.992
REMARK  Name = NuBBE_1063
REMARK  9 active torsions:
REMARK  status: ('A' for Active; 'I' for Inactive)
REMARK    1  A    between atoms: O_1  and  C_2
REMARK    2  A    between atoms: C_6  and  C_7
REMARK    3  A    between atoms: C_11  and  C_28
REMARK    4  A    between atoms: C_12  and  C_13
REMARK    5  A    between atoms: C_16  and  C_25
REMARK    6  A    between atoms: C_19  and  C_21
REMARK    7  A    between atoms: C_22  and  C_24
REMARK    8  A    between atoms: C_33  and  C_34
REMARK    9  A    between atoms: C_33  and  C_35
REMARK                            x       y       z     vdW  Elec       q    Type
REMARK                         _______ _______ _______ _____ _____    ______ ____
ROOT
ATOM      1  C   LIG A   1      -1.064   6.122 132.052  0.00  0.00    +0.120 C 
ATOM      2  C   LIG A   1      -1.530   6.348 130.629  0.00  0.00    +0.032 C 
ATOM      3  C   LIG A   1      -2.896   5.747 130.415  0.00  0.00    +0.010 C 
ATOM      4  C   LIG A   1      -3.970   6.461 131.405  0.00  0.00    -0.025 C 
ATOM      5  C   LIG A   1      -4.414   7.664 130.542  0.00  0.00    +0.012 C 
ATOM      6  C   LIG A   1      -3.237   6.392 132.843  0.00  0.00    +0.003 C 
ATOM      7  C   LIG A   1      -4.153   6.270 134.086  0.00  0.00    +0.005 C 
ATOM      8  C   LIG A   1      -4.818   4.871 134.203  0.00  0.00    +0.008 C 
ATOM      9  C   LIG A   1      -6.064   4.893 133.235  0.00  0.00    -0.022 C 
ATOM     10  C   LIG A   1      -7.056   3.194 133.006  0.00  0.00    -0.017 C 
ATOM     11  C   LIG A   1      -6.434   2.155 134.028  0.00  0.00    +0.012 C 
ATOM     12  C   LIG A   1      -7.324   2.614 130.976  0.00  0.00    +0.066 C 
ATOM     13  C   LIG A   1      -8.255   1.596 131.047  0.00  0.00    +0.009 C 
ATOM     14  C   LIG A   1      -8.909   3.168 131.648  0.00  0.00    -0.028 C 
ATOM     15  C   LIG A   1      -7.402   4.432 131.483  0.00  0.00    +0.007 C 
ATOM     16  C   LIG A   1      -5.577   3.333 131.561  0.00  0.00    +0.004 C 
ATOM     17  C   LIG A   1      -5.365   1.695 131.324  0.00  0.00    -0.011 C 
ATOM     18  C   LIG A   1      -4.093   1.261 132.114  0.00  0.00    +0.008 C 
ATOM     19  C   LIG A   1      -6.762   0.770 131.244  0.00  0.00    -0.007 C 
ATOM     20  C   LIG A   1      -6.506  -0.160 130.022  0.00  0.00    +0.008 C 
ATOM     21  C   LIG A   1     -10.000   4.083 131.029  0.00  0.00    +0.011 C 
ATOM     22  C   LIG A   1      -9.437   2.697 132.979  0.00  0.00    +0.007 C 
ATOM     23  C   LIG A   1      -8.463   3.403 133.795  0.00  0.00    +0.008 C 
ATOM     24  C   LIG A   1      -6.999   5.806 134.182  0.00  0.00    +0.012 C 
ATOM     25  C   LIG A   1      -5.286   5.581 131.584  0.00  0.00    +0.009 C 
ATOM     26  C   LIG A   1      -5.764   5.037 129.877  0.00  0.00    +0.079 C 
ATOM     27  C   LIG A   1      -6.419   3.425 129.557  0.00  0.00    +0.138 C 
ATOM     28  O   LIG A   1      -6.325   2.880 128.461  0.00  0.00    -0.297 OA
ATOM     29  C   LIG A   1      -1.847   7.079 133.163  0.00  0.00    -0.006 C 
ATOM     30  C   LIG A   1      -2.701   8.485 133.279  0.00  0.00    +0.014 C 
ATOM     31  C   LIG A   1      -0.615   8.070 133.105  0.00  0.00    +0.014 C 
ENDROOT
BRANCH   1  32
ATOM     32  O   LIG A   1      -1.040   4.725 132.454  0.00  0.00    -0.391 OA
ATOM     33  H   LIG A   1      -1.798   4.231 132.100  0.00  0.00    +0.210 HD
ENDBRANCH   1  32
TORSDOF 1
ENDMDL
MODEL 3
REMARK VINA RESULT:      -8.6      4.297      7.345
REMARK  Name = NuBBE_1063
REMARK  9 active torsions:
REMARK  status: ('A' for Active; 'I' for Inactive)
REMARK    1  A    between atoms: O_1  and  C_2
REMARK    2  A    between atoms: C_6  and  C_7
REMARK    3  A    between atoms: C_11  and  C_28
REMARK    4  A    between atoms: C_12  and  C_13
REMARK    5  A    between atoms: C_16  and  C_25
REMARK    6  A    between atoms: C_19  and  C_21
REMARK    7  A    between atoms: C_22  and  C_24
REMARK    8  A    between atoms: C_33  and  C_34
REMARK    9  A    between atoms: C_33  and  C_35
REMARK                            x       y       z     vdW  Elec       q    Type
REMARK                         _______ _______ _______ _____ _____    ______ ____
ROOT
ATOM      1  C   LIG A   1      -6.169  -0.959 133.010  0.00  0.00    +0.120 C 
ATOM      2  C   LIG A   1      -6.393  -0.925 131.513  0.00  0.00    +0.032 C 
ATOM      3  C   LIG A   1      -6.145   0.459 130.970  0.00  0.00    +0.010 C 
ATOM      4  C   LIG A   1      -4.601   0.887 131.247  0.00  0.00    -0.025 C 
ATOM      5  C   LIG A   1      -3.905   0.318 129.989  0.00  0.00    +0.012 C 
ATOM      6  C   LIG A   1      -4.410   0.555 132.816  0.00  0.00    +0.003 C 
ATOM      7  C   LIG A   1      -3.422   1.451 133.602  0.00  0.00    +0.005 C 
ATOM      8  C   LIG A   1      -3.971   2.886 133.832  0.00  0.00    +0.008 C 
ATOM      9  C   LIG A   1      -3.697   3.682 132.498  0.00  0.00    -0.022 C 
ATOM     10  C   LIG A   1      -4.428   5.519 132.379  0.00  0.00    -0.017 C 
ATOM     11  C   LIG A   1      -5.038   5.866 133.800  0.00  0.00    +0.012 C 
ATOM     12  C   LIG A   1      -5.598   5.875 130.637  0.00  0.00    +0.066 C 
ATOM     13  C   LIG A   1      -5.754   7.247 130.623  0.00  0.00    +0.009 C 
ATOM     14  C   LIG A   1      -4.024   6.751 130.483  0.00  0.00    -0.028 C 
ATOM     15  C   LIG A   1      -4.060   4.780 130.566  0.00  0.00    +0.007 C 
ATOM     16  C   LIG A   1      -5.810   4.173 131.621  0.00  0.00    +0.004 C 
ATOM     17  C   LIG A   1      -7.174   5.079 131.935  0.00  0.00    -0.011 C 
ATOM     18  C   LIG A   1      -7.832   4.518 133.232  0.00  0.00    +0.008 C 
ATOM     19  C   LIG A   1      -7.074   6.716 131.585  0.00  0.00    -0.007 C 
ATOM     20  C   LIG A   1      -8.416   7.009 130.852  0.00  0.00    +0.008 C 
ATOM     21  C   LIG A   1      -3.056   6.878 129.275  0.00  0.00    +0.011 C 
ATOM     22  C   LIG A   1      -3.456   7.604 131.589  0.00  0.00    +0.007 C 
ATOM     23  C   LIG A   1      -3.140   6.507 132.489  0.00  0.00    +0.008 C 
ATOM     24  C   LIG A   1      -2.112   3.871 132.736  0.00  0.00    +0.012 C 
ATOM     25  C   LIG A   1      -4.397   2.464 131.145  0.00  0.00    +0.009 C 
ATOM     26  C   LIG A   1      -5.279   2.988 129.600  0.00  0.00    +0.079 C 
ATOM     27  C   LIG A   1      -6.180   4.507 129.504  0.00  0.00    +0.138 C 
ATOM     28  O   LIG A   1      -7.106   4.678 128.716  0.00  0.00    -0.297 OA
ATOM     29  C   LIG A   1      -4.564  -0.893 133.439  0.00  0.00    -0.006 C 
ATOM     30  C   LIG A   1      -3.056  -1.185 132.839  0.00  0.00    +0.014 C 
ATOM     31  C   LIG A   1      -4.589  -2.468 133.587  0.00  0.00    +0.014 C 
ENDROOT
BRANCH   1  32
ATOM     32  O   LIG A   1      -6.973  -0.002 133.753  0.00  0.00    -0.391 OA
ATOM     33  H   LIG A   1      -6.522   0.853 133.852  0.00  0.00    +0.210 HD
ENDBRANCH   1  32
TORSDOF 1
ENDMDL
MODEL 4
REMARK VINA RESULT:      -8.5      3.388      5.985
REMARK  Name = NuBBE_1063
REMARK  9 active torsions:
REMARK  status: ('A' for Active; 'I' for Inactive)
REMARK    1  A    between atoms: O_1  and  C_2
REMARK    2  A    between atoms: C_6  and  C_7
REMARK    3  A    between atoms: C_11  and  C_28
REMARK    4  A    between atoms: C_12  and  C_13
REMARK    5  A    between atoms: C_16  and  C_25
REMARK    6  A    between atoms: C_19  and  C_21
REMARK    7  A    between atoms: C_22  and  C_24
REMARK    8  A    between atoms: C_33  and  C_34
REMARK    9  A    between atoms: C_33  and  C_35
REMARK                            x       y       z     vdW  Elec       q    Type
REMARK                         _______ _______ _______ _____ _____    ______ ____
ROOT
ATOM      1  C   LIG A   1      -4.861  -1.666 129.626  0.00  0.00    +0.120 C 
ATOM      2  C   LIG A   1      -3.944  -1.354 130.790  0.00  0.00    +0.032 C 
ATOM      3  C   LIG A   1      -4.324  -0.043 131.429  0.00  0.00    +0.010 C 
ATOM      4  C   LIG A   1      -5.841  -0.135 132.007  0.00  0.00    -0.025 C 
ATOM      5  C   LIG A   1      -5.585  -0.699 133.424  0.00  0.00    +0.012 C 
ATOM      6  C   LIG A   1      -6.669  -0.730 130.755  0.00  0.00    +0.003 C 
ATOM      7  C   LIG A   1      -8.148  -0.289 130.625  0.00  0.00    +0.005 C 
ATOM      8  C   LIG A   1      -8.292   1.196 130.192  0.00  0.00    +0.008 C 
ATOM      9  C   LIG A   1      -8.106   2.058 131.500  0.00  0.00    -0.022 C 
ATOM     10  C   LIG A   1      -8.061   4.026 131.283  0.00  0.00    -0.017 C 
ATOM     11  C   LIG A   1      -8.395   4.331 129.764  0.00  0.00    +0.012 C 
ATOM     12  C   LIG A   1      -6.369   4.958 132.176  0.00  0.00    +0.066 C 
ATOM     13  C   LIG A   1      -6.686   6.302 132.152  0.00  0.00    +0.009 C 
ATOM     14  C   LIG A   1      -7.841   5.341 133.153  0.00  0.00    -0.028 C 
ATOM     15  C   LIG A   1      -7.208   3.479 132.998  0.00  0.00    +0.007 C 
ATOM     16  C   LIG A   1      -6.134   3.272 131.169  0.00  0.00    +0.004 C 
ATOM     17  C   LIG A   1      -5.493   4.487 130.223  0.00  0.00    -0.011 C 
ATOM     18  C   LIG A   1      -5.430   3.966 128.755  0.00  0.00    +0.008 C 
ATOM     19  C   LIG A   1      -5.934   6.054 130.628  0.00  0.00    -0.007 C 
ATOM     20  C   LIG A   1      -4.587   6.833 130.568  0.00  0.00    +0.008 C 
ATOM     21  C   LIG A   1      -8.055   5.348 134.691  0.00  0.00    +0.011 C 
ATOM     22  C   LIG A   1      -9.127   5.820 132.531  0.00  0.00    +0.007 C 
ATOM     23  C   LIG A   1      -9.472   4.562 131.890  0.00  0.00    +0.008 C 
ATOM     24  C   LIG A   1      -9.558   1.732 132.125  0.00  0.00    +0.012 C 
ATOM     25  C   LIG A   1      -6.470   1.309 132.252  0.00  0.00    +0.009 C 
ATOM     26  C   LIG A   1      -5.162   2.286 133.132  0.00  0.00    +0.079 C 
ATOM     27  C   LIG A   1      -4.889   4.001 132.797  0.00  0.00    +0.138 C 
ATOM     28  O   LIG A   1      -3.808   4.549 132.995  0.00  0.00    -0.297 OA
ATOM     29  C   LIG A   1      -6.384  -2.141 130.095  0.00  0.00    -0.006 C 
ATOM     30  C   LIG A   1      -7.197  -2.777 131.380  0.00  0.00    +0.014 C 
ATOM     31  C   LIG A   1      -5.922  -3.641 129.904  0.00  0.00    +0.014 C 
ENDROOT
BRANCH   1  32
ATOM     32  O   LIG A   1      -4.901  -0.631 128.606  0.00  0.00    -0.391 OA
ATOM     33  H   LIG A   1      -5.690  -0.071 128.686  0.00  0.00    +0.210 HD
ENDBRANCH   1  32
TORSDOF 1
ENDMDL
MODEL 5
REMARK VINA RESULT:      -8.4      3.943      8.549
REMARK  Name = NuBBE_1063
REMARK  9 active torsions:
REMARK  status: ('A' for Active; 'I' for Inactive)
REMARK    1  A    between atoms: O_1  and  C_2
REMARK    2  A    between atoms: C_6  and  C_7
REMARK    3  A    between atoms: C_11  and  C_28
REMARK    4  A    between atoms: C_12  and  C_13
REMARK    5  A    between atoms: C_16  and  C_25
REMARK    6  A    between atoms: C_19  and  C_21
REMARK    7  A    between atoms: C_22  and  C_24
REMARK    8  A    between atoms: C_33  and  C_34
REMARK    9  A    between atoms: C_33  and  C_35
REMARK                            x       y       z     vdW  Elec       q    Type
REMARK                         _______ _______ _______ _____ _____    ______ ____
ROOT
ATOM      1  C   LIG A   1      -1.993   5.844 133.564  0.00  0.00    +0.120 C 
ATOM      2  C   LIG A   1      -1.408   4.952 132.489  0.00  0.00    +0.032 C 
ATOM      3  C   LIG A   1      -2.488   4.124 131.841  0.00  0.00    +0.010 C 
ATOM      4  C   LIG A   1      -3.577   5.102 131.132  0.00  0.00    -0.025 C 
ATOM      5  C   LIG A   1      -2.943   5.287 129.734  0.00  0.00    +0.012 C 
ATOM      6  C   LIG A   1      -3.920   6.165 132.298  0.00  0.00    +0.003 C 
ATOM      7  C   LIG A   1      -5.354   6.751 132.306  0.00  0.00    +0.005 C 
ATOM      8  C   LIG A   1      -6.420   5.712 132.750  0.00  0.00    +0.008 C 
ATOM      9  C   LIG A   1      -6.740   4.837 131.476  0.00  0.00    -0.022 C 
ATOM     10  C   LIG A   1      -7.950   3.289 131.728  0.00  0.00    -0.017 C 
ATOM     11  C   LIG A   1      -8.488   3.362 133.217  0.00  0.00    +0.012 C 
ATOM     12  C   LIG A   1      -7.167   1.450 131.000  0.00  0.00    +0.066 C 
ATOM     13  C   LIG A   1      -8.256   0.601 131.018  0.00  0.00    +0.009 C 
ATOM     14  C   LIG A   1      -8.495   2.002 129.905  0.00  0.00    -0.028 C 
ATOM     15  C   LIG A   1      -6.845   3.070 130.085  0.00  0.00    +0.007 C 
ATOM     16  C   LIG A   1      -5.986   2.685 131.997  0.00  0.00    +0.004 C 
ATOM     17  C   LIG A   1      -6.303   1.401 133.014  0.00  0.00    -0.011 C 
ATOM     18  C   LIG A   1      -6.012   1.867 134.473  0.00  0.00    +0.008 C 
ATOM     19  C   LIG A   1      -7.604   0.428 132.598  0.00  0.00    -0.007 C 
ATOM     20  C   LIG A   1      -7.048  -1.014 132.786  0.00  0.00    +0.008 C 
ATOM     21  C   LIG A   1      -8.577   2.028 128.355  0.00  0.00    +0.011 C 
ATOM     22  C   LIG A   1      -9.831   2.472 130.421  0.00  0.00    +0.007 C 
ATOM     23  C   LIG A   1      -9.348   3.710 131.010  0.00  0.00    +0.008 C 
ATOM     24  C   LIG A   1      -7.629   5.953 130.723  0.00  0.00    +0.012 C 
ATOM     25  C   LIG A   1      -4.955   4.352 130.857  0.00  0.00    +0.009 C 
ATOM     26  C   LIG A   1      -4.500   2.717 130.110  0.00  0.00    +0.079 C 
ATOM     27  C   LIG A   1      -5.381   1.232 130.495  0.00  0.00    +0.138 C 
ATOM     28  O   LIG A   1      -4.872   0.118 130.400  0.00  0.00    -0.297 OA
ATOM     29  C   LIG A   1      -2.853   7.131 132.958  0.00  0.00    -0.006 C 
ATOM     30  C   LIG A   1      -3.013   8.048 131.597  0.00  0.00    +0.014 C 
ATOM     31  C   LIG A   1      -1.565   8.026 133.164  0.00  0.00    +0.014 C 
ENDROOT
BRANCH   1  32
ATOM     32  O   LIG A   1      -2.730   5.130 134.593  0.00  0.00    -0.391 OA
ATOM     33  H   LIG A   1      -3.658   5.416 134.642  0.00  0.00    +0.210 HD
ENDBRANCH   1  32
TORSDOF 1
ENDMDL
MODEL 6
REMARK VINA RESULT:      -8.4      3.217      6.592
REMARK  Name = NuBBE_1063
REMARK  9 active torsions:
REMARK  status: ('A' for Active; 'I' for Inactive)
REMARK    1  A    between atoms: O_1  and  C_2
REMARK    2  A    between atoms: C_6  and  C_7
REMARK    3  A    between atoms: C_11  and  C_28
REMARK    4  A    between atoms: C_12  and  C_13
REMARK    5  A    between atoms: C_16  and  C_25
REMARK    6  A    between atoms: C_19  and  C_21
REMARK    7  A    between atoms: C_22  and  C_24
REMARK    8  A    between atoms: C_33  and  C_34
REMARK    9  A    between atoms: C_33  and  C_35
REMARK                            x       y       z     vdW  Elec       q    Type
REMARK                         _______ _______ _______ _____ _____    ______ ____
ROOT
ATOM      1  C   LIG A   1      -7.953  -1.018 131.734  0.00  0.00    +0.120 C 
ATOM      2  C   LIG A   1      -9.065   0.009 131.699  0.00  0.00    +0.032 C 
ATOM      3  C   LIG A   1      -8.501   1.406 131.769  0.00  0.00    +0.010 C 
ATOM      4  C   LIG A   1      -7.542   1.674 130.483  0.00  0.00    -0.025 C 
ATOM      5  C   LIG A   1      -8.569   2.189 129.449  0.00  0.00    +0.012 C 
ATOM      6  C   LIG A   1      -6.578   0.378 130.476  0.00  0.00    +0.003 C 
ATOM      7  C   LIG A   1      -5.141   0.582 129.936  0.00  0.00    +0.005 C 
ATOM      8  C   LIG A   1      -4.251   1.410 130.904  0.00  0.00    +0.008 C 
ATOM      9  C   LIG A   1      -4.609   2.925 130.646  0.00  0.00    -0.022 C 
ATOM     10  C   LIG A   1      -3.772   4.264 131.842  0.00  0.00    -0.017 C 
ATOM     11  C   LIG A   1      -2.742   3.484 132.759  0.00  0.00    +0.012 C 
ATOM     12  C   LIG A   1      -5.157   5.601 132.749  0.00  0.00    +0.066 C 
ATOM     13  C   LIG A   1      -4.354   6.587 133.287  0.00  0.00    +0.009 C 
ATOM     14  C   LIG A   1      -4.213   6.490 131.490  0.00  0.00    -0.028 C 
ATOM     15  C   LIG A   1      -5.405   5.005 130.973  0.00  0.00    +0.007 C 
ATOM     16  C   LIG A   1      -5.597   3.676 132.629  0.00  0.00    +0.004 C 
ATOM     17  C   LIG A   1      -5.241   3.987 134.228  0.00  0.00    -0.011 C 
ATOM     18  C   LIG A   1      -4.884   2.630 134.909  0.00  0.00    +0.008 C 
ATOM     19  C   LIG A   1      -4.428   5.419 134.544  0.00  0.00    -0.007 C 
ATOM     20  C   LIG A   1      -5.192   6.004 135.767  0.00  0.00    +0.008 C 
ATOM     21  C   LIG A   1      -4.680   7.501 130.408  0.00  0.00    +0.011 C 
ATOM     22  C   LIG A   1      -2.711   6.405 131.388  0.00  0.00    +0.007 C 
ATOM     23  C   LIG A   1      -2.662   5.026 130.930  0.00  0.00    +0.008 C 
ATOM     24  C   LIG A   1      -3.815   3.050 129.247  0.00  0.00    +0.012 C 
ATOM     25  C   LIG A   1      -6.557   2.903 130.726  0.00  0.00    +0.009 C 
ATOM     26  C   LIG A   1      -7.605   4.254 131.444  0.00  0.00    +0.079 C 
ATOM     27  C   LIG A   1      -7.006   5.332 132.712  0.00  0.00    +0.138 C 
ATOM     28  O   LIG A   1      -7.753   5.905 133.499  0.00  0.00    -0.297 OA
ATOM     29  C   LIG A   1      -7.095  -1.110 130.313  0.00  0.00    -0.006 C 
ATOM     30  C   LIG A   1      -7.223  -0.766 128.705  0.00  0.00    +0.014 C 
ATOM     31  C   LIG A   1      -7.988  -2.352 129.910  0.00  0.00    +0.014 C 
ENDROOT
BRANCH   1  32
ATOM     32  O   LIG A   1      -7.082  -0.912 132.892  0.00  0.00    -0.391 OA
ATOM     33  H   LIG A   1      -6.157  -0.752 132.640  0.00  0.00    +0.210 HD
ENDBRANCH   1  32
TORSDOF 1
ENDMDL
MODEL 7
REMARK VINA RESULT:      -8.3      2.977      5.378
REMARK  Name = NuBBE_1063
REMARK  9 active torsions:
REMARK  status: ('A' for Active; 'I' for Inactive)
REMARK    1  A    between atoms: O_1  and  C_2
REMARK    2  A    between atoms: C_6  and  C_7
REMARK    3  A    between atoms: C_11  and  C_28
REMARK    4  A    between atoms: C_12  and  C_13
REMARK    5  A    between atoms: C_16  and  C_25
REMARK    6  A    between atoms: C_19  and  C_21
REMARK    7  A    between atoms: C_22  and  C_24
REMARK    8  A    between atoms: C_33  and  C_34
REMARK    9  A    between atoms: C_33  and  C_35
REMARK                            x       y       z     vdW  Elec       q    Type
REMARK                         _______ _______ _______ _____ _____    ______ ____
ROOT
ATOM      1  C   LIG A   1      -4.472  -3.607 129.834  0.00  0.00    +0.120 C 
ATOM      2  C   LIG A   1      -3.415  -2.795 130.553  0.00  0.00    +0.032 C 
ATOM      3  C   LIG A   1      -3.828  -1.349 130.647  0.00  0.00    +0.010 C 
ATOM      4  C   LIG A   1      -5.207  -1.228 131.501  0.00  0.00    -0.025 C 
ATOM      5  C   LIG A   1      -4.656  -1.118 132.940  0.00  0.00    +0.012 C 
ATOM      6  C   LIG A   1      -6.160  -2.331 130.804  0.00  0.00    +0.003 C 
ATOM      7  C   LIG A   1      -7.680  -2.034 130.800  0.00  0.00    +0.005 C 
ATOM      8  C   LIG A   1      -8.061  -0.887 129.824  0.00  0.00    +0.008 C 
ATOM      9  C   LIG A   1      -7.758   0.461 130.587  0.00  0.00    -0.022 C 
ATOM     10  C   LIG A   1      -7.972   2.143 129.563  0.00  0.00    -0.017 C 
ATOM     11  C   LIG A   1      -8.588   1.752 128.156  0.00  0.00    +0.012 C 
ATOM     12  C   LIG A   1      -6.271   3.419 129.628  0.00  0.00    +0.066 C 
ATOM     13  C   LIG A   1      -6.737   4.612 129.109  0.00  0.00    +0.009 C 
ATOM     14  C   LIG A   1      -7.593   4.142 130.628  0.00  0.00    -0.028 C 
ATOM     15  C   LIG A   1      -6.788   2.416 131.142  0.00  0.00    +0.007 C 
ATOM     16  C   LIG A   1      -6.019   1.472 129.393  0.00  0.00    +0.004 C 
ATOM     17  C   LIG A   1      -5.686   2.179 127.919  0.00  0.00    -0.011 C 
ATOM     18  C   LIG A   1      -5.811   1.077 126.823  0.00  0.00    +0.008 C 
ATOM     19  C   LIG A   1      -6.228   3.753 127.712  0.00  0.00    -0.007 C 
ATOM     20  C   LIG A   1      -5.007   4.470 127.065  0.00  0.00    +0.008 C 
ATOM     21  C   LIG A   1      -7.546   4.805 132.031  0.00  0.00    +0.011 C 
ATOM     22  C   LIG A   1      -9.011   4.267 130.133  0.00  0.00    +0.007 C 
ATOM     23  C   LIG A   1      -9.313   2.845 130.159  0.00  0.00    +0.008 C 
ATOM     24  C   LIG A   1      -9.038   0.393 131.566  0.00  0.00    +0.012 C 
ATOM     25  C   LIG A   1      -5.945   0.160 131.240  0.00  0.00    +0.009 C 
ATOM     26  C   LIG A   1      -4.627   1.460 131.351  0.00  0.00    +0.079 C 
ATOM     27  C   LIG A   1      -4.610   2.870 130.283  0.00  0.00    +0.138 C 
ATOM     28  O   LIG A   1      -3.580   3.482 130.014  0.00  0.00    -0.297 OA
ATOM     29  C   LIG A   1      -5.832  -3.879 130.751  0.00  0.00    -0.006 C 
ATOM     30  C   LIG A   1      -6.341  -3.923 132.319  0.00  0.00    +0.014 C 
ATOM     31  C   LIG A   1      -5.242  -5.300 131.117  0.00  0.00    +0.014 C 
ENDROOT
BRANCH   1  32
ATOM     32  O   LIG A   1      -4.798  -3.115 128.506  0.00  0.00    -0.391 OA
ATOM     33  H   LIG A   1      -4.400  -3.662 127.807  0.00  0.00    +0.210 HD
ENDBRANCH   1  32
TORSDOF 1
ENDMDL
MODEL 8
REMARK VINA RESULT:      -8.2      2.969      4.170
REMARK  Name = NuBBE_1063
REMARK  9 active torsions:
REMARK  status: ('A' for Active; 'I' for Inactive)
REMARK    1  A    between atoms: O_1  and  C_2
REMARK    2  A    between atoms: C_6  and  C_7
REMARK    3  A    between atoms: C_11  and  C_28
REMARK    4  A    between atoms: C_12  and  C_13
REMARK    5  A    between atoms: C_16  and  C_25
REMARK    6  A    between atoms: C_19  and  C_21
REMARK    7  A    between atoms: C_22  and  C_24
REMARK    8  A    between atoms: C_33  and  C_34
REMARK    9  A    between atoms: C_33  and  C_35
REMARK                            x       y       z     vdW  Elec       q    Type
REMARK                         _______ _______ _______ _____ _____    ______ ____
ROOT
ATOM      1  C   LIG A   1      -7.260   4.028 124.320  0.00  0.00    +0.120 C 
ATOM      2  C   LIG A   1      -5.844   4.389 124.718  0.00  0.00    +0.032 C 
ATOM      3  C   LIG A   1      -5.620   4.124 126.185  0.00  0.00    +0.010 C 
ATOM      4  C   LIG A   1      -5.831   2.541 126.494  0.00  0.00    -0.025 C 
ATOM      5  C   LIG A   1      -4.410   1.995 126.225  0.00  0.00    +0.012 C 
ATOM      6  C   LIG A   1      -7.249   2.222 125.790  0.00  0.00    +0.003 C 
ATOM      7  C   LIG A   1      -8.120   1.121 126.445  0.00  0.00    +0.005 C 
ATOM      8  C   LIG A   1      -8.737   1.575 127.797  0.00  0.00    +0.008 C 
ATOM      9  C   LIG A   1      -7.607   1.387 128.883  0.00  0.00    -0.022 C 
ATOM     10  C   LIG A   1      -8.001   2.034 130.713  0.00  0.00    -0.017 C 
ATOM     11  C   LIG A   1      -9.519   2.490 130.724  0.00  0.00    +0.012 C 
ATOM     12  C   LIG A   1      -6.522   3.341 131.506  0.00  0.00    +0.066 C 
ATOM     13  C   LIG A   1      -6.849   3.430 132.846  0.00  0.00    +0.009 C 
ATOM     14  C   LIG A   1      -6.419   1.747 132.353  0.00  0.00    -0.028 C 
ATOM     15  C   LIG A   1      -6.037   1.874 130.421  0.00  0.00    +0.007 C 
ATOM     16  C   LIG A   1      -7.093   3.545 129.624  0.00  0.00    +0.004 C 
ATOM     17  C   LIG A   1      -7.750   4.827 130.464  0.00  0.00    -0.011 C 
ATOM     18  C   LIG A   1      -8.938   5.388 129.625  0.00  0.00    +0.008 C 
ATOM     19  C   LIG A   1      -7.788   4.679 132.134  0.00  0.00    -0.007 C 
ATOM     20  C   LIG A   1      -7.286   6.067 132.629  0.00  0.00    +0.008 C 
ATOM     21  C   LIG A   1      -5.182   0.891 132.740  0.00  0.00    +0.011 C 
ATOM     22  C   LIG A   1      -7.630   1.037 132.900  0.00  0.00    +0.007 C 
ATOM     23  C   LIG A   1      -8.208   0.694 131.611  0.00  0.00    +0.008 C 
ATOM     24  C   LIG A   1      -7.719  -0.221 128.967  0.00  0.00    +0.012 C 
ATOM     25  C   LIG A   1      -6.084   2.270 128.044  0.00  0.00    +0.009 C 
ATOM     26  C   LIG A   1      -4.805   3.265 128.945  0.00  0.00    +0.079 C 
ATOM     27  C   LIG A   1      -5.164   4.094 130.467  0.00  0.00    +0.138 C 
ATOM     28  O   LIG A   1      -4.538   5.080 130.845  0.00  0.00    -0.297 OA
ATOM     29  C   LIG A   1      -7.525   2.388 124.240  0.00  0.00    -0.006 C 
ATOM     30  C   LIG A   1      -6.721   0.960 124.061  0.00  0.00    +0.014 C 
ATOM     31  C   LIG A   1      -7.298   2.478 122.677  0.00  0.00    +0.014 C 
ENDROOT
BRANCH   1  32
ATOM     32  O   LIG A   1      -8.286   4.710 125.091  0.00  0.00    -0.391 OA
ATOM     33  H   LIG A   1      -8.109   5.662 125.171  0.00  0.00    +0.210 HD
ENDBRANCH   1  32
TORSDOF 1
ENDMDL
MODEL 9
REMARK VINA RESULT:      -8.1      3.421      6.318
REMARK  Name = NuBBE_1063
REMARK  9 active torsions:
REMARK  status: ('A' for Active; 'I' for Inactive)
REMARK    1  A    between atoms: O_1  and  C_2
REMARK    2  A    between atoms: C_6  and  C_7
REMARK    3  A    between atoms: C_11  and  C_28
REMARK    4  A    between atoms: C_12  and  C_13
REMARK    5  A    between atoms: C_16  and  C_25
REMARK    6  A    between atoms: C_19  and  C_21
REMARK    7  A    between atoms: C_22  and  C_24
REMARK    8  A    between atoms: C_33  and  C_34
REMARK    9  A    between atoms: C_33  and  C_35
REMARK                            x       y       z     vdW  Elec       q    Type
REMARK                         _______ _______ _______ _____ _____    ______ ____
ROOT
ATOM      1  C   LIG A   1      -7.529  -1.834 131.819  0.00  0.00    +0.120 C 
ATOM      2  C   LIG A   1      -7.822  -1.453 130.384  0.00  0.00    +0.032 C 
ATOM      3  C   LIG A   1      -7.555   0.013 130.157  0.00  0.00    +0.010 C 
ATOM      4  C   LIG A   1      -5.986   0.334 130.442  0.00  0.00    -0.025 C 
ATOM      5  C   LIG A   1      -5.370   0.054 129.053  0.00  0.00    +0.012 C 
ATOM      6  C   LIG A   1      -5.733  -0.353 131.881  0.00  0.00    +0.003 C 
ATOM      7  C   LIG A   1      -4.680   0.318 132.798  0.00  0.00    +0.005 C 
ATOM      8  C   LIG A   1      -5.170   1.672 133.378  0.00  0.00    +0.008 C 
ATOM      9  C   LIG A   1      -4.934   2.748 132.248  0.00  0.00    -0.022 C 
ATOM     10  C   LIG A   1      -5.609   4.578 132.590  0.00  0.00    -0.017 C 
ATOM     11  C   LIG A   1      -6.140   4.602 134.083  0.00  0.00    +0.012 C 
ATOM     12  C   LIG A   1      -6.848   5.348 131.041  0.00  0.00    +0.066 C 
ATOM     13  C   LIG A   1      -6.959   6.690 131.348  0.00  0.00    +0.009 C 
ATOM     14  C   LIG A   1      -5.255   6.203 131.006  0.00  0.00    -0.028 C 
ATOM     15  C   LIG A   1      -5.352   4.267 130.639  0.00  0.00    +0.007 C 
ATOM     16  C   LIG A   1      -7.068   3.471 131.620  0.00  0.00    +0.004 C 
ATOM     17  C   LIG A   1      -8.386   4.310 132.205  0.00  0.00    -0.011 C 
ATOM     18  C   LIG A   1      -8.999   3.479 133.374  0.00  0.00    +0.008 C 
ATOM     19  C   LIG A   1      -8.249   5.981 132.233  0.00  0.00    -0.007 C 
ATOM     20  C   LIG A   1      -9.614   6.462 131.659  0.00  0.00    +0.008 C 
ATOM     21  C   LIG A   1      -4.342   6.584 129.809  0.00  0.00    +0.011 C 
ATOM     22  C   LIG A   1      -4.608   6.767 132.245  0.00  0.00    +0.007 C 
ATOM     23  C   LIG A   1      -4.286   5.487 132.853  0.00  0.00    +0.008 C 
ATOM     24  C   LIG A   1      -3.334   2.843 132.437  0.00  0.00    +0.012 C 
ATOM     25  C   LIG A   1      -5.736   1.888 130.692  0.00  0.00    +0.009 C 
ATOM     26  C   LIG A   1      -6.673   2.771 129.357  0.00  0.00    +0.079 C 
ATOM     27  C   LIG A   1      -7.527   4.290 129.659  0.00  0.00    +0.138 C 
ATOM     28  O   LIG A   1      -8.483   4.656 128.981  0.00  0.00    -0.297 OA
ATOM     29  C   LIG A   1      -5.904  -1.902 132.165  0.00  0.00    -0.006 C 
ATOM     30  C   LIG A   1      -4.437  -2.080 131.434  0.00  0.00    +0.014 C 
ATOM     31  C   LIG A   1      -5.974  -3.467 131.951  0.00  0.00    +0.014 C 
ENDROOT
BRANCH   1  32
ATOM     32  O   LIG A   1      -8.265  -1.056 132.803  0.00  0.00    -0.391 OA
ATOM     33  H   LIG A   1      -8.846  -1.614 133.347  0.00  0.00    +0.210 HD
ENDBRANCH   1  32
TORSDOF 1
ENDMDL
