MODEL 1
REMARK VINA RESULT:      -7.3      0.000      0.000
REMARK  Name = NuBBE_511
REMARK  12 active torsions:
REMARK  status: ('A' for Active; 'I' for Inactive)
REMARK    1  A    between atoms: C_2  and  C_3
REMARK    2  A    between atoms: C_2  and  O_13
REMARK    3  A    between atoms: C_4  and  C_5
REMARK    4  A    between atoms: C_7  and  O_8
REMARK    5  A    between atoms: C_9  and  O_10
REMARK    6  A    between atoms: O_13  and  C_14
REMARK    7  A    between atoms: C_17  and  O_18
REMARK    8  A    between atoms: C_17  and  C_19
REMARK    9  A    between atoms: C_19  and  O_20
REMARK   10  A    between atoms: O_20  and  C_21
REMARK   11  A    between atoms: C_24  and  O_26
REMARK   12  A    between atoms: C_27  and  O_29
REMARK                            x       y       z     vdW  Elec       q    Type
REMARK                         _______ _______ _______ _____ _____    ______ ____
ROOT
ATOM      1  C   LIG A   1      -9.690   4.460 130.845  0.00  0.00    +0.211 C 
ATOM      2  C   LIG A   1      -9.300   4.789 129.398  0.00  0.00    +0.093 C 
ATOM      3  C   LIG A   1      -8.080   3.999 128.918  0.00  0.00    +0.168 C 
ATOM      4  C   LIG A   1      -8.262   2.490 129.132  0.00  0.00    +0.080 C 
ATOM      5  C   LIG A   1      -8.633   2.155 130.574  0.00  0.00    +0.150 C 
ATOM      6  C   LIG A   1      -9.869   2.940 131.031  0.00  0.00    +0.184 C 
ENDROOT
BRANCH   3   7
ATOM      7  O   LIG A   1      -6.950   4.395 129.709  0.00  0.00    -0.377 OA
ATOM      8  H   LIG A   1      -6.712   5.300 129.419  0.00  0.00    +0.211 HD
ENDBRANCH   3   7
BRANCH   3   9
ATOM      9  C   LIG A   1      -7.873   4.277 127.415  0.00  0.00    +0.339 C 
ATOM     10  O   LIG A   1      -8.439   5.153 126.770  0.00  0.00    -0.248 OA
BRANCH   9  11
ATOM     11  O   LIG A   1      -6.926   3.425 126.919  0.00  0.00    -0.466 OA
ATOM     12  C   LIG A   1      -5.737   4.074 126.466  0.00  0.00    +0.280 C 
ENDBRANCH   9  11
ENDBRANCH   3   9
BRANCH   5  13
ATOM     13  O   LIG A   1      -7.548   2.429 131.471  0.00  0.00    -0.389 OA
ATOM     14  H   LIG A   1      -7.194   1.567 131.782  0.00  0.00    +0.210 HD
ENDBRANCH   5  13
BRANCH   6  15
ATOM     15  O   LIG A   1     -10.112   2.644 132.413  0.00  0.00    -0.386 OA
ATOM     16  H   LIG A   1      -9.346   2.112 132.709  0.00  0.00    +0.210 HD
ENDBRANCH   6  15
BRANCH   1  17
ATOM     17  O   LIG A   1     -10.976   5.059 131.105  0.00  0.00    -0.456 OA
BRANCH  17  19
ATOM     18  O   LIG A   1     -10.150   6.512 132.684  0.00  0.00    -0.246 OA
ATOM     19  C   LIG A   1     -11.037   6.116 131.931  0.00  0.00    +0.332 C 
BRANCH  19  20
ATOM     20  C   LIG A   1     -12.311   6.849 131.722  0.00  0.00    +0.092 C 
ATOM     21  C   LIG A   1     -12.806   7.488 130.651  0.00  0.00    +0.015 C 
BRANCH  21  22
ATOM     22  C   LIG A   1     -12.268   7.667 129.287  0.00  0.00    -0.021 A 
ATOM     23  C   LIG A   1     -12.826   6.983 128.194  0.00  0.00    +0.057 A 
ATOM     24  C   LIG A   1     -12.237   7.095 126.929  0.00  0.00    +0.159 A 
ATOM     25  C   LIG A   1     -11.095   7.871 126.745  0.00  0.00    +0.158 A 
ATOM     26  C   LIG A   1     -10.533   8.552 127.812  0.00  0.00    +0.050 A 
ATOM     27  C   LIG A   1     -11.119   8.448 129.082  0.00  0.00    +0.012 A 
BRANCH  24  28
ATOM     28  O   LIG A   1     -12.742   6.451 125.832  0.00  0.00    -0.503 OA
ATOM     29  H   LIG A   1     -13.705   6.580 125.817  0.00  0.00    +0.292 HD
ENDBRANCH  24  28
BRANCH  25  30
ATOM     30  O   LIG A   1     -10.509   7.967 125.516  0.00  0.00    -0.503 OA
ATOM     31  H   LIG A   1     -10.818   8.819 125.150  0.00  0.00    +0.292 HD
ENDBRANCH  25  30
ENDBRANCH  21  22
ENDBRANCH  19  20
ENDBRANCH  17  19
ENDBRANCH   1  17
TORSDOF 11
ENDMDL
MODEL 2
REMARK VINA RESULT:      -7.1      6.037      9.524
REMARK  Name = NuBBE_511
REMARK  12 active torsions:
REMARK  status: ('A' for Active; 'I' for Inactive)
REMARK    1  A    between atoms: C_2  and  C_3
REMARK    2  A    between atoms: C_2  and  O_13
REMARK    3  A    between atoms: C_4  and  C_5
REMARK    4  A    between atoms: C_7  and  O_8
REMARK    5  A    between atoms: C_9  and  O_10
REMARK    6  A    between atoms: O_13  and  C_14
REMARK    7  A    between atoms: C_17  and  O_18
REMARK    8  A    between atoms: C_17  and  C_19
REMARK    9  A    between atoms: C_19  and  O_20
REMARK   10  A    between atoms: O_20  and  C_21
REMARK   11  A    between atoms: C_24  and  O_26
REMARK   12  A    between atoms: C_27  and  O_29
REMARK                            x       y       z     vdW  Elec       q    Type
REMARK                         _______ _______ _______ _____ _____    ______ ____
ROOT
ATOM      1  C   LIG A   1      -8.254   0.985 123.601  0.00  0.00    +0.211 C 
ATOM      2  C   LIG A   1      -7.251   1.606 122.619  0.00  0.00    +0.093 C 
ATOM      3  C   LIG A   1      -7.139   3.125 122.766  0.00  0.00    +0.168 C 
ATOM      4  C   LIG A   1      -6.848   3.535 124.217  0.00  0.00    +0.080 C 
ATOM      5  C   LIG A   1      -7.854   2.934 125.195  0.00  0.00    +0.150 C 
ATOM      6  C   LIG A   1      -7.938   1.410 125.048  0.00  0.00    +0.184 C 
ENDROOT
BRANCH   3   7
ATOM      7  O   LIG A   1      -8.407   3.702 122.420  0.00  0.00    -0.377 OA
ATOM      8  H   LIG A   1      -8.952   2.976 122.053  0.00  0.00    +0.211 HD
ENDBRANCH   3   7
BRANCH   3   9
ATOM      9  C   LIG A   1      -5.996   3.625 121.858  0.00  0.00    +0.339 C 
ATOM     10  O   LIG A   1      -5.747   3.204 120.734  0.00  0.00    -0.248 OA
BRANCH   9  11
ATOM     11  O   LIG A   1      -5.330   4.642 122.482  0.00  0.00    -0.466 OA
ATOM     12  C   LIG A   1      -4.185   5.112 121.770  0.00  0.00    +0.280 C 
ENDBRANCH   9  11
ENDBRANCH   3   9
BRANCH   5  13
ATOM     13  O   LIG A   1      -9.162   3.493 125.012  0.00  0.00    -0.389 OA
ATOM     14  H   LIG A   1      -9.053   4.450 124.818  0.00  0.00    +0.210 HD
ENDBRANCH   5  13
BRANCH   6  15
ATOM     15  O   LIG A   1      -8.955   0.922 125.933  0.00  0.00    -0.386 OA
ATOM     16  H   LIG A   1      -9.323   0.126 125.500  0.00  0.00    +0.210 HD
ENDBRANCH   6  15
BRANCH   1  17
ATOM     17  O   LIG A   1      -8.097  -0.448 123.550  0.00  0.00    -0.456 OA
BRANCH  17  19
ATOM     18  O   LIG A   1     -10.192  -0.786 122.665  0.00  0.00    -0.246 OA
ATOM     19  C   LIG A   1      -9.137  -1.194 123.145  0.00  0.00    +0.332 C 
BRANCH  19  20
ATOM     20  C   LIG A   1      -8.791  -2.636 123.237  0.00  0.00    +0.092 C 
ATOM     21  C   LIG A   1      -8.275  -3.366 124.237  0.00  0.00    +0.015 C 
BRANCH  21  22
ATOM     22  C   LIG A   1      -7.892  -3.000 125.616  0.00  0.00    -0.021 A 
ATOM     23  C   LIG A   1      -6.663  -2.372 125.882  0.00  0.00    +0.057 A 
ATOM     24  C   LIG A   1      -6.282  -2.124 127.206  0.00  0.00    +0.159 A 
ATOM     25  C   LIG A   1      -7.104  -2.504 128.263  0.00  0.00    +0.158 A 
ATOM     26  C   LIG A   1      -8.318  -3.123 128.018  0.00  0.00    +0.050 A 
ATOM     27  C   LIG A   1      -8.710  -3.372 126.695  0.00  0.00    +0.012 A 
BRANCH  24  28
ATOM     28  O   LIG A   1      -5.098  -1.515 127.519  0.00  0.00    -0.503 OA
ATOM     29  H   LIG A   1      -5.229  -0.552 127.482  0.00  0.00    +0.292 HD
ENDBRANCH  24  28
BRANCH  25  30
ATOM     30  O   LIG A   1      -6.725  -2.279 129.556  0.00  0.00    -0.503 OA
ATOM     31  H   LIG A   1      -7.139  -2.997 130.074  0.00  0.00    +0.292 HD
ENDBRANCH  25  30
ENDBRANCH  21  22
ENDBRANCH  19  20
ENDBRANCH  17  19
ENDBRANCH   1  17
TORSDOF 11
ENDMDL
MODEL 3
REMARK VINA RESULT:      -6.9      6.717      8.844
REMARK  Name = NuBBE_511
REMARK  12 active torsions:
REMARK  status: ('A' for Active; 'I' for Inactive)
REMARK    1  A    between atoms: C_2  and  C_3
REMARK    2  A    between atoms: C_2  and  O_13
REMARK    3  A    between atoms: C_4  and  C_5
REMARK    4  A    between atoms: C_7  and  O_8
REMARK    5  A    between atoms: C_9  and  O_10
REMARK    6  A    between atoms: O_13  and  C_14
REMARK    7  A    between atoms: C_17  and  O_18
REMARK    8  A    between atoms: C_17  and  C_19
REMARK    9  A    between atoms: C_19  and  O_20
REMARK   10  A    between atoms: O_20  and  C_21
REMARK   11  A    between atoms: C_24  and  O_26
REMARK   12  A    between atoms: C_27  and  O_29
REMARK                            x       y       z     vdW  Elec       q    Type
REMARK                         _______ _______ _______ _____ _____    ______ ____
ROOT
ATOM      1  C   LIG A   1      -8.871  -0.890 124.570  0.00  0.00    +0.211 C 
ATOM      2  C   LIG A   1      -8.594  -1.405 125.989  0.00  0.00    +0.093 C 
ATOM      3  C   LIG A   1      -9.005  -2.867 126.181  0.00  0.00    +0.168 C 
ATOM      4  C   LIG A   1      -8.384  -3.776 125.111  0.00  0.00    +0.080 C 
ATOM      5  C   LIG A   1      -8.671  -3.278 123.697  0.00  0.00    +0.150 C 
ATOM      6  C   LIG A   1      -8.235  -1.819 123.517  0.00  0.00    +0.184 C 
ENDROOT
BRANCH   3   7
ATOM      7  O   LIG A   1     -10.429  -2.955 126.022  0.00  0.00    -0.377 OA
ATOM      8  H   LIG A   1     -10.804  -2.143 126.422  0.00  0.00    +0.211 HD
ENDBRANCH   3   7
BRANCH   3   9
ATOM      9  C   LIG A   1      -8.538  -3.331 127.576  0.00  0.00    +0.339 C 
ATOM     10  O   LIG A   1      -9.013  -4.267 128.209  0.00  0.00    -0.248 OA
BRANCH   9  11
ATOM     11  O   LIG A   1      -7.481  -2.565 127.981  0.00  0.00    -0.466 OA
ATOM     12  C   LIG A   1      -6.899  -2.980 129.217  0.00  0.00    +0.280 C 
ENDBRANCH   9  11
ENDBRANCH   3   9
BRANCH   5  13
ATOM     13  O   LIG A   1     -10.064  -3.391 123.375  0.00  0.00    -0.389 OA
ATOM     14  H   LIG A   1     -10.515  -2.588 123.714  0.00  0.00    +0.210 HD
ENDBRANCH   5  13
BRANCH   6  15
ATOM     15  O   LIG A   1      -8.607  -1.392 122.200  0.00  0.00    -0.386 OA
ATOM     16  H   LIG A   1      -9.039  -0.521 122.316  0.00  0.00    +0.210 HD
ENDBRANCH   6  15
BRANCH   1  17
ATOM     17  O   LIG A   1      -8.226   0.392 124.428  0.00  0.00    -0.456 OA
BRANCH  17  19
ATOM     18  O   LIG A   1      -9.158   2.192 125.514  0.00  0.00    -0.246 OA
ATOM     19  C   LIG A   1      -8.978   1.502 124.514  0.00  0.00    +0.332 C 
BRANCH  19  20
ATOM     20  C   LIG A   1      -9.483   1.875 123.168  0.00  0.00    +0.092 C 
ATOM     21  C   LIG A   1      -8.949   2.627 122.193  0.00  0.00    +0.015 C 
BRANCH  21  22
ATOM     22  C   LIG A   1      -7.653   3.331 122.103  0.00  0.00    -0.021 A 
ATOM     23  C   LIG A   1      -7.166   3.793 120.868  0.00  0.00    +0.057 A 
ATOM     24  C   LIG A   1      -5.893   4.369 120.795  0.00  0.00    +0.159 A 
ATOM     25  C   LIG A   1      -5.099   4.480 121.933  0.00  0.00    +0.158 A 
ATOM     26  C   LIG A   1      -5.565   4.031 123.157  0.00  0.00    +0.050 A 
ATOM     27  C   LIG A   1      -6.840   3.456 123.241  0.00  0.00    +0.012 A 
BRANCH  24  28
ATOM     28  O   LIG A   1      -5.373   4.836 119.618  0.00  0.00    -0.503 OA
ATOM     29  H   LIG A   1      -5.787   5.692 119.417  0.00  0.00    +0.292 HD
ENDBRANCH  24  28
BRANCH  25  30
ATOM     30  O   LIG A   1      -3.849   5.027 121.860  0.00  0.00    -0.503 OA
ATOM     31  H   LIG A   1      -3.891   5.836 122.406  0.00  0.00    +0.292 HD
ENDBRANCH  25  30
ENDBRANCH  21  22
ENDBRANCH  19  20
ENDBRANCH  17  19
ENDBRANCH   1  17
TORSDOF 11
ENDMDL
MODEL 4
REMARK VINA RESULT:      -6.6      2.611      4.814
REMARK  Name = NuBBE_511
REMARK  12 active torsions:
REMARK  status: ('A' for Active; 'I' for Inactive)
REMARK    1  A    between atoms: C_2  and  C_3
REMARK    2  A    between atoms: C_2  and  O_13
REMARK    3  A    between atoms: C_4  and  C_5
REMARK    4  A    between atoms: C_7  and  O_8
REMARK    5  A    between atoms: C_9  and  O_10
REMARK    6  A    between atoms: O_13  and  C_14
REMARK    7  A    between atoms: C_17  and  O_18
REMARK    8  A    between atoms: C_17  and  C_19
REMARK    9  A    between atoms: C_19  and  O_20
REMARK   10  A    between atoms: O_20  and  C_21
REMARK   11  A    between atoms: C_24  and  O_26
REMARK   12  A    between atoms: C_27  and  O_29
REMARK                            x       y       z     vdW  Elec       q    Type
REMARK                         _______ _______ _______ _____ _____    ______ ____
ROOT
ATOM      1  C   LIG A   1      -7.338   4.053 127.228  0.00  0.00    +0.211 C 
ATOM      2  C   LIG A   1      -7.948   2.918 126.394  0.00  0.00    +0.093 C 
ATOM      3  C   LIG A   1      -7.762   3.121 124.889  0.00  0.00    +0.168 C 
ATOM      4  C   LIG A   1      -6.291   3.368 124.527  0.00  0.00    +0.080 C 
ATOM      5  C   LIG A   1      -5.683   4.507 125.341  0.00  0.00    +0.150 C 
ATOM      6  C   LIG A   1      -5.861   4.278 126.847  0.00  0.00    +0.184 C 
ENDROOT
BRANCH   3   7
ATOM      7  O   LIG A   1      -8.486   4.299 124.503  0.00  0.00    -0.377 OA
ATOM      8  H   LIG A   1      -7.815   4.984 124.304  0.00  0.00    +0.211 HD
ENDBRANCH   3   7
BRANCH   3   9
ATOM      9  C   LIG A   1      -8.260   1.858 124.156  0.00  0.00    +0.339 C 
ATOM     10  O   LIG A   1      -7.684   0.776 124.134  0.00  0.00    -0.248 OA
BRANCH   9  11
ATOM     11  O   LIG A   1      -9.468   2.117 123.571  0.00  0.00    -0.466 OA
ATOM     12  C   LIG A   1     -10.000   1.022 122.823  0.00  0.00    +0.280 C 
ENDBRANCH   9  11
ENDBRANCH   3   9
BRANCH   5  13
ATOM     13  O   LIG A   1      -6.266   5.770 124.990  0.00  0.00    -0.389 OA
ATOM     14  H   LIG A   1      -7.034   5.920 125.583  0.00  0.00    +0.210 HD
ENDBRANCH   5  13
BRANCH   6  15
ATOM     15  O   LIG A   1      -5.345   5.418 127.546  0.00  0.00    -0.386 OA
ATOM     16  H   LIG A   1      -4.964   6.000 126.858  0.00  0.00    +0.210 HD
ENDBRANCH   6  15
BRANCH   1  17
ATOM     17  O   LIG A   1      -7.347   3.643 128.610  0.00  0.00    -0.456 OA
BRANCH  17  19
ATOM     18  O   LIG A   1      -9.492   3.609 129.438  0.00  0.00    -0.246 OA
ATOM     19  C   LIG A   1      -8.351   4.063 129.398  0.00  0.00    +0.332 C 
BRANCH  19  20
ATOM     20  C   LIG A   1      -7.855   5.100 130.339  0.00  0.00    +0.092 C 
ATOM     21  C   LIG A   1      -8.381   6.269 130.734  0.00  0.00    +0.015 C 
BRANCH  21  22
ATOM     22  C   LIG A   1      -9.658   6.930 130.392  0.00  0.00    -0.021 A 
ATOM     23  C   LIG A   1     -10.817   6.699 131.152  0.00  0.00    +0.057 A 
ATOM     24  C   LIG A   1     -12.035   7.261 130.750  0.00  0.00    +0.159 A 
ATOM     25  C   LIG A   1     -12.110   8.038 129.597  0.00  0.00    +0.158 A 
ATOM     26  C   LIG A   1     -10.977   8.275 128.838  0.00  0.00    +0.050 A 
ATOM     27  C   LIG A   1      -9.752   7.720 129.235  0.00  0.00    +0.012 A 
BRANCH  24  28
ATOM     28  O   LIG A   1     -13.192   7.069 131.455  0.00  0.00    -0.503 OA
ATOM     29  H   LIG A   1     -13.884   6.779 130.837  0.00  0.00    +0.292 HD
ENDBRANCH  24  28
BRANCH  25  30
ATOM     30  O   LIG A   1     -13.301   8.571 129.194  0.00  0.00    -0.503 OA
ATOM     31  H   LIG A   1     -13.630   9.077 129.964  0.00  0.00    +0.292 HD
ENDBRANCH  25  30
ENDBRANCH  21  22
ENDBRANCH  19  20
ENDBRANCH  17  19
ENDBRANCH   1  17
TORSDOF 11
ENDMDL
MODEL 5
REMARK VINA RESULT:      -6.6      3.860      6.502
REMARK  Name = NuBBE_511
REMARK  12 active torsions:
REMARK  status: ('A' for Active; 'I' for Inactive)
REMARK    1  A    between atoms: C_2  and  C_3
REMARK    2  A    between atoms: C_2  and  O_13
REMARK    3  A    between atoms: C_4  and  C_5
REMARK    4  A    between atoms: C_7  and  O_8
REMARK    5  A    between atoms: C_9  and  O_10
REMARK    6  A    between atoms: O_13  and  C_14
REMARK    7  A    between atoms: C_17  and  O_18
REMARK    8  A    between atoms: C_17  and  C_19
REMARK    9  A    between atoms: C_19  and  O_20
REMARK   10  A    between atoms: O_20  and  C_21
REMARK   11  A    between atoms: C_24  and  O_26
REMARK   12  A    between atoms: C_27  and  O_29
REMARK                            x       y       z     vdW  Elec       q    Type
REMARK                         _______ _______ _______ _____ _____    ______ ____
ROOT
ATOM      1  C   LIG A   1      -8.515   5.343 131.333  0.00  0.00    +0.211 C 
ATOM      2  C   LIG A   1      -8.980   6.669 130.717  0.00  0.00    +0.093 C 
ATOM      3  C   LIG A   1      -9.992   6.476 129.586  0.00  0.00    +0.168 C 
ATOM      4  C   LIG A   1     -11.176   5.604 130.027  0.00  0.00    +0.080 C 
ATOM      5  C   LIG A   1     -10.720   4.276 130.624  0.00  0.00    +0.150 C 
ATOM      6  C   LIG A   1      -9.722   4.489 131.769  0.00  0.00    +0.184 C 
ENDROOT
BRANCH   3   7
ATOM      7  O   LIG A   1      -9.339   5.776 128.516  0.00  0.00    -0.377 OA
ATOM      8  H   LIG A   1      -9.318   4.831 128.774  0.00  0.00    +0.211 HD
ENDBRANCH   3   7
BRANCH   3   9
ATOM      9  C   LIG A   1     -10.515   7.860 129.151  0.00  0.00    +0.339 C 
ATOM     10  O   LIG A   1     -10.020   8.564 128.278  0.00  0.00    -0.248 OA
BRANCH   9  11
ATOM     11  O   LIG A   1     -11.645   8.164 129.858  0.00  0.00    -0.466 OA
ATOM     12  C   LIG A   1     -12.567   8.997 129.154  0.00  0.00    +0.280 C 
ENDBRANCH   9  11
ENDBRANCH   3   9
BRANCH   5  13
ATOM     13  O   LIG A   1     -10.118   3.434 129.631  0.00  0.00    -0.389 OA
ATOM     14  H   LIG A   1      -9.143   3.490 129.743  0.00  0.00    +0.210 HD
ENDBRANCH   5  13
BRANCH   6  15
ATOM     15  O   LIG A   1      -9.273   3.207 132.227  0.00  0.00    -0.386 OA
ATOM     16  H   LIG A   1      -9.824   2.996 133.007  0.00  0.00    +0.210 HD
ENDBRANCH   6  15
BRANCH   1  17
ATOM     17  O   LIG A   1      -7.772   5.646 132.531  0.00  0.00    -0.456 OA
BRANCH  17  19
ATOM     18  O   LIG A   1      -6.282   3.913 132.273  0.00  0.00    -0.246 OA
ATOM     19  C   LIG A   1      -6.621   4.991 132.756  0.00  0.00    +0.332 C 
BRANCH  19  20
ATOM     20  C   LIG A   1      -5.721   5.824 133.594  0.00  0.00    +0.092 C 
ATOM     21  C   LIG A   1      -4.572   6.456 133.311  0.00  0.00    +0.015 C 
BRANCH  21  22
ATOM     22  C   LIG A   1      -3.805   6.571 132.053  0.00  0.00    -0.021 A 
ATOM     23  C   LIG A   1      -4.293   7.330 130.976  0.00  0.00    +0.057 A 
ATOM     24  C   LIG A   1      -3.596   7.343 129.762  0.00  0.00    +0.159 A 
ATOM     25  C   LIG A   1      -2.428   6.601 129.608  0.00  0.00    +0.158 A 
ATOM     26  C   LIG A   1      -1.933   5.848 130.660  0.00  0.00    +0.050 A 
ATOM     27  C   LIG A   1      -2.624   5.832 131.881  0.00  0.00    +0.012 A 
BRANCH  24  28
ATOM     28  O   LIG A   1      -4.026   8.067 128.684  0.00  0.00    -0.503 OA
ATOM     29  H   LIG A   1      -3.750   8.991 128.804  0.00  0.00    +0.292 HD
ENDBRANCH  24  28
BRANCH  25  30
ATOM     30  O   LIG A   1      -1.756   6.599 128.419  0.00  0.00    -0.503 OA
ATOM     31  H   LIG A   1      -0.951   7.130 128.578  0.00  0.00    +0.292 HD
ENDBRANCH  25  30
ENDBRANCH  21  22
ENDBRANCH  19  20
ENDBRANCH  17  19
ENDBRANCH   1  17
TORSDOF 11
ENDMDL
MODEL 6
REMARK VINA RESULT:      -6.5      5.301      8.916
REMARK  Name = NuBBE_511
REMARK  12 active torsions:
REMARK  status: ('A' for Active; 'I' for Inactive)
REMARK    1  A    between atoms: C_2  and  C_3
REMARK    2  A    between atoms: C_2  and  O_13
REMARK    3  A    between atoms: C_4  and  C_5
REMARK    4  A    between atoms: C_7  and  O_8
REMARK    5  A    between atoms: C_9  and  O_10
REMARK    6  A    between atoms: O_13  and  C_14
REMARK    7  A    between atoms: C_17  and  O_18
REMARK    8  A    between atoms: C_17  and  C_19
REMARK    9  A    between atoms: C_19  and  O_20
REMARK   10  A    between atoms: O_20  and  C_21
REMARK   11  A    between atoms: C_24  and  O_26
REMARK   12  A    between atoms: C_27  and  O_29
REMARK                            x       y       z     vdW  Elec       q    Type
REMARK                         _______ _______ _______ _____ _____    ______ ____
ROOT
ATOM      1  C   LIG A   1      -6.933   1.620 125.713  0.00  0.00    +0.211 C 
ATOM      2  C   LIG A   1      -6.059   2.277 124.636  0.00  0.00    +0.093 C 
ATOM      3  C   LIG A   1      -6.877   3.058 123.604  0.00  0.00    +0.168 C 
ATOM      4  C   LIG A   1      -7.817   4.070 124.273  0.00  0.00    +0.080 C 
ATOM      5  C   LIG A   1      -8.701   3.419 125.334  0.00  0.00    +0.150 C 
ATOM      6  C   LIG A   1      -7.865   2.658 126.370  0.00  0.00    +0.184 C 
ENDROOT
BRANCH   3   7
ATOM      7  O   LIG A   1      -7.708   2.127 122.895  0.00  0.00    -0.377 OA
ATOM      8  H   LIG A   1      -8.369   1.798 123.539  0.00  0.00    +0.211 HD
ENDBRANCH   3   7
BRANCH   3   9
ATOM      9  C   LIG A   1      -5.904   3.808 122.671  0.00  0.00    +0.339 C 
ATOM     10  O   LIG A   1      -5.243   4.793 122.979  0.00  0.00    -0.248 OA
BRANCH   9  11
ATOM     11  O   LIG A   1      -5.859   3.179 121.458  0.00  0.00    -0.466 OA
ATOM     12  C   LIG A   1      -6.212   4.014 120.354  0.00  0.00    +0.280 C 
ENDBRANCH   9  11
ENDBRANCH   3   9
BRANCH   5  13
ATOM     13  O   LIG A   1      -9.647   2.516 124.745  0.00  0.00    -0.389 OA
ATOM     14  H   LIG A   1      -9.392   2.387 123.805  0.00  0.00    +0.210 HD
ENDBRANCH   5  13
BRANCH   6  15
ATOM     15  O   LIG A   1      -8.755   2.005 127.284  0.00  0.00    -0.386 OA
ATOM     16  H   LIG A   1      -8.185   1.613 127.975  0.00  0.00    +0.210 HD
ENDBRANCH   6  15
BRANCH   1  17
ATOM     17  O   LIG A   1      -6.062   1.134 126.755  0.00  0.00    -0.456 OA
BRANCH  17  19
ATOM     18  O   LIG A   1      -6.575  -0.854 127.791  0.00  0.00    -0.246 OA
ATOM     19  C   LIG A   1      -5.973  -0.192 126.949  0.00  0.00    +0.332 C 
BRANCH  19  20
ATOM     20  C   LIG A   1      -5.118  -0.801 125.897  0.00  0.00    +0.092 C 
ATOM     21  C   LIG A   1      -5.414  -1.596 124.859  0.00  0.00    +0.015 C 
BRANCH  21  22
ATOM     22  C   LIG A   1      -6.704  -2.130 124.375  0.00  0.00    -0.021 A 
ATOM     23  C   LIG A   1      -7.628  -1.301 123.716  0.00  0.00    +0.057 A 
ATOM     24  C   LIG A   1      -8.882  -1.808 123.355  0.00  0.00    +0.159 A 
ATOM     25  C   LIG A   1      -9.227  -3.123 123.652  0.00  0.00    +0.158 A 
ATOM     26  C   LIG A   1      -8.328  -3.953 124.300  0.00  0.00    +0.050 A 
ATOM     27  C   LIG A   1      -7.068  -3.456 124.662  0.00  0.00    +0.012 A 
BRANCH  24  28
ATOM     28  O   LIG A   1      -9.817  -1.044 122.711  0.00  0.00    -0.503 OA
ATOM     29  H   LIG A   1     -10.362  -1.627 122.157  0.00  0.00    +0.292 HD
ENDBRANCH  24  28
BRANCH  25  30
ATOM     30  O   LIG A   1     -10.457  -3.614 123.315  0.00  0.00    -0.503 OA
ATOM     31  H   LIG A   1     -11.057  -2.843 123.345  0.00  0.00    +0.292 HD
ENDBRANCH  25  30
ENDBRANCH  21  22
ENDBRANCH  19  20
ENDBRANCH  17  19
ENDBRANCH   1  17
TORSDOF 11
ENDMDL
MODEL 7
REMARK VINA RESULT:      -6.5      5.986      8.750
REMARK  Name = NuBBE_511
REMARK  12 active torsions:
REMARK  status: ('A' for Active; 'I' for Inactive)
REMARK    1  A    between atoms: C_2  and  C_3
REMARK    2  A    between atoms: C_2  and  O_13
REMARK    3  A    between atoms: C_4  and  C_5
REMARK    4  A    between atoms: C_7  and  O_8
REMARK    5  A    between atoms: C_9  and  O_10
REMARK    6  A    between atoms: O_13  and  C_14
REMARK    7  A    between atoms: C_17  and  O_18
REMARK    8  A    between atoms: C_17  and  C_19
REMARK    9  A    between atoms: C_19  and  O_20
REMARK   10  A    between atoms: O_20  and  C_21
REMARK   11  A    between atoms: C_24  and  O_26
REMARK   12  A    between atoms: C_27  and  O_29
REMARK                            x       y       z     vdW  Elec       q    Type
REMARK                         _______ _______ _______ _____ _____    ______ ____
ROOT
ATOM      1  C   LIG A   1      -6.354   2.221 126.062  0.00  0.00    +0.211 C 
ATOM      2  C   LIG A   1      -7.311   1.734 124.966  0.00  0.00    +0.093 C 
ATOM      3  C   LIG A   1      -7.937   2.883 124.172  0.00  0.00    +0.168 C 
ATOM      4  C   LIG A   1      -6.870   3.836 123.616  0.00  0.00    +0.080 C 
ATOM      5  C   LIG A   1      -5.925   4.338 124.705  0.00  0.00    +0.150 C 
ATOM      6  C   LIG A   1      -5.292   3.174 125.478  0.00  0.00    +0.184 C 
ENDROOT
BRANCH   3   7
ATOM      7  O   LIG A   1      -8.754   3.653 125.066  0.00  0.00    -0.377 OA
ATOM      8  H   LIG A   1      -9.538   3.936 124.552  0.00  0.00    +0.211 HD
ENDBRANCH   3   7
BRANCH   3   9
ATOM      9  C   LIG A   1      -8.746   2.289 123.000  0.00  0.00    +0.339 C 
ATOM     10  O   LIG A   1      -9.020   2.873 121.958  0.00  0.00    -0.248 OA
BRANCH   9  11
ATOM     11  O   LIG A   1      -9.074   0.992 123.284  0.00  0.00    -0.466 OA
ATOM     12  C   LIG A   1     -10.172   0.488 122.523  0.00  0.00    +0.280 C 
ENDBRANCH   9  11
ENDBRANCH   3   9
BRANCH   5  13
ATOM     13  O   LIG A   1      -6.603   5.198 125.631  0.00  0.00    -0.389 OA
ATOM     14  H   LIG A   1      -6.805   4.671 126.436  0.00  0.00    +0.210 HD
ENDBRANCH   5  13
BRANCH   6  15
ATOM     15  O   LIG A   1      -4.486   3.712 126.533  0.00  0.00    -0.386 OA
ATOM     16  H   LIG A   1      -4.306   4.641 126.283  0.00  0.00    +0.210 HD
ENDBRANCH   6  15
BRANCH   1  17
ATOM     17  O   LIG A   1      -5.642   1.075 126.571  0.00  0.00    -0.456 OA
BRANCH  17  19
ATOM     18  O   LIG A   1      -7.005   0.850 128.409  0.00  0.00    -0.246 OA
ATOM     19  C   LIG A   1      -6.134   0.439 127.647  0.00  0.00    +0.332 C 
BRANCH  19  20
ATOM     20  C   LIG A   1      -5.561  -0.929 127.730  0.00  0.00    +0.092 C 
ATOM     21  C   LIG A   1      -5.898  -2.075 127.120  0.00  0.00    +0.015 C 
BRANCH  21  22
ATOM     22  C   LIG A   1      -6.946  -2.378 126.122  0.00  0.00    -0.021 A 
ATOM     23  C   LIG A   1      -6.751  -2.093 124.760  0.00  0.00    +0.057 A 
ATOM     24  C   LIG A   1      -7.795  -2.299 123.851  0.00  0.00    +0.159 A 
ATOM     25  C   LIG A   1      -9.029  -2.775 124.285  0.00  0.00    +0.158 A 
ATOM     26  C   LIG A   1      -9.237  -3.061 125.624  0.00  0.00    +0.050 A 
ATOM     27  C   LIG A   1      -8.196  -2.861 126.542  0.00  0.00    +0.012 A 
BRANCH  24  28
ATOM     28  O   LIG A   1      -7.657  -2.039 122.515  0.00  0.00    -0.503 OA
ATOM     29  H   LIG A   1      -8.096  -1.194 122.319  0.00  0.00    +0.292 HD
ENDBRANCH  24  28
BRANCH  25  30
ATOM     30  O   LIG A   1     -10.055  -2.960 123.402  0.00  0.00    -0.503 OA
ATOM     31  H   LIG A   1     -10.561  -2.124 123.418  0.00  0.00    +0.292 HD
ENDBRANCH  25  30
ENDBRANCH  21  22
ENDBRANCH  19  20
ENDBRANCH  17  19
ENDBRANCH   1  17
TORSDOF 11
ENDMDL
MODEL 8
REMARK VINA RESULT:      -6.5      6.001      9.324
REMARK  Name = NuBBE_511
REMARK  12 active torsions:
REMARK  status: ('A' for Active; 'I' for Inactive)
REMARK    1  A    between atoms: C_2  and  C_3
REMARK    2  A    between atoms: C_2  and  O_13
REMARK    3  A    between atoms: C_4  and  C_5
REMARK    4  A    between atoms: C_7  and  O_8
REMARK    5  A    between atoms: C_9  and  O_10
REMARK    6  A    between atoms: O_13  and  C_14
REMARK    7  A    between atoms: C_17  and  O_18
REMARK    8  A    between atoms: C_17  and  C_19
REMARK    9  A    between atoms: C_19  and  O_20
REMARK   10  A    between atoms: O_20  and  C_21
REMARK   11  A    between atoms: C_24  and  O_26
REMARK   12  A    between atoms: C_27  and  O_29
REMARK                            x       y       z     vdW  Elec       q    Type
REMARK                         _______ _______ _______ _____ _____    ______ ____
ROOT
ATOM      1  C   LIG A   1      -8.241   0.788 124.193  0.00  0.00    +0.211 C 
ATOM      2  C   LIG A   1      -6.910   0.856 124.954  0.00  0.00    +0.093 C 
ATOM      3  C   LIG A   1      -6.334   2.273 125.015  0.00  0.00    +0.168 C 
ATOM      4  C   LIG A   1      -7.357   3.279 125.560  0.00  0.00    +0.080 C 
ATOM      5  C   LIG A   1      -8.677   3.227 124.796  0.00  0.00    +0.150 C 
ATOM      6  C   LIG A   1      -9.250   1.805 124.762  0.00  0.00    +0.184 C 
ENDROOT
BRANCH   3   7
ATOM      7  O   LIG A   1      -6.021   2.686 123.676  0.00  0.00    -0.377 OA
ATOM      8  H   LIG A   1      -6.194   1.914 123.099  0.00  0.00    +0.211 HD
ENDBRANCH   3   7
BRANCH   3   9
ATOM      9  C   LIG A   1      -5.094   2.261 125.933  0.00  0.00    +0.339 C 
ATOM     10  O   LIG A   1      -4.760   1.335 126.663  0.00  0.00    -0.248 OA
BRANCH   9  11
ATOM     11  O   LIG A   1      -4.397   3.427 125.773  0.00  0.00    -0.466 OA
ATOM     12  C   LIG A   1      -3.697   3.852 126.943  0.00  0.00    +0.280 C 
ENDBRANCH   9  11
ENDBRANCH   3   9
BRANCH   5  13
ATOM     13  O   LIG A   1      -8.522   3.699 123.450  0.00  0.00    -0.389 OA
ATOM     14  H   LIG A   1      -8.312   4.658 123.492  0.00  0.00    +0.210 HD
ENDBRANCH   5  13
BRANCH   6  15
ATOM     15  O   LIG A   1     -10.440   1.812 123.962  0.00  0.00    -0.386 OA
ATOM     16  H   LIG A   1     -10.336   2.558 123.339  0.00  0.00    +0.210 HD
ENDBRANCH   6  15
BRANCH   1  17
ATOM     17  O   LIG A   1      -8.810  -0.520 124.410  0.00  0.00    -0.456 OA
BRANCH  17  19
ATOM     18  O   LIG A   1      -9.990  -0.826 122.461  0.00  0.00    -0.246 OA
ATOM     19  C   LIG A   1      -9.235  -1.220 123.346  0.00  0.00    +0.332 C 
BRANCH  19  20
ATOM     20  C   LIG A   1      -8.552  -2.539 123.303  0.00  0.00    +0.092 C 
ATOM     21  C   LIG A   1      -7.876  -3.222 124.238  0.00  0.00    +0.015 C 
BRANCH  21  22
ATOM     22  C   LIG A   1      -7.591  -2.917 125.656  0.00  0.00    -0.021 A 
ATOM     23  C   LIG A   1      -6.374  -2.326 126.037  0.00  0.00    +0.057 A 
ATOM     24  C   LIG A   1      -6.089  -2.137 127.395  0.00  0.00    +0.159 A 
ATOM     25  C   LIG A   1      -6.996  -2.538 128.372  0.00  0.00    +0.158 A 
ATOM     26  C   LIG A   1      -8.200  -3.121 128.012  0.00  0.00    +0.050 A 
ATOM     27  C   LIG A   1      -8.495  -3.311 126.655  0.00  0.00    +0.012 A 
BRANCH  24  28
ATOM     28  O   LIG A   1      -4.921  -1.565 127.820  0.00  0.00    -0.503 OA
ATOM     29  H   LIG A   1      -5.085  -0.622 127.990  0.00  0.00    +0.292 HD
ENDBRANCH  24  28
BRANCH  25  30
ATOM     30  O   LIG A   1      -6.712  -2.370 129.697  0.00  0.00    -0.503 OA
ATOM     31  H   LIG A   1      -7.551  -2.076 130.104  0.00  0.00    +0.292 HD
ENDBRANCH  25  30
ENDBRANCH  21  22
ENDBRANCH  19  20
ENDBRANCH  17  19
ENDBRANCH   1  17
TORSDOF 11
ENDMDL
MODEL 9
REMARK VINA RESULT:      -6.4      2.601      6.743
REMARK  Name = NuBBE_511
REMARK  12 active torsions:
REMARK  status: ('A' for Active; 'I' for Inactive)
REMARK    1  A    between atoms: C_2  and  C_3
REMARK    2  A    between atoms: C_2  and  O_13
REMARK    3  A    between atoms: C_4  and  C_5
REMARK    4  A    between atoms: C_7  and  O_8
REMARK    5  A    between atoms: C_9  and  O_10
REMARK    6  A    between atoms: O_13  and  C_14
REMARK    7  A    between atoms: C_17  and  O_18
REMARK    8  A    between atoms: C_17  and  C_19
REMARK    9  A    between atoms: C_19  and  O_20
REMARK   10  A    between atoms: O_20  and  C_21
REMARK   11  A    between atoms: C_24  and  O_26
REMARK   12  A    between atoms: C_27  and  O_29
REMARK                            x       y       z     vdW  Elec       q    Type
REMARK                         _______ _______ _______ _____ _____    ______ ____
ROOT
ATOM      1  C   LIG A   1      -9.721   4.520 130.462  0.00  0.00    +0.211 C 
ATOM      2  C   LIG A   1     -11.127   5.133 130.415  0.00  0.00    +0.093 C 
ATOM      3  C   LIG A   1     -11.171   6.560 130.969  0.00  0.00    +0.168 C 
ATOM      4  C   LIG A   1     -10.130   7.463 130.292  0.00  0.00    +0.080 C 
ATOM      5  C   LIG A   1      -8.727   6.866 130.350  0.00  0.00    +0.150 C 
ATOM      6  C   LIG A   1      -8.698   5.445 129.774  0.00  0.00    +0.184 C 
ENDROOT
BRANCH   3   7
ATOM      7  O   LIG A   1     -10.831   6.510 132.362  0.00  0.00    -0.377 OA
ATOM      8  H   LIG A   1      -9.856   6.587 132.413  0.00  0.00    +0.211 HD
ENDBRANCH   3   7
BRANCH   3   9
ATOM      9  C   LIG A   1     -12.580   7.139 130.727  0.00  0.00    +0.339 C 
ATOM     10  O   LIG A   1     -13.502   7.124 131.535  0.00  0.00    -0.248 OA
BRANCH   9  11
ATOM     11  O   LIG A   1     -12.631   7.712 129.487  0.00  0.00    -0.466 OA
ATOM     12  C   LIG A   1     -13.576   7.107 128.603  0.00  0.00    +0.280 C 
ENDBRANCH   9  11
ENDBRANCH   3   9
BRANCH   5  13
ATOM     13  O   LIG A   1      -8.227   6.834 131.694  0.00  0.00    -0.389 OA
ATOM     14  H   LIG A   1      -8.059   7.761 131.972  0.00  0.00    +0.210 HD
ENDBRANCH   5  13
BRANCH   6  15
ATOM     15  O   LIG A   1      -7.376   4.915 129.935  0.00  0.00    -0.386 OA
ATOM     16  H   LIG A   1      -6.839   5.646 130.302  0.00  0.00    +0.210 HD
ENDBRANCH   6  15
BRANCH   1  17
ATOM     17  O   LIG A   1      -9.745   3.296 129.700  0.00  0.00    -0.456 OA
BRANCH  17  19
ATOM     18  O   LIG A   1      -7.839   2.010 129.660  0.00  0.00    -0.246 OA
ATOM     19  C   LIG A   1      -8.957   2.281 130.091  0.00  0.00    +0.332 C 
BRANCH  19  20
ATOM     20  C   LIG A   1      -9.577   1.574 131.241  0.00  0.00    +0.092 C 
ATOM     21  C   LIG A   1      -9.420   1.717 132.565  0.00  0.00    +0.015 C 
BRANCH  21  22
ATOM     22  C   LIG A   1      -8.590   2.652 133.353  0.00  0.00    -0.021 A 
ATOM     23  C   LIG A   1      -9.073   3.923 133.710  0.00  0.00    +0.057 A 
ATOM     24  C   LIG A   1      -8.232   4.825 134.372  0.00  0.00    +0.159 A 
ATOM     25  C   LIG A   1      -6.917   4.479 134.672  0.00  0.00    +0.158 A 
ATOM     26  C   LIG A   1      -6.427   3.230 134.328  0.00  0.00    +0.050 A 
ATOM     27  C   LIG A   1      -7.263   2.319 133.668  0.00  0.00    +0.012 A 
BRANCH  24  28
ATOM     28  O   LIG A   1      -8.653   6.073 134.742  0.00  0.00    -0.503 OA
ATOM     29  H   LIG A   1      -9.538   5.994 135.137  0.00  0.00    +0.292 HD
ENDBRANCH  24  28
BRANCH  25  30
ATOM     30  O   LIG A   1      -6.091   5.365 135.302  0.00  0.00    -0.503 OA
ATOM     31  H   LIG A   1      -6.350   6.244 134.962  0.00  0.00    +0.292 HD
ENDBRANCH  25  30
ENDBRANCH  21  22
ENDBRANCH  19  20
ENDBRANCH  17  19
ENDBRANCH   1  17
TORSDOF 11
ENDMDL
