MODEL 1
REMARK VINA RESULT:      -8.6      0.000      0.000
REMARK  Name = NuBBE_433
REMARK  12 active torsions:
REMARK  status: ('A' for Active; 'I' for Inactive)
REMARK    1  A    between atoms: C_1  and  C_2
REMARK    2  A    between atoms: C_2  and  C_3
REMARK    3  A    between atoms: C_7  and  C_8
REMARK    4  A    between atoms: C_11  and  C_12
REMARK    5  A    between atoms: C_13  and  C_36
REMARK    6  A    between atoms: C_16  and  C_25
REMARK    7  A    between atoms: C_18  and  C_19
REMARK    8  A    between atoms: C_18  and  C_20
REMARK    9  A    between atoms: C_20  and  C_21
REMARK   10  A    between atoms: C_21  and  C_22
REMARK   11  A    between atoms: C_22  and  O_23
REMARK   12  A    between atoms: C_25  and  C_26
REMARK                            x       y       z     vdW  Elec       q    Type
REMARK                         _______ _______ _______ _____ _____    ______ ____
ROOT
ATOM      1  C   LIG A   1      -6.750  -3.261 124.455  0.00  0.00    +0.018 C 
ATOM      2  C   LIG A   1      -7.900  -2.902 123.504  0.00  0.00    +0.009 C 
ATOM      3  C   LIG A   1      -8.861  -2.096 124.367  0.00  0.00    +0.007 C 
ATOM      4  C   LIG A   1      -7.947  -1.214 125.247  0.00  0.00    -0.028 C 
ATOM      5  C   LIG A   1      -7.498   0.005 124.392  0.00  0.00    +0.011 C 
ATOM      6  C   LIG A   1      -8.657  -0.642 126.485  0.00  0.00    +0.007 C 
ATOM      7  C   LIG A   1      -7.911  -0.835 127.814  0.00  0.00    +0.008 C 
ATOM      8  C   LIG A   1      -7.492  -2.309 128.088  0.00  0.00    -0.023 C 
ATOM      9  C   LIG A   1      -8.764  -3.199 127.919  0.00  0.00    +0.012 C 
ATOM     10  C   LIG A   1      -6.892  -2.588 129.609  0.00  0.00    -0.023 C 
ATOM     11  C   LIG A   1      -7.772  -1.900 130.700  0.00  0.00    +0.008 C 
ATOM     12  C   LIG A   1      -7.052  -1.459 131.975  0.00  0.00    +0.009 C 
ATOM     13  C   LIG A   1      -5.873  -2.341 132.426  0.00  0.00    +0.020 C 
ATOM     14  C   LIG A   1      -4.755  -2.316 131.270  0.00  0.00    -0.022 C 
ATOM     15  C   LIG A   1      -3.814  -3.551 131.263  0.00  0.00    +0.012 C 
ATOM     16  C   LIG A   1      -5.419  -2.084 129.800  0.00  0.00    +0.002 C 
ATOM     17  C   LIG A   1      -4.522  -2.616 128.675  0.00  0.00    +0.005 C 
ATOM     18  C   LIG A   1      -5.019  -2.196 127.314  0.00  0.00    +0.005 C 
ATOM     19  C   LIG A   1      -6.446  -2.676 126.972  0.00  0.00    -0.000 C 
ATOM     20  C   LIG A   1      -6.715  -2.119 125.524  0.00  0.00    +0.006 C 
ATOM     21  C   LIG A   1      -6.933  -4.129 129.857  0.00  0.00    +0.012 C 
ENDROOT
BRANCH   1  23
ATOM     22  C   LIG A   1      -4.713  -4.812 123.940  0.00  0.00    +0.038 C 
ATOM     23  C   LIG A   1      -5.426  -3.499 123.731  0.00  0.00    -0.076 C 
ATOM     24  C   LIG A   1      -4.880  -2.572 122.925  0.00  0.00    +0.007 C 
ENDBRANCH   1  23
BRANCH  13  25
ATOM     25  C   LIG A   1      -6.295  -3.647 133.143  0.00  0.00    -0.076 C 
ATOM     26  C   LIG A   1      -7.582  -3.687 133.935  0.00  0.00    +0.038 C 
ATOM     27  C   LIG A   1      -5.490  -4.721 133.263  0.00  0.00    +0.007 C 
ENDBRANCH  13  25
BRANCH  14  28
ATOM     28  C   LIG A   1      -3.797  -1.063 131.517  0.00  0.00    +0.018 C 
BRANCH  28  29
ATOM     29  C   LIG A   1      -3.708  -0.527 132.959  0.00  0.00    +0.121 C 
BRANCH  29  30
ATOM     30  C   LIG A   1      -2.434  -0.944 133.642  0.00  0.00    +0.305 C 
ATOM     31  O   LIG A   1      -1.576  -1.694 133.206  0.00  0.00    -0.251 OA
BRANCH  30  32
ATOM     32  O   LIG A   1      -2.325  -0.435 134.877  0.00  0.00    -0.481 OA
ATOM     33  H   LIG A   1      -2.617   0.493 134.801  0.00  0.00    +0.295 HD
ENDBRANCH  30  32
ENDBRANCH  29  30
ENDBRANCH  28  29
ENDBRANCH  14  28
TORSDOF 6
ENDMDL
MODEL 2
REMARK VINA RESULT:      -8.5      5.388      7.268
REMARK  Name = NuBBE_433
REMARK  12 active torsions:
REMARK  status: ('A' for Active; 'I' for Inactive)
REMARK    1  A    between atoms: C_1  and  C_2
REMARK    2  A    between atoms: C_2  and  C_3
REMARK    3  A    between atoms: C_7  and  C_8
REMARK    4  A    between atoms: C_11  and  C_12
REMARK    5  A    between atoms: C_13  and  C_36
REMARK    6  A    between atoms: C_16  and  C_25
REMARK    7  A    between atoms: C_18  and  C_19
REMARK    8  A    between atoms: C_18  and  C_20
REMARK    9  A    between atoms: C_20  and  C_21
REMARK   10  A    between atoms: C_21  and  C_22
REMARK   11  A    between atoms: C_22  and  O_23
REMARK   12  A    between atoms: C_25  and  C_26
REMARK                            x       y       z     vdW  Elec       q    Type
REMARK                         _______ _______ _______ _____ _____    ______ ____
ROOT
ATOM      1  C   LIG A   1      -5.631  -1.062 127.657  0.00  0.00    +0.018 C 
ATOM      2  C   LIG A   1      -5.249  -2.536 127.852  0.00  0.00    +0.009 C 
ATOM      3  C   LIG A   1      -5.876  -2.910 129.188  0.00  0.00    +0.007 C 
ATOM      4  C   LIG A   1      -7.248  -2.199 129.187  0.00  0.00    -0.028 C 
ATOM      5  C   LIG A   1      -8.229  -3.065 128.345  0.00  0.00    +0.011 C 
ATOM      6  C   LIG A   1      -7.871  -2.070 130.587  0.00  0.00    +0.007 C 
ATOM      7  C   LIG A   1      -8.368  -0.664 130.953  0.00  0.00    +0.008 C 
ATOM      8  C   LIG A   1      -7.300   0.450 130.752  0.00  0.00    -0.023 C 
ATOM      9  C   LIG A   1      -6.006   0.001 131.503  0.00  0.00    +0.012 C 
ATOM     10  C   LIG A   1      -7.727   1.937 131.352  0.00  0.00    -0.023 C 
ATOM     11  C   LIG A   1      -8.346   1.815 132.780  0.00  0.00    +0.008 C 
ATOM     12  C   LIG A   1      -9.379   2.877 133.165  0.00  0.00    +0.009 C 
ATOM     13  C   LIG A   1      -9.159   4.280 132.572  0.00  0.00    +0.020 C 
ATOM     14  C   LIG A   1      -9.234   4.169 130.970  0.00  0.00    -0.022 C 
ATOM     15  C   LIG A   1      -8.479   5.295 130.213  0.00  0.00    +0.012 C 
ATOM     16  C   LIG A   1      -8.758   2.699 130.449  0.00  0.00    +0.002 C 
ATOM     17  C   LIG A   1      -8.271   2.736 128.995  0.00  0.00    +0.005 C 
ATOM     18  C   LIG A   1      -8.054   1.351 128.441  0.00  0.00    +0.005 C 
ATOM     19  C   LIG A   1      -7.015   0.504 129.207  0.00  0.00    -0.000 C 
ATOM     20  C   LIG A   1      -6.974  -0.868 128.435  0.00  0.00    +0.006 C 
ATOM     21  C   LIG A   1      -6.425   2.793 131.461  0.00  0.00    +0.012 C 
ENDROOT
BRANCH   1  23
ATOM     22  C   LIG A   1      -5.469   0.808 125.840  0.00  0.00    +0.038 C 
ATOM     23  C   LIG A   1      -5.679  -0.646 126.187  0.00  0.00    -0.076 C 
ATOM     24  C   LIG A   1      -5.911  -1.533 125.204  0.00  0.00    +0.007 C 
ENDBRANCH   1  23
BRANCH  13  25
ATOM     25  C   LIG A   1      -8.069   5.111 133.295  0.00  0.00    -0.076 C 
ATOM     26  C   LIG A   1      -7.898   4.986 134.792  0.00  0.00    +0.038 C 
ATOM     27  C   LIG A   1      -7.366   6.093 132.697  0.00  0.00    +0.007 C 
ENDBRANCH  13  25
BRANCH  14  28
ATOM     28  C   LIG A   1     -10.759   4.316 130.522  0.00  0.00    +0.018 C 
BRANCH  28  29
ATOM     29  C   LIG A   1     -11.189   5.678 129.947  0.00  0.00    +0.121 C 
BRANCH  29  30
ATOM     30  C   LIG A   1     -12.194   6.373 130.825  0.00  0.00    +0.305 C 
ATOM     31  O   LIG A   1     -13.046   7.175 130.478  0.00  0.00    -0.251 OA
BRANCH  30  32
ATOM     32  O   LIG A   1     -12.042   6.064 132.121  0.00  0.00    -0.481 OA
ATOM     33  H   LIG A   1     -11.974   6.920 132.584  0.00  0.00    +0.295 HD
ENDBRANCH  30  32
ENDBRANCH  29  30
ENDBRANCH  28  29
ENDBRANCH  14  28
TORSDOF 6
ENDMDL
MODEL 3
REMARK VINA RESULT:      -8.5      3.660      8.213
REMARK  Name = NuBBE_433
REMARK  12 active torsions:
REMARK  status: ('A' for Active; 'I' for Inactive)
REMARK    1  A    between atoms: C_1  and  C_2
REMARK    2  A    between atoms: C_2  and  C_3
REMARK    3  A    between atoms: C_7  and  C_8
REMARK    4  A    between atoms: C_11  and  C_12
REMARK    5  A    between atoms: C_13  and  C_36
REMARK    6  A    between atoms: C_16  and  C_25
REMARK    7  A    between atoms: C_18  and  C_19
REMARK    8  A    between atoms: C_18  and  C_20
REMARK    9  A    between atoms: C_20  and  C_21
REMARK   10  A    between atoms: C_21  and  C_22
REMARK   11  A    between atoms: C_22  and  O_23
REMARK   12  A    between atoms: C_25  and  C_26
REMARK                            x       y       z     vdW  Elec       q    Type
REMARK                         _______ _______ _______ _____ _____    ______ ____
ROOT
ATOM      1  C   LIG A   1      -7.683   0.367 132.167  0.00  0.00    +0.018 C 
ATOM      2  C   LIG A   1      -6.787   0.005 133.359  0.00  0.00    +0.009 C 
ATOM      3  C   LIG A   1      -5.585  -0.684 132.728  0.00  0.00    +0.007 C 
ATOM      4  C   LIG A   1      -5.303   0.126 131.442  0.00  0.00    -0.028 C 
ATOM      5  C   LIG A   1      -4.511   1.401 131.851  0.00  0.00    +0.011 C 
ATOM      6  C   LIG A   1      -4.427  -0.625 130.426  0.00  0.00    +0.007 C 
ATOM      7  C   LIG A   1      -4.965  -0.644 128.988  0.00  0.00    +0.008 C 
ATOM      8  C   LIG A   1      -6.436  -1.140 128.876  0.00  0.00    -0.023 C 
ATOM      9  C   LIG A   1      -6.528  -2.508 129.624  0.00  0.00    +0.012 C 
ATOM     10  C   LIG A   1      -6.968  -1.389 127.324  0.00  0.00    -0.023 C 
ATOM     11  C   LIG A   1      -5.906  -2.160 126.479  0.00  0.00    +0.008 C 
ATOM     12  C   LIG A   1      -5.892  -1.868 124.977  0.00  0.00    +0.009 C 
ATOM     13  C   LIG A   1      -7.255  -1.548 124.337  0.00  0.00    +0.020 C 
ATOM     14  C   LIG A   1      -7.835  -0.217 125.028  0.00  0.00    -0.022 C 
ATOM     15  C   LIG A   1      -9.380  -0.080 124.957  0.00  0.00    +0.012 C 
ATOM     16  C   LIG A   1      -7.309  -0.061 126.562  0.00  0.00    +0.002 C 
ATOM     17  C   LIG A   1      -8.247   0.813 127.405  0.00  0.00    +0.005 C 
ATOM     18  C   LIG A   1      -7.647   1.149 128.747  0.00  0.00    +0.005 C 
ATOM     19  C   LIG A   1      -7.312  -0.073 129.629  0.00  0.00    -0.000 C 
ATOM     20  C   LIG A   1      -6.716   0.543 130.950  0.00  0.00    +0.006 C 
ATOM     21  C   LIG A   1      -8.255  -2.268 127.403  0.00  0.00    +0.012 C 
ENDROOT
BRANCH   1  23
ATOM     22  C   LIG A   1      -8.073   2.676 133.324  0.00  0.00    +0.038 C 
ATOM     23  C   LIG A   1      -8.589   1.566 132.440  0.00  0.00    -0.076 C 
ATOM     24  C   LIG A   1      -9.828   1.655 131.925  0.00  0.00    +0.007 C 
ENDBRANCH   1  23
BRANCH  13  25
ATOM     25  C   LIG A   1      -8.136  -2.792 124.064  0.00  0.00    -0.076 C 
ATOM     26  C   LIG A   1      -7.702  -4.147 124.574  0.00  0.00    +0.038 C 
ATOM     27  C   LIG A   1      -9.196  -2.782 123.232  0.00  0.00    +0.007 C 
ENDBRANCH  13  25
BRANCH  14  28
ATOM     28  C   LIG A   1      -7.268   1.052 124.243  0.00  0.00    +0.018 C 
BRANCH  28  29
ATOM     29  C   LIG A   1      -8.302   2.064 123.713  0.00  0.00    +0.121 C 
BRANCH  29  30
ATOM     30  C   LIG A   1      -8.171   3.408 124.376  0.00  0.00    +0.305 C 
ATOM     31  O   LIG A   1      -8.864   3.857 125.274  0.00  0.00    -0.251 OA
BRANCH  30  32
ATOM     32  O   LIG A   1      -7.196   4.153 123.835  0.00  0.00    -0.481 OA
ATOM     33  H   LIG A   1      -7.191   4.984 124.347  0.00  0.00    +0.295 HD
ENDBRANCH  30  32
ENDBRANCH  29  30
ENDBRANCH  28  29
ENDBRANCH  14  28
TORSDOF 6
ENDMDL
MODEL 4
REMARK VINA RESULT:      -8.3      3.850      8.494
REMARK  Name = NuBBE_433
REMARK  12 active torsions:
REMARK  status: ('A' for Active; 'I' for Inactive)
REMARK    1  A    between atoms: C_1  and  C_2
REMARK    2  A    between atoms: C_2  and  C_3
REMARK    3  A    between atoms: C_7  and  C_8
REMARK    4  A    between atoms: C_11  and  C_12
REMARK    5  A    between atoms: C_13  and  C_36
REMARK    6  A    between atoms: C_16  and  C_25
REMARK    7  A    between atoms: C_18  and  C_19
REMARK    8  A    between atoms: C_18  and  C_20
REMARK    9  A    between atoms: C_20  and  C_21
REMARK   10  A    between atoms: C_21  and  C_22
REMARK   11  A    between atoms: C_22  and  O_23
REMARK   12  A    between atoms: C_25  and  C_26
REMARK                            x       y       z     vdW  Elec       q    Type
REMARK                         _______ _______ _______ _____ _____    ______ ____
ROOT
ATOM      1  C   LIG A   1      -8.293  -0.223 131.571  0.00  0.00    +0.018 C 
ATOM      2  C   LIG A   1      -7.708  -1.140 132.654  0.00  0.00    +0.009 C 
ATOM      3  C   LIG A   1      -6.727  -2.029 131.902  0.00  0.00    +0.007 C 
ATOM      4  C   LIG A   1      -6.049  -1.085 130.883  0.00  0.00    -0.028 C 
ATOM      5  C   LIG A   1      -4.942  -0.293 131.636  0.00  0.00    +0.011 C 
ATOM      6  C   LIG A   1      -5.349  -1.829 129.734  0.00  0.00    +0.007 C 
ATOM      7  C   LIG A   1      -5.691  -1.322 128.325  0.00  0.00    +0.008 C 
ATOM      8  C   LIG A   1      -7.219  -1.244 128.041  0.00  0.00    -0.023 C 
ATOM      9  C   LIG A   1      -7.836  -2.633 128.402  0.00  0.00    +0.012 C 
ATOM     10  C   LIG A   1      -7.617  -0.923 126.463  0.00  0.00    -0.023 C 
ATOM     11  C   LIG A   1      -6.768  -1.788 125.478  0.00  0.00    +0.008 C 
ATOM     12  C   LIG A   1      -6.484  -1.173 124.106  0.00  0.00    +0.009 C 
ATOM     13  C   LIG A   1      -7.585  -0.265 123.531  0.00  0.00    +0.020 C 
ATOM     14  C   LIG A   1      -7.783   0.982 124.527  0.00  0.00    -0.022 C 
ATOM     15  C   LIG A   1      -9.181   1.651 124.447  0.00  0.00    +0.012 C 
ATOM     16  C   LIG A   1      -7.419   0.582 126.065  0.00  0.00    +0.002 C 
ATOM     17  C   LIG A   1      -8.117   1.499 127.077  0.00  0.00    +0.005 C 
ATOM     18  C   LIG A   1      -7.603   1.283 128.478  0.00  0.00    +0.005 C 
ATOM     19  C   LIG A   1      -7.787  -0.152 129.019  0.00  0.00    -0.000 C 
ATOM     20  C   LIG A   1      -7.183  -0.106 130.474  0.00  0.00    +0.006 C 
ATOM     21  C   LIG A   1      -9.119  -1.301 126.268  0.00  0.00    +0.012 C 
ENDROOT
BRANCH   1  23
ATOM     22  C   LIG A   1      -7.849   1.944 132.961  0.00  0.00    +0.038 C 
ATOM     23  C   LIG A   1      -8.789   1.113 132.121  0.00  0.00    -0.076 C 
ATOM     24  C   LIG A   1     -10.034   1.562 131.884  0.00  0.00    +0.007 C 
ENDBRANCH   1  23
BRANCH  13  25
ATOM     25  C   LIG A   1      -8.782  -1.030 122.914  0.00  0.00    -0.076 C 
ATOM     26  C   LIG A   1      -9.989  -0.264 122.419  0.00  0.00    +0.038 C 
ATOM     27  C   LIG A   1      -8.904  -2.371 122.950  0.00  0.00    +0.007 C 
ENDBRANCH  13  25
BRANCH  14  28
ATOM     28  C   LIG A   1      -6.748   2.127 124.120  0.00  0.00    +0.018 C 
BRANCH  28  29
ATOM     29  C   LIG A   1      -6.737   2.563 122.642  0.00  0.00    +0.121 C 
BRANCH  29  30
ATOM     30  C   LIG A   1      -5.982   3.848 122.436  0.00  0.00    +0.305 C 
ATOM     31  O   LIG A   1      -5.301   4.155 121.472  0.00  0.00    -0.251 OA
BRANCH  30  32
ATOM     32  O   LIG A   1      -6.079   4.673 123.488  0.00  0.00    -0.481 OA
ATOM     33  H   LIG A   1      -6.977   4.534 123.845  0.00  0.00    +0.295 HD
ENDBRANCH  30  32
ENDBRANCH  29  30
ENDBRANCH  28  29
ENDBRANCH  14  28
TORSDOF 6
ENDMDL
MODEL 5
REMARK VINA RESULT:      -7.9      4.780      6.483
REMARK  Name = NuBBE_433
REMARK  12 active torsions:
REMARK  status: ('A' for Active; 'I' for Inactive)
REMARK    1  A    between atoms: C_1  and  C_2
REMARK    2  A    between atoms: C_2  and  C_3
REMARK    3  A    between atoms: C_7  and  C_8
REMARK    4  A    between atoms: C_11  and  C_12
REMARK    5  A    between atoms: C_13  and  C_36
REMARK    6  A    between atoms: C_16  and  C_25
REMARK    7  A    between atoms: C_18  and  C_19
REMARK    8  A    between atoms: C_18  and  C_20
REMARK    9  A    between atoms: C_20  and  C_21
REMARK   10  A    between atoms: C_21  and  C_22
REMARK   11  A    between atoms: C_22  and  O_23
REMARK   12  A    between atoms: C_25  and  C_26
REMARK                            x       y       z     vdW  Elec       q    Type
REMARK                         _______ _______ _______ _____ _____    ______ ____
ROOT
ATOM      1  C   LIG A   1      -6.328  -2.868 130.087  0.00  0.00    +0.018 C 
ATOM      2  C   LIG A   1      -7.391  -3.702 129.360  0.00  0.00    +0.009 C 
ATOM      3  C   LIG A   1      -8.227  -2.672 128.612  0.00  0.00    +0.007 C 
ATOM      4  C   LIG A   1      -7.199  -1.643 128.090  0.00  0.00    -0.028 C 
ATOM      5  C   LIG A   1      -6.551  -2.231 126.804  0.00  0.00    +0.011 C 
ATOM      6  C   LIG A   1      -7.831  -0.300 127.686  0.00  0.00    +0.007 C 
ATOM      7  C   LIG A   1      -7.146   0.945 128.269  0.00  0.00    +0.008 C 
ATOM      8  C   LIG A   1      -6.968   0.896 129.814  0.00  0.00    -0.023 C 
ATOM      9  C   LIG A   1      -8.362   0.568 130.437  0.00  0.00    +0.012 C 
ATOM     10  C   LIG A   1      -6.444   2.315 130.497  0.00  0.00    -0.023 C 
ATOM     11  C   LIG A   1      -7.222   3.541 129.924  0.00  0.00    +0.008 C 
ATOM     12  C   LIG A   1      -6.461   4.867 129.879  0.00  0.00    +0.009 C 
ATOM     13  C   LIG A   1      -5.444   5.101 131.010  0.00  0.00    +0.020 C 
ATOM     14  C   LIG A   1      -4.318   3.958 130.920  0.00  0.00    -0.022 C 
ATOM     15  C   LIG A   1      -3.583   3.675 132.258  0.00  0.00    +0.012 C 
ATOM     16  C   LIG A   1      -4.913   2.581 130.283  0.00  0.00    +0.002 C 
ATOM     17  C   LIG A   1      -4.093   1.353 130.701  0.00  0.00    +0.005 C 
ATOM     18  C   LIG A   1      -4.496   0.120 129.932  0.00  0.00    +0.005 C 
ATOM     19  C   LIG A   1      -5.976  -0.290 130.099  0.00  0.00    -0.000 C 
ATOM     20  C   LIG A   1      -6.130  -1.584 129.215  0.00  0.00    +0.006 C 
ATOM     21  C   LIG A   1      -6.731   2.234 132.030  0.00  0.00    +0.012 C 
ENDROOT
BRANCH   1  23
ATOM     22  C   LIG A   1      -3.908  -3.556 129.386  0.00  0.00    +0.038 C 
ATOM     23  C   LIG A   1      -5.046  -3.649 130.372  0.00  0.00    -0.076 C 
ATOM     24  C   LIG A   1      -4.910  -4.418 131.467  0.00  0.00    +0.007 C 
ENDBRANCH   1  23
BRANCH  13  25
ATOM     25  C   LIG A   1      -6.077   5.536 132.355  0.00  0.00    -0.076 C 
ATOM     26  C   LIG A   1      -7.539   5.920 132.408  0.00  0.00    +0.038 C 
ATOM     27  C   LIG A   1      -5.361   5.774 133.471  0.00  0.00    +0.007 C 
ENDBRANCH  13  25
BRANCH  14  28
ATOM     28  C   LIG A   1      -3.178   4.445 129.914  0.00  0.00    +0.018 C 
BRANCH  28  29
ATOM     29  C   LIG A   1      -2.853   5.951 129.904  0.00  0.00    +0.121 C 
BRANCH  29  30
ATOM     30  C   LIG A   1      -3.057   6.567 128.547  0.00  0.00    +0.305 C 
ATOM     31  O   LIG A   1      -4.119   6.776 127.985  0.00  0.00    -0.251 OA
BRANCH  30  32
ATOM     32  O   LIG A   1      -1.899   6.844 127.931  0.00  0.00    -0.481 OA
ATOM     33  H   LIG A   1      -1.237   6.262 128.351  0.00  0.00    +0.295 HD
ENDBRANCH  30  32
ENDBRANCH  29  30
ENDBRANCH  28  29
ENDBRANCH  14  28
TORSDOF 6
ENDMDL
MODEL 6
REMARK VINA RESULT:      -7.8      3.016      4.585
REMARK  Name = NuBBE_433
REMARK  12 active torsions:
REMARK  status: ('A' for Active; 'I' for Inactive)
REMARK    1  A    between atoms: C_1  and  C_2
REMARK    2  A    between atoms: C_2  and  C_3
REMARK    3  A    between atoms: C_7  and  C_8
REMARK    4  A    between atoms: C_11  and  C_12
REMARK    5  A    between atoms: C_13  and  C_36
REMARK    6  A    between atoms: C_16  and  C_25
REMARK    7  A    between atoms: C_18  and  C_19
REMARK    8  A    between atoms: C_18  and  C_20
REMARK    9  A    between atoms: C_20  and  C_21
REMARK   10  A    between atoms: C_21  and  C_22
REMARK   11  A    between atoms: C_22  and  O_23
REMARK   12  A    between atoms: C_25  and  C_26
REMARK                            x       y       z     vdW  Elec       q    Type
REMARK                         _______ _______ _______ _____ _____    ______ ____
ROOT
ATOM      1  C   LIG A   1      -6.092   2.207 124.837  0.00  0.00    +0.018 C 
ATOM      2  C   LIG A   1      -6.623   2.108 123.401  0.00  0.00    +0.009 C 
ATOM      3  C   LIG A   1      -7.545   0.897 123.426  0.00  0.00    +0.007 C 
ATOM      4  C   LIG A   1      -8.277   0.993 124.784  0.00  0.00    -0.028 C 
ATOM      5  C   LIG A   1      -9.432   2.023 124.627  0.00  0.00    +0.011 C 
ATOM      6  C   LIG A   1      -8.927  -0.330 125.223  0.00  0.00    +0.007 C 
ATOM      7  C   LIG A   1      -8.612  -0.766 126.661  0.00  0.00    +0.008 C 
ATOM      8  C   LIG A   1      -7.090  -0.799 126.987  0.00  0.00    -0.023 C 
ATOM      9  C   LIG A   1      -6.392  -1.651 125.880  0.00  0.00    +0.012 C 
ATOM     10  C   LIG A   1      -6.709  -1.482 128.450  0.00  0.00    -0.023 C 
ATOM     11  C   LIG A   1      -7.499  -2.808 128.679  0.00  0.00    +0.008 C 
ATOM     12  C   LIG A   1      -7.817  -3.167 130.132  0.00  0.00    +0.009 C 
ATOM     13  C   LIG A   1      -6.771  -2.741 131.178  0.00  0.00    +0.020 C 
ATOM     14  C   LIG A   1      -6.653  -1.137 131.148  0.00  0.00    -0.022 C 
ATOM     15  C   LIG A   1      -5.297  -0.585 131.666  0.00  0.00    +0.012 C 
ATOM     16  C   LIG A   1      -6.997  -0.540 129.671  0.00  0.00    +0.002 C 
ATOM     17  C   LIG A   1      -6.358   0.837 129.446  0.00  0.00    +0.005 C 
ATOM     18  C   LIG A   1      -6.862   1.490 128.184  0.00  0.00    +0.005 C 
ATOM     19  C   LIG A   1      -6.594   0.690 126.891  0.00  0.00    -0.000 C 
ATOM     20  C   LIG A   1      -7.203   1.578 125.742  0.00  0.00    +0.006 C 
ATOM     21  C   LIG A   1      -5.186  -1.825 128.427  0.00  0.00    +0.012 C 
ENDROOT
BRANCH   1  23
ATOM     22  C   LIG A   1      -4.377   3.824 125.963  0.00  0.00    +0.038 C 
ATOM     23  C   LIG A   1      -5.680   3.626 125.227  0.00  0.00    -0.076 C 
ATOM     24  C   LIG A   1      -6.445   4.693 124.940  0.00  0.00    +0.007 C 
ENDBRANCH   1  23
BRANCH  13  25
ATOM     25  C   LIG A   1      -5.528  -3.662 131.246  0.00  0.00    -0.076 C 
ATOM     26  C   LIG A   1      -5.581  -5.043 130.633  0.00  0.00    +0.038 C 
ATOM     27  C   LIG A   1      -4.437  -3.383 131.986  0.00  0.00    +0.007 C 
ENDBRANCH  13  25
BRANCH  14  28
ATOM     28  C   LIG A   1      -7.754  -0.529 132.130  0.00  0.00    +0.018 C 
BRANCH  28  29
ATOM     29  C   LIG A   1      -8.996   0.108 131.477  0.00  0.00    +0.121 C 
BRANCH  29  30
ATOM     30  C   LIG A   1      -9.174   1.546 131.881  0.00  0.00    +0.305 C 
ATOM     31  O   LIG A   1      -9.110   2.009 133.008  0.00  0.00    -0.251 OA
BRANCH  30  32
ATOM     32  O   LIG A   1      -9.481   2.336 130.841  0.00  0.00    -0.481 OA
ATOM     33  H   LIG A   1      -8.643   2.767 130.587  0.00  0.00    +0.295 HD
ENDBRANCH  30  32
ENDBRANCH  29  30
ENDBRANCH  28  29
ENDBRANCH  14  28
TORSDOF 6
ENDMDL
MODEL 7
REMARK VINA RESULT:      -7.8      4.246      5.969
REMARK  Name = NuBBE_433
REMARK  12 active torsions:
REMARK  status: ('A' for Active; 'I' for Inactive)
REMARK    1  A    between atoms: C_1  and  C_2
REMARK    2  A    between atoms: C_2  and  C_3
REMARK    3  A    between atoms: C_7  and  C_8
REMARK    4  A    between atoms: C_11  and  C_12
REMARK    5  A    between atoms: C_13  and  C_36
REMARK    6  A    between atoms: C_16  and  C_25
REMARK    7  A    between atoms: C_18  and  C_19
REMARK    8  A    between atoms: C_18  and  C_20
REMARK    9  A    between atoms: C_20  and  C_21
REMARK   10  A    between atoms: C_21  and  C_22
REMARK   11  A    between atoms: C_22  and  O_23
REMARK   12  A    between atoms: C_25  and  C_26
REMARK                            x       y       z     vdW  Elec       q    Type
REMARK                         _______ _______ _______ _____ _____    ______ ____
ROOT
ATOM      1  C   LIG A   1      -7.838  -0.897 124.201  0.00  0.00    +0.018 C 
ATOM      2  C   LIG A   1      -7.638  -2.331 123.692  0.00  0.00    +0.009 C 
ATOM      3  C   LIG A   1      -7.327  -3.133 124.948  0.00  0.00    +0.007 C 
ATOM      4  C   LIG A   1      -8.269  -2.551 126.026  0.00  0.00    -0.028 C 
ATOM      5  C   LIG A   1      -9.674  -3.186 125.820  0.00  0.00    +0.011 C 
ATOM      6  C   LIG A   1      -7.840  -2.893 127.462  0.00  0.00    +0.007 C 
ATOM      7  C   LIG A   1      -7.782  -1.700 128.428  0.00  0.00    +0.008 C 
ATOM      8  C   LIG A   1      -6.933  -0.508 127.900  0.00  0.00    -0.023 C 
ATOM      9  C   LIG A   1      -5.539  -1.074 127.480  0.00  0.00    +0.012 C 
ATOM     10  C   LIG A   1      -6.662   0.696 129.010  0.00  0.00    -0.023 C 
ATOM     11  C   LIG A   1      -6.250   0.106 130.395  0.00  0.00    +0.008 C 
ATOM     12  C   LIG A   1      -6.638   0.929 131.626  0.00  0.00    +0.009 C 
ATOM     13  C   LIG A   1      -6.639   2.457 131.444  0.00  0.00    +0.020 C 
ATOM     14  C   LIG A   1      -7.725   2.830 130.318  0.00  0.00    -0.022 C 
ATOM     15  C   LIG A   1      -7.463   4.181 129.599  0.00  0.00    +0.012 C 
ATOM     16  C   LIG A   1      -7.906   1.623 129.238  0.00  0.00    +0.002 C 
ATOM     17  C   LIG A   1      -8.448   2.130 127.896  0.00  0.00    +0.005 C 
ATOM     18  C   LIG A   1      -8.835   0.995 126.982  0.00  0.00    +0.005 C 
ATOM     19  C   LIG A   1      -7.683   0.030 126.628  0.00  0.00    -0.000 C 
ATOM     20  C   LIG A   1      -8.340  -1.039 125.676  0.00  0.00    +0.006 C 
ATOM     21  C   LIG A   1      -5.477   1.565 128.483  0.00  0.00    +0.012 C 
ENDROOT
BRANCH   1  23
ATOM     22  C   LIG A   1      -8.521   1.432 123.235  0.00  0.00    +0.038 C 
ATOM     23  C   LIG A   1      -8.741  -0.060 123.297  0.00  0.00    -0.076 C 
ATOM     24  C   LIG A   1      -9.724  -0.613 122.565  0.00  0.00    +0.007 C 
ENDBRANCH   1  23
BRANCH  13  25
ATOM     25  C   LIG A   1      -5.232   3.103 131.485  0.00  0.00    -0.076 C 
ATOM     26  C   LIG A   1      -4.012   2.235 131.700  0.00  0.00    +0.038 C 
ATOM     27  C   LIG A   1      -5.027   4.434 131.521  0.00  0.00    +0.007 C 
ENDBRANCH  13  25
BRANCH  14  28
ATOM     28  C   LIG A   1      -9.147   3.001 131.021  0.00  0.00    +0.018 C 
BRANCH  28  29
ATOM     29  C   LIG A   1      -9.538   4.423 131.470  0.00  0.00    +0.121 C 
BRANCH  29  30
ATOM     30  C   LIG A   1     -10.841   4.870 130.867  0.00  0.00    +0.305 C 
ATOM     31  O   LIG A   1     -11.309   4.536 129.791  0.00  0.00    -0.251 OA
BRANCH  30  32
ATOM     32  O   LIG A   1     -11.478   5.768 131.634  0.00  0.00    -0.481 OA
ATOM     33  H   LIG A   1     -12.118   5.251 132.160  0.00  0.00    +0.295 HD
ENDBRANCH  30  32
ENDBRANCH  29  30
ENDBRANCH  28  29
ENDBRANCH  14  28
TORSDOF 6
ENDMDL
MODEL 8
REMARK VINA RESULT:      -7.7      5.880      7.562
REMARK  Name = NuBBE_433
REMARK  12 active torsions:
REMARK  status: ('A' for Active; 'I' for Inactive)
REMARK    1  A    between atoms: C_1  and  C_2
REMARK    2  A    between atoms: C_2  and  C_3
REMARK    3  A    between atoms: C_7  and  C_8
REMARK    4  A    between atoms: C_11  and  C_12
REMARK    5  A    between atoms: C_13  and  C_36
REMARK    6  A    between atoms: C_16  and  C_25
REMARK    7  A    between atoms: C_18  and  C_19
REMARK    8  A    between atoms: C_18  and  C_20
REMARK    9  A    between atoms: C_20  and  C_21
REMARK   10  A    between atoms: C_21  and  C_22
REMARK   11  A    between atoms: C_22  and  O_23
REMARK   12  A    between atoms: C_25  and  C_26
REMARK                            x       y       z     vdW  Elec       q    Type
REMARK                         _______ _______ _______ _____ _____    ______ ____
ROOT
ATOM      1  C   LIG A   1      -5.528   1.748 126.564  0.00  0.00    +0.018 C 
ATOM      2  C   LIG A   1      -5.181   0.339 126.064  0.00  0.00    +0.009 C 
ATOM      3  C   LIG A   1      -5.781  -0.588 127.112  0.00  0.00    +0.007 C 
ATOM      4  C   LIG A   1      -7.133   0.064 127.480  0.00  0.00    -0.028 C 
ATOM      5  C   LIG A   1      -8.160  -0.319 126.376  0.00  0.00    +0.011 C 
ATOM      6  C   LIG A   1      -7.714  -0.441 128.811  0.00  0.00    +0.007 C 
ATOM      7  C   LIG A   1      -8.162   0.657 129.787  0.00  0.00    +0.008 C 
ATOM      8  C   LIG A   1      -7.070   1.730 130.068  0.00  0.00    -0.023 C 
ATOM      9  C   LIG A   1      -5.768   0.976 130.489  0.00  0.00    +0.012 C 
ATOM     10  C   LIG A   1      -7.439   2.794 131.286  0.00  0.00    -0.023 C 
ATOM     11  C   LIG A   1      -8.023   2.052 132.529  0.00  0.00    +0.008 C 
ATOM     12  C   LIG A   1      -9.015   2.840 133.386  0.00  0.00    +0.009 C 
ATOM     13  C   LIG A   1      -8.773   4.357 133.478  0.00  0.00    +0.020 C 
ATOM     14  C   LIG A   1      -8.896   4.978 132.000  0.00  0.00    -0.022 C 
ATOM     15  C   LIG A   1      -8.131   6.314 131.801  0.00  0.00    +0.012 C 
ATOM     16  C   LIG A   1      -8.474   3.893 130.859  0.00  0.00    +0.002 C 
ATOM     17  C   LIG A   1      -8.026   4.573 129.558  0.00  0.00    +0.005 C 
ATOM     18  C   LIG A   1      -7.862   3.581 128.434  0.00  0.00    +0.005 C 
ATOM     19  C   LIG A   1      -6.826   2.468 128.701  0.00  0.00    -0.000 C 
ATOM     20  C   LIG A   1      -6.844   1.588 127.395  0.00  0.00    +0.006 C 
ATOM     21  C   LIG A   1      -6.113   3.494 131.719  0.00  0.00    +0.012 C 
ENDROOT
BRANCH   1  23
ATOM     22  C   LIG A   1      -6.566   2.540 124.302  0.00  0.00    +0.038 C 
ATOM     23  C   LIG A   1      -5.605   2.780 125.440  0.00  0.00    -0.076 C 
ATOM     24  C   LIG A   1      -4.839   3.885 125.435  0.00  0.00    +0.007 C 
ENDBRANCH   1  23
BRANCH  13  25
ATOM     25  C   LIG A   1      -7.642   4.762 134.456  0.00  0.00    -0.076 C 
ATOM     26  C   LIG A   1      -6.593   3.748 134.854  0.00  0.00    +0.038 C 
ATOM     27  C   LIG A   1      -7.627   5.927 135.132  0.00  0.00    +0.007 C 
ENDBRANCH  13  25
BRANCH  14  28
ATOM     28  C   LIG A   1     -10.427   5.328 131.722  0.00  0.00    +0.018 C 
BRANCH  28  29
ATOM     29  C   LIG A   1     -10.726   6.705 131.097  0.00  0.00    +0.121 C 
BRANCH  29  30
ATOM     30  C   LIG A   1     -11.359   6.586 129.738  0.00  0.00    +0.305 C 
ATOM     31  O   LIG A   1     -11.859   5.590 129.242  0.00  0.00    -0.251 OA
BRANCH  30  32
ATOM     32  O   LIG A   1     -11.285   7.727 129.037  0.00  0.00    -0.481 OA
ATOM     33  H   LIG A   1     -10.509   7.621 128.453  0.00  0.00    +0.295 HD
ENDBRANCH  30  32
ENDBRANCH  29  30
ENDBRANCH  28  29
ENDBRANCH  14  28
TORSDOF 6
ENDMDL
MODEL 9
REMARK VINA RESULT:      -7.6      6.974     10.692
REMARK  Name = NuBBE_433
REMARK  12 active torsions:
REMARK  status: ('A' for Active; 'I' for Inactive)
REMARK    1  A    between atoms: C_1  and  C_2
REMARK    2  A    between atoms: C_2  and  C_3
REMARK    3  A    between atoms: C_7  and  C_8
REMARK    4  A    between atoms: C_11  and  C_12
REMARK    5  A    between atoms: C_13  and  C_36
REMARK    6  A    between atoms: C_16  and  C_25
REMARK    7  A    between atoms: C_18  and  C_19
REMARK    8  A    between atoms: C_18  and  C_20
REMARK    9  A    between atoms: C_20  and  C_21
REMARK   10  A    between atoms: C_21  and  C_22
REMARK   11  A    between atoms: C_22  and  O_23
REMARK   12  A    between atoms: C_25  and  C_26
REMARK                            x       y       z     vdW  Elec       q    Type
REMARK                         _______ _______ _______ _____ _____    ______ ____
ROOT
ATOM      1  C   LIG A   1      -2.338   6.180 134.347  0.00  0.00    +0.018 C 
ATOM      2  C   LIG A   1      -0.987   6.657 133.797  0.00  0.00    +0.009 C 
ATOM      3  C   LIG A   1      -1.151   6.580 132.285  0.00  0.00    +0.007 C 
ATOM      4  C   LIG A   1      -2.593   7.070 132.024  0.00  0.00    -0.028 C 
ATOM      5  C   LIG A   1      -2.580   8.625 132.066  0.00  0.00    +0.011 C 
ATOM      6  C   LIG A   1      -3.132   6.675 130.639  0.00  0.00    +0.007 C 
ATOM      7  C   LIG A   1      -4.521   6.019 130.642  0.00  0.00    +0.008 C 
ATOM      8  C   LIG A   1      -4.640   4.809 131.613  0.00  0.00    -0.023 C 
ATOM      9  C   LIG A   1      -3.460   3.835 131.297  0.00  0.00    +0.012 C 
ATOM     10  C   LIG A   1      -6.047   3.941 131.471  0.00  0.00    -0.023 C 
ATOM     11  C   LIG A   1      -6.397   3.671 129.973  0.00  0.00    +0.008 C 
ATOM     12  C   LIG A   1      -7.884   3.544 129.635  0.00  0.00    +0.009 C 
ATOM     13  C   LIG A   1      -8.775   2.923 130.726  0.00  0.00    +0.020 C 
ATOM     14  C   LIG A   1      -8.709   3.864 132.028  0.00  0.00    -0.022 C 
ATOM     15  C   LIG A   1      -9.033   3.137 133.361  0.00  0.00    +0.012 C 
ATOM     16  C   LIG A   1      -7.284   4.649 132.127  0.00  0.00    +0.002 C 
ATOM     17  C   LIG A   1      -6.958   5.067 133.567  0.00  0.00    +0.005 C 
ATOM     18  C   LIG A   1      -5.766   5.990 133.628  0.00  0.00    +0.005 C 
ATOM     19  C   LIG A   1      -4.460   5.394 133.061  0.00  0.00    -0.000 C 
ATOM     20  C   LIG A   1      -3.391   6.536 133.246  0.00  0.00    +0.006 C 
ATOM     21  C   LIG A   1      -5.825   2.564 132.172  0.00  0.00    +0.012 C 
ENDROOT
BRANCH   1  23
ATOM     22  C   LIG A   1      -2.317   8.182 136.024  0.00  0.00    +0.038 C 
ATOM     23  C   LIG A   1      -2.651   6.739 135.734  0.00  0.00    -0.076 C 
ATOM     24  C   LIG A   1      -3.205   5.983 136.697  0.00  0.00    +0.007 C 
ENDBRANCH   1  23
BRANCH  13  25
ATOM     25  C   LIG A   1      -8.687   1.379 130.815  0.00  0.00    -0.076 C 
ATOM     26  C   LIG A   1      -7.979   0.603 129.727  0.00  0.00    +0.038 C 
ATOM     27  C   LIG A   1      -9.367   0.648 131.719  0.00  0.00    +0.007 C 
ENDBRANCH  13  25
BRANCH  14  28
ATOM     28  C   LIG A   1      -9.821   5.000 131.890  0.00  0.00    +0.018 C 
BRANCH  28  29
ATOM     29  C   LIG A   1      -9.344   6.395 131.443  0.00  0.00    +0.121 C 
BRANCH  29  30
ATOM     30  C   LIG A   1      -9.794   6.728 130.047  0.00  0.00    +0.305 C 
ATOM     31  O   LIG A   1      -9.533   7.734 129.409  0.00  0.00    -0.251 OA
BRANCH  30  32
ATOM     32  O   LIG A   1     -10.605   5.792 129.533  0.00  0.00    -0.481 OA
ATOM     33  H   LIG A   1     -10.018   5.060 129.264  0.00  0.00    +0.295 HD
ENDBRANCH  30  32
ENDBRANCH  29  30
ENDBRANCH  28  29
ENDBRANCH  14  28
TORSDOF 6
ENDMDL
