MODEL 1
REMARK VINA RESULT:     -10.2      0.000      0.000
REMARK  Name = NuBBE_1607
REMARK  18 active torsions:
REMARK  status: ('A' for Active; 'I' for Inactive)
REMARK    1  A    between atoms: C_1  and  C_2
REMARK    2  A    between atoms: C_12  and  C_14
REMARK    3  A    between atoms: C_15  and  O_19
REMARK    4  A    between atoms: O_19  and  C_20
REMARK    5  A    between atoms: C_23  and  C_25
REMARK    6  A    between atoms: C_25  and  O_26
REMARK    7  A    between atoms: C_27  and  O_35
REMARK    8  A    between atoms: C_29  and  O_34
REMARK    9  A    between atoms: C_31  and  O_33
REMARK   10  A    between atoms: C_38  and  C_39
REMARK   11  A    between atoms: C_40  and  C_44
REMARK   12  A    between atoms: C_44  and  C_46
REMARK   13  A    between atoms: C_44  and  C_53
REMARK   14  A    between atoms: C_46  and  C_47
REMARK   15  A    between atoms: C_47  and  C_48
REMARK   16  A    between atoms: C_48  and  C_50
REMARK   17  A    between atoms: C_50  and  C_51
REMARK   18  A    between atoms: C_50  and  C_52
REMARK                            x       y       z     vdW  Elec       q    Type
REMARK                         _______ _______ _______ _____ _____    ______ ____
ROOT
ATOM      1  C   LIG A   1      -5.626  -2.825 125.792  0.00  0.00    +0.012 C 
ATOM      2  C   LIG A   1      -6.459  -1.819 124.971  0.00  0.00    -0.023 C 
ATOM      3  C   LIG A   1      -6.424  -0.406 125.667  0.00  0.00    +0.002 C 
ATOM      4  C   LIG A   1      -7.219  -0.411 126.970  0.00  0.00    -0.019 C 
ATOM      5  C   LIG A   1      -7.041   0.792 127.920  0.00  0.00    -0.020 C 
ATOM      6  C   LIG A   1      -6.575  -0.597 128.327  0.00  0.00    +0.015 C 
ATOM      7  C   LIG A   1      -5.945   1.845 127.693  0.00  0.00    +0.001 C 
ATOM      8  C   LIG A   1      -5.214   1.675 126.339  0.00  0.00    +0.005 C 
ATOM      9  C   LIG A   1      -5.039   0.229 125.870  0.00  0.00    +0.005 C 
ATOM     10  C   LIG A   1      -6.499   3.307 127.848  0.00  0.00    +0.018 C 
ATOM     11  C   LIG A   1      -5.368   4.344 127.699  0.00  0.00    +0.010 C 
ATOM     12  C   LIG A   1      -7.223   3.531 129.211  0.00  0.00    +0.125 C 
ATOM     13  C   LIG A   1      -8.092   2.345 129.624  0.00  0.00    +0.032 C 
ATOM     14  C   LIG A   1      -8.310   1.322 128.545  0.00  0.00    +0.010 C 
ATOM     15  C   LIG A   1      -8.637  -0.896 126.782  0.00  0.00    +0.008 C 
ATOM     16  C   LIG A   1      -8.769  -2.187 126.004  0.00  0.00    +0.008 C 
ATOM     17  C   LIG A   1      -7.952  -2.283 124.713  0.00  0.00    -0.023 C 
ATOM     18  C   LIG A   1      -8.035  -3.795 124.310  0.00  0.00    +0.012 C 
ATOM     19  C   LIG A   1      -8.424  -1.481 123.422  0.00  0.00    -0.002 C 
ATOM     20  C   LIG A   1      -7.078  -1.225 122.674  0.00  0.00    +0.005 C 
ATOM     21  C   LIG A   1      -5.928  -1.764 123.527  0.00  0.00    +0.008 C 
ENDROOT
BRANCH  19  22
ATOM     22  C   LIG A   1      -9.301  -0.174 123.443  0.00  0.00    -0.010 C 
ATOM     23  C   LIG A   1     -10.192   0.078 122.219  0.00  0.00    +0.008 C 
BRANCH  22  24
ATOM     24  C   LIG A   1      -8.444   1.129 123.640  0.00  0.00    +0.008 C 
BRANCH  24  25
ATOM     25  C   LIG A   1      -9.032   2.411 123.018  0.00  0.00    +0.030 C 
BRANCH  25  26
ATOM     26  C   LIG A   1      -8.078   3.072 122.041  0.00  0.00    -0.074 C 
ATOM     27  C   LIG A   1      -8.582   3.720 120.959  0.00  0.00    +0.008 C 
BRANCH  26  28
ATOM     28  C   LIG A   1      -6.588   2.959 122.342  0.00  0.00    +0.008 C 
ATOM     29  C   LIG A   1      -5.690   3.138 121.112  0.00  0.00    +0.012 C 
ATOM     30  C   LIG A   1      -6.147   3.933 123.443  0.00  0.00    +0.012 C 
ENDBRANCH  26  28
ENDBRANCH  25  26
ENDBRANCH  24  25
ENDBRANCH  22  24
ENDBRANCH  19  22
BRANCH  12  31
ATOM     31  O   LIG A   1      -7.984   4.763 129.172  0.00  0.00    -0.345 OA
BRANCH  31  32
ATOM     32  C   LIG A   1      -9.168   4.836 129.999  0.00  0.00    +0.282 C 
ATOM     33  O   LIG A   1     -10.168   5.588 129.278  0.00  0.00    -0.341 OA
ATOM     34  C   LIG A   1     -11.431   5.645 129.971  0.00  0.00    +0.178 C 
ATOM     35  C   LIG A   1     -11.258   6.440 131.272  0.00  0.00    +0.177 C 
ATOM     36  C   LIG A   1     -10.216   5.736 132.135  0.00  0.00    +0.179 C 
ATOM     37  C   LIG A   1      -8.910   5.465 131.391  0.00  0.00    +0.201 C 
BRANCH  37  38
ATOM     38  O   LIG A   1      -8.149   4.599 132.253  0.00  0.00    -0.384 OA
ATOM     39  H   LIG A   1      -8.731   4.431 133.022  0.00  0.00    +0.210 HD
ENDBRANCH  37  38
BRANCH  36  40
ATOM     40  O   LIG A   1      -9.924   6.505 133.313  0.00  0.00    -0.386 OA
ATOM     41  H   LIG A   1     -10.068   5.908 134.075  0.00  0.00    +0.210 HD
ENDBRANCH  36  40
BRANCH  35  42
ATOM     42  O   LIG A   1     -12.467   6.543 132.034  0.00  0.00    -0.387 OA
ATOM     43  H   LIG A   1     -12.257   6.845 132.935  0.00  0.00    +0.210 HD
ENDBRANCH  35  42
BRANCH  34  44
ATOM     44  C   LIG A   1     -12.472   6.282 129.042  0.00  0.00    +0.190 C 
BRANCH  44  45
ATOM     45  O   LIG A   1     -11.903   6.604 127.777  0.00  0.00    -0.392 OA
ATOM     46  H   LIG A   1     -11.807   7.575 127.768  0.00  0.00    +0.209 HD
ENDBRANCH  44  45
ENDBRANCH  34  44
ENDBRANCH  31  32
ENDBRANCH  12  31
TORSDOF 12
ENDMDL
MODEL 2
REMARK VINA RESULT:      -9.0      3.558      7.630
REMARK  Name = NuBBE_1607
REMARK  18 active torsions:
REMARK  status: ('A' for Active; 'I' for Inactive)
REMARK    1  A    between atoms: C_1  and  C_2
REMARK    2  A    between atoms: C_12  and  C_14
REMARK    3  A    between atoms: C_15  and  O_19
REMARK    4  A    between atoms: O_19  and  C_20
REMARK    5  A    between atoms: C_23  and  C_25
REMARK    6  A    between atoms: C_25  and  O_26
REMARK    7  A    between atoms: C_27  and  O_35
REMARK    8  A    between atoms: C_29  and  O_34
REMARK    9  A    between atoms: C_31  and  O_33
REMARK   10  A    between atoms: C_38  and  C_39
REMARK   11  A    between atoms: C_40  and  C_44
REMARK   12  A    between atoms: C_44  and  C_46
REMARK   13  A    between atoms: C_44  and  C_53
REMARK   14  A    between atoms: C_46  and  C_47
REMARK   15  A    between atoms: C_47  and  C_48
REMARK   16  A    between atoms: C_48  and  C_50
REMARK   17  A    between atoms: C_50  and  C_51
REMARK   18  A    between atoms: C_50  and  C_52
REMARK                            x       y       z     vdW  Elec       q    Type
REMARK                         _______ _______ _______ _____ _____    ______ ____
ROOT
ATOM      1  C   LIG A   1      -4.790  -4.468 131.484  0.00  0.00    +0.012 C 
ATOM      2  C   LIG A   1      -5.688  -3.247 131.771  0.00  0.00    -0.023 C 
ATOM      3  C   LIG A   1      -6.403  -2.788 130.444  0.00  0.00    +0.002 C 
ATOM      4  C   LIG A   1      -5.409  -2.166 129.467  0.00  0.00    -0.019 C 
ATOM      5  C   LIG A   1      -5.881  -1.939 128.015  0.00  0.00    -0.020 C 
ATOM      6  C   LIG A   1      -4.778  -2.938 128.329  0.00  0.00    +0.015 C 
ATOM      7  C   LIG A   1      -7.206  -2.520 127.497  0.00  0.00    +0.001 C 
ATOM      8  C   LIG A   1      -8.071  -3.147 128.618  0.00  0.00    +0.005 C 
ATOM      9  C   LIG A   1      -7.286  -3.830 129.741  0.00  0.00    +0.005 C 
ATOM     10  C   LIG A   1      -8.031  -1.457 126.686  0.00  0.00    +0.018 C 
ATOM     11  C   LIG A   1      -9.315  -2.082 126.105  0.00  0.00    +0.010 C 
ATOM     12  C   LIG A   1      -7.205  -0.816 125.529  0.00  0.00    +0.125 C 
ATOM     13  C   LIG A   1      -5.763  -0.510 125.927  0.00  0.00    +0.032 C 
ATOM     14  C   LIG A   1      -5.483  -0.619 127.400  0.00  0.00    +0.010 C 
ATOM     15  C   LIG A   1      -4.619  -1.035 130.086  0.00  0.00    +0.008 C 
ATOM     16  C   LIG A   1      -4.006  -1.351 131.432  0.00  0.00    +0.008 C 
ATOM     17  C   LIG A   1      -4.924  -2.034 132.448  0.00  0.00    -0.023 C 
ATOM     18  C   LIG A   1      -3.959  -2.511 133.588  0.00  0.00    +0.012 C 
ATOM     19  C   LIG A   1      -6.052  -1.187 133.184  0.00  0.00    -0.002 C 
ATOM     20  C   LIG A   1      -7.142  -2.263 133.483  0.00  0.00    +0.005 C 
ATOM     21  C   LIG A   1      -6.697  -3.597 132.879  0.00  0.00    +0.008 C 
ENDROOT
BRANCH  19  22
ATOM     22  C   LIG A   1      -6.711   0.124 132.613  0.00  0.00    -0.010 C 
ATOM     23  C   LIG A   1      -6.648   1.372 133.505  0.00  0.00    +0.008 C 
BRANCH  22  24
ATOM     24  C   LIG A   1      -8.225  -0.073 132.238  0.00  0.00    +0.008 C 
BRANCH  24  25
ATOM     25  C   LIG A   1      -8.563   0.075 130.740  0.00  0.00    +0.030 C 
BRANCH  25  26
ATOM     26  C   LIG A   1      -8.140   1.420 130.182  0.00  0.00    -0.074 C 
ATOM     27  C   LIG A   1      -7.287   1.461 129.125  0.00  0.00    +0.008 C 
BRANCH  26  28
ATOM     28  C   LIG A   1      -8.707   2.663 130.859  0.00  0.00    +0.008 C 
ATOM     29  C   LIG A   1      -7.722   3.836 130.932  0.00  0.00    +0.012 C 
ATOM     30  C   LIG A   1     -10.013   3.132 130.203  0.00  0.00    +0.012 C 
ENDBRANCH  26  28
ENDBRANCH  25  26
ENDBRANCH  24  25
ENDBRANCH  22  24
ENDBRANCH  19  22
BRANCH  12  31
ATOM     31  O   LIG A   1      -7.884   0.363 125.030  0.00  0.00    -0.345 OA
BRANCH  31  32
ATOM     32  C   LIG A   1      -7.142   1.605 125.035  0.00  0.00    +0.282 C 
ATOM     33  O   LIG A   1      -7.759   2.487 125.997  0.00  0.00    -0.341 OA
ATOM     34  C   LIG A   1      -7.043   3.728 126.155  0.00  0.00    +0.178 C 
ATOM     35  C   LIG A   1      -7.114   4.524 124.846  0.00  0.00    +0.177 C 
ATOM     36  C   LIG A   1      -6.482   3.691 123.737  0.00  0.00    +0.179 C 
ATOM     37  C   LIG A   1      -7.065   2.282 123.643  0.00  0.00    +0.201 C 
BRANCH  37  38
ATOM     38  O   LIG A   1      -6.207   1.570 122.733  0.00  0.00    -0.384 OA
ATOM     39  H   LIG A   1      -5.944   0.759 123.213  0.00  0.00    +0.210 HD
ENDBRANCH  37  38
BRANCH  36  40
ATOM     40  O   LIG A   1      -6.632   4.337 122.462  0.00  0.00    -0.386 OA
ATOM     41  H   LIG A   1      -7.469   4.841 122.506  0.00  0.00    +0.210 HD
ENDBRANCH  36  40
BRANCH  35  42
ATOM     42  O   LIG A   1      -6.420   5.776 124.909  0.00  0.00    -0.387 OA
ATOM     43  H   LIG A   1      -5.658   5.754 124.304  0.00  0.00    +0.210 HD
ENDBRANCH  35  42
BRANCH  34  44
ATOM     44  C   LIG A   1      -7.653   4.501 127.332  0.00  0.00    +0.190 C 
BRANCH  44  45
ATOM     45  O   LIG A   1      -8.728   5.328 126.900  0.00  0.00    -0.392 OA
ATOM     46  H   LIG A   1      -9.494   5.079 127.450  0.00  0.00    +0.209 HD
ENDBRANCH  44  45
ENDBRANCH  34  44
ENDBRANCH  31  32
ENDBRANCH  12  31
TORSDOF 12
ENDMDL
MODEL 3
REMARK VINA RESULT:      -8.9      3.288      4.900
REMARK  Name = NuBBE_1607
REMARK  18 active torsions:
REMARK  status: ('A' for Active; 'I' for Inactive)
REMARK    1  A    between atoms: C_1  and  C_2
REMARK    2  A    between atoms: C_12  and  C_14
REMARK    3  A    between atoms: C_15  and  O_19
REMARK    4  A    between atoms: O_19  and  C_20
REMARK    5  A    between atoms: C_23  and  C_25
REMARK    6  A    between atoms: C_25  and  O_26
REMARK    7  A    between atoms: C_27  and  O_35
REMARK    8  A    between atoms: C_29  and  O_34
REMARK    9  A    between atoms: C_31  and  O_33
REMARK   10  A    between atoms: C_38  and  C_39
REMARK   11  A    between atoms: C_40  and  C_44
REMARK   12  A    between atoms: C_44  and  C_46
REMARK   13  A    between atoms: C_44  and  C_53
REMARK   14  A    between atoms: C_46  and  C_47
REMARK   15  A    between atoms: C_47  and  C_48
REMARK   16  A    between atoms: C_48  and  C_50
REMARK   17  A    between atoms: C_50  and  C_51
REMARK   18  A    between atoms: C_50  and  C_52
REMARK                            x       y       z     vdW  Elec       q    Type
REMARK                         _______ _______ _______ _____ _____    ______ ____
ROOT
ATOM      1  C   LIG A   1      -6.157  -2.483 132.438  0.00  0.00    +0.012 C 
ATOM      2  C   LIG A   1      -5.769  -1.827 131.097  0.00  0.00    -0.023 C 
ATOM      3  C   LIG A   1      -6.076  -0.282 131.151  0.00  0.00    +0.002 C 
ATOM      4  C   LIG A   1      -7.579  -0.017 131.154  0.00  0.00    -0.019 C 
ATOM      5  C   LIG A   1      -8.051   1.410 131.504  0.00  0.00    -0.020 C 
ATOM      6  C   LIG A   1      -8.368   0.238 132.420  0.00  0.00    +0.015 C 
ATOM      7  C   LIG A   1      -7.083   2.469 132.055  0.00  0.00    +0.001 C 
ATOM      8  C   LIG A   1      -5.603   2.015 132.014  0.00  0.00    +0.005 C 
ATOM      9  C   LIG A   1      -5.373   0.521 132.256  0.00  0.00    +0.005 C 
ATOM     10  C   LIG A   1      -7.261   3.854 131.334  0.00  0.00    +0.018 C 
ATOM     11  C   LIG A   1      -6.341   4.921 131.957  0.00  0.00    +0.010 C 
ATOM     12  C   LIG A   1      -8.735   4.362 131.373  0.00  0.00    +0.125 C 
ATOM     13  C   LIG A   1      -9.754   3.249 131.136  0.00  0.00    +0.032 C 
ATOM     14  C   LIG A   1      -9.167   1.956 130.645  0.00  0.00    +0.010 C 
ATOM     15  C   LIG A   1      -8.286  -0.677 129.993  0.00  0.00    +0.008 C 
ATOM     16  C   LIG A   1      -7.944  -2.136 129.788  0.00  0.00    +0.008 C 
ATOM     17  C   LIG A   1      -6.457  -2.494 129.834  0.00  0.00    -0.023 C 
ATOM     18  C   LIG A   1      -6.433  -4.059 129.911  0.00  0.00    +0.012 C 
ATOM     19  C   LIG A   1      -5.520  -2.123 128.602  0.00  0.00    -0.002 C 
ATOM     20  C   LIG A   1      -4.126  -1.942 129.280  0.00  0.00    +0.005 C 
ATOM     21  C   LIG A   1      -4.287  -2.111 130.792  0.00  0.00    +0.008 C 
ENDROOT
BRANCH  19  22
ATOM     22  C   LIG A   1      -5.794  -0.956 127.581  0.00  0.00    -0.010 C 
ATOM     23  C   LIG A   1      -5.394  -1.210 126.121  0.00  0.00    +0.008 C 
BRANCH  22  24
ATOM     24  C   LIG A   1      -5.099   0.391 128.000  0.00  0.00    +0.008 C 
BRANCH  24  25
ATOM     25  C   LIG A   1      -6.040   1.602 128.159  0.00  0.00    +0.030 C 
BRANCH  25  26
ATOM     26  C   LIG A   1      -5.289   2.919 128.190  0.00  0.00    -0.074 C 
ATOM     27  C   LIG A   1      -5.942   4.064 127.860  0.00  0.00    +0.008 C 
BRANCH  26  28
ATOM     28  C   LIG A   1      -3.819   2.871 128.593  0.00  0.00    +0.008 C 
ATOM     29  C   LIG A   1      -2.847   3.106 127.430  0.00  0.00    +0.012 C 
ATOM     30  C   LIG A   1      -3.500   3.851 129.731  0.00  0.00    +0.012 C 
ENDBRANCH  26  28
ENDBRANCH  25  26
ENDBRANCH  24  25
ENDBRANCH  22  24
ENDBRANCH  19  22
BRANCH  12  31
ATOM     31  O   LIG A   1      -8.908   5.453 130.437  0.00  0.00    -0.345 OA
BRANCH  31  32
ATOM     32  C   LIG A   1     -10.259   5.761 130.021  0.00  0.00    +0.282 C 
ATOM     33  O   LIG A   1     -10.189   6.419 128.737  0.00  0.00    -0.341 OA
ATOM     34  C   LIG A   1     -11.490   6.690 128.178  0.00  0.00    +0.178 C 
ATOM     35  C   LIG A   1     -12.218   7.711 129.063  0.00  0.00    +0.177 C 
ATOM     36  C   LIG A   1     -12.360   7.125 130.463  0.00  0.00    +0.179 C 
ATOM     37  C   LIG A   1     -11.034   6.632 131.040  0.00  0.00    +0.201 C 
BRANCH  37  38
ATOM     38  O   LIG A   1     -11.381   5.904 132.233  0.00  0.00    -0.384 OA
ATOM     39  H   LIG A   1     -10.611   5.328 132.411  0.00  0.00    +0.210 HD
ENDBRANCH  37  38
BRANCH  36  40
ATOM     40  O   LIG A   1     -12.925   8.089 131.366  0.00  0.00    -0.386 OA
ATOM     41  H   LIG A   1     -13.886   8.105 131.185  0.00  0.00    +0.210 HD
ENDBRANCH  36  40
BRANCH  35  42
ATOM     42  O   LIG A   1     -13.529   8.037 128.584  0.00  0.00    -0.387 OA
ATOM     43  H   LIG A   1     -13.913   8.734 129.144  0.00  0.00    +0.210 HD
ENDBRANCH  35  42
BRANCH  34  44
ATOM     44  C   LIG A   1     -11.311   7.198 126.742  0.00  0.00    +0.190 C 
BRANCH  44  45
ATOM     45  O   LIG A   1     -12.372   6.749 125.904  0.00  0.00    -0.392 OA
ATOM     46  H   LIG A   1     -13.037   6.360 126.502  0.00  0.00    +0.209 HD
ENDBRANCH  44  45
ENDBRANCH  34  44
ENDBRANCH  31  32
ENDBRANCH  12  31
TORSDOF 12
ENDMDL
MODEL 4
REMARK VINA RESULT:      -8.9      4.421      8.479
REMARK  Name = NuBBE_1607
REMARK  18 active torsions:
REMARK  status: ('A' for Active; 'I' for Inactive)
REMARK    1  A    between atoms: C_1  and  C_2
REMARK    2  A    between atoms: C_12  and  C_14
REMARK    3  A    between atoms: C_15  and  O_19
REMARK    4  A    between atoms: O_19  and  C_20
REMARK    5  A    between atoms: C_23  and  C_25
REMARK    6  A    between atoms: C_25  and  O_26
REMARK    7  A    between atoms: C_27  and  O_35
REMARK    8  A    between atoms: C_29  and  O_34
REMARK    9  A    between atoms: C_31  and  O_33
REMARK   10  A    between atoms: C_38  and  C_39
REMARK   11  A    between atoms: C_40  and  C_44
REMARK   12  A    between atoms: C_44  and  C_46
REMARK   13  A    between atoms: C_44  and  C_53
REMARK   14  A    between atoms: C_46  and  C_47
REMARK   15  A    between atoms: C_47  and  C_48
REMARK   16  A    between atoms: C_48  and  C_50
REMARK   17  A    between atoms: C_50  and  C_51
REMARK   18  A    between atoms: C_50  and  C_52
REMARK                            x       y       z     vdW  Elec       q    Type
REMARK                         _______ _______ _______ _____ _____    ______ ____
ROOT
ATOM      1  C   LIG A   1      -3.026  -4.164 132.148  0.00  0.00    +0.012 C 
ATOM      2  C   LIG A   1      -4.162  -3.219 132.592  0.00  0.00    -0.023 C 
ATOM      3  C   LIG A   1      -5.204  -3.053 131.421  0.00  0.00    +0.002 C 
ATOM      4  C   LIG A   1      -4.617  -2.244 130.268  0.00  0.00    -0.019 C 
ATOM      5  C   LIG A   1      -5.388  -2.243 128.931  0.00  0.00    -0.020 C 
ATOM      6  C   LIG A   1      -4.013  -2.883 129.037  0.00  0.00    +0.015 C 
ATOM      7  C   LIG A   1      -6.569  -3.194 128.679  0.00  0.00    +0.001 C 
ATOM      8  C   LIG A   1      -7.007  -3.964 129.949  0.00  0.00    +0.005 C 
ATOM      9  C   LIG A   1      -5.873  -4.338 130.908  0.00  0.00    +0.005 C 
ATOM     10  C   LIG A   1      -7.791  -2.448 128.032  0.00  0.00    +0.018 C 
ATOM     11  C   LIG A   1      -8.932  -3.433 127.712  0.00  0.00    +0.010 C 
ATOM     12  C   LIG A   1      -7.401  -1.677 126.734  0.00  0.00    +0.125 C 
ATOM     13  C   LIG A   1      -6.053  -0.966 126.847  0.00  0.00    +0.032 C 
ATOM     14  C   LIG A   1      -5.493  -0.905 128.240  0.00  0.00    +0.010 C 
ATOM     15  C   LIG A   1      -4.076  -0.906 130.715  0.00  0.00    +0.008 C 
ATOM     16  C   LIG A   1      -3.166  -0.960 131.923  0.00  0.00    +0.008 C 
ATOM     17  C   LIG A   1      -3.657  -1.805 133.100  0.00  0.00    -0.023 C 
ATOM     18  C   LIG A   1      -2.408  -1.931 134.039  0.00  0.00    +0.012 C 
ATOM     19  C   LIG A   1      -4.824  -1.254 134.032  0.00  0.00    -0.002 C 
ATOM     20  C   LIG A   1      -5.498  -2.567 134.541  0.00  0.00    +0.005 C 
ATOM     21  C   LIG A   1      -4.816  -3.763 133.874  0.00  0.00    +0.008 C 
ENDROOT
BRANCH  19  22
ATOM     22  C   LIG A   1      -5.915  -0.210 133.586  0.00  0.00    -0.010 C 
ATOM     23  C   LIG A   1      -6.093   1.025 134.481  0.00  0.00    +0.008 C 
BRANCH  22  24
ATOM     24  C   LIG A   1      -7.342  -0.853 133.433  0.00  0.00    +0.008 C 
BRANCH  24  25
ATOM     25  C   LIG A   1      -7.862  -0.979 131.987  0.00  0.00    +0.030 C 
BRANCH  25  26
ATOM     26  C   LIG A   1      -8.314   0.351 131.415  0.00  0.00    -0.074 C 
ATOM     27  C   LIG A   1      -9.420   0.951 131.925  0.00  0.00    +0.008 C 
BRANCH  26  28
ATOM     28  C   LIG A   1      -7.483   0.937 130.279  0.00  0.00    +0.008 C 
ATOM     29  C   LIG A   1      -8.314   1.427 129.087  0.00  0.00    +0.012 C 
ATOM     30  C   LIG A   1      -6.564   2.068 130.760  0.00  0.00    +0.012 C 
ENDBRANCH  26  28
ENDBRANCH  25  26
ENDBRANCH  24  25
ENDBRANCH  22  24
ENDBRANCH  19  22
BRANCH  12  31
ATOM     31  O   LIG A   1      -8.460  -0.760 126.364  0.00  0.00    -0.345 OA
BRANCH  31  32
ATOM     32  C   LIG A   1      -8.264   0.028 125.167  0.00  0.00    +0.282 C 
ATOM     33  O   LIG A   1      -8.188   1.417 125.557  0.00  0.00    -0.341 OA
ATOM     34  C   LIG A   1      -7.899   2.292 124.449  0.00  0.00    +0.178 C 
ATOM     35  C   LIG A   1      -9.074   2.264 123.463  0.00  0.00    +0.177 C 
ATOM     36  C   LIG A   1      -9.257   0.834 122.968  0.00  0.00    +0.179 C 
ATOM     37  C   LIG A   1      -9.372  -0.180 124.104  0.00  0.00    +0.201 C 
BRANCH  37  38
ATOM     38  O   LIG A   1      -9.294  -1.473 123.476  0.00  0.00    -0.384 OA
ATOM     39  H   LIG A   1      -9.921  -2.036 123.974  0.00  0.00    +0.210 HD
ENDBRANCH  37  38
BRANCH  36  40
ATOM     40  O   LIG A   1     -10.423   0.726 122.135  0.00  0.00    -0.386 OA
ATOM     41  H   LIG A   1     -11.158   0.462 122.723  0.00  0.00    +0.210 HD
ENDBRANCH  36  40
BRANCH  35  42
ATOM     42  O   LIG A   1      -8.870   3.105 122.320  0.00  0.00    -0.387 OA
ATOM     43  H   LIG A   1      -7.931   3.354 122.266  0.00  0.00    +0.210 HD
ENDBRANCH  35  42
BRANCH  34  44
ATOM     44  C   LIG A   1      -7.639   3.703 124.993  0.00  0.00    +0.190 C 
BRANCH  44  45
ATOM     45  O   LIG A   1      -8.851   4.443 125.101  0.00  0.00    -0.392 OA
ATOM     46  H   LIG A   1      -9.433   4.104 124.395  0.00  0.00    +0.209 HD
ENDBRANCH  44  45
ENDBRANCH  34  44
ENDBRANCH  31  32
ENDBRANCH  12  31
TORSDOF 12
ENDMDL
MODEL 5
REMARK VINA RESULT:      -8.8      1.711      2.787
REMARK  Name = NuBBE_1607
REMARK  18 active torsions:
REMARK  status: ('A' for Active; 'I' for Inactive)
REMARK    1  A    between atoms: C_1  and  C_2
REMARK    2  A    between atoms: C_12  and  C_14
REMARK    3  A    between atoms: C_15  and  O_19
REMARK    4  A    between atoms: O_19  and  C_20
REMARK    5  A    between atoms: C_23  and  C_25
REMARK    6  A    between atoms: C_25  and  O_26
REMARK    7  A    between atoms: C_27  and  O_35
REMARK    8  A    between atoms: C_29  and  O_34
REMARK    9  A    between atoms: C_31  and  O_33
REMARK   10  A    between atoms: C_38  and  C_39
REMARK   11  A    between atoms: C_40  and  C_44
REMARK   12  A    between atoms: C_44  and  C_46
REMARK   13  A    between atoms: C_44  and  C_53
REMARK   14  A    between atoms: C_46  and  C_47
REMARK   15  A    between atoms: C_47  and  C_48
REMARK   16  A    between atoms: C_48  and  C_50
REMARK   17  A    between atoms: C_50  and  C_51
REMARK   18  A    between atoms: C_50  and  C_52
REMARK                            x       y       z     vdW  Elec       q    Type
REMARK                         _______ _______ _______ _____ _____    ______ ____
ROOT
ATOM      1  C   LIG A   1      -4.958  -1.170 128.379  0.00  0.00    +0.012 C 
ATOM      2  C   LIG A   1      -5.792  -0.238 127.476  0.00  0.00    -0.023 C 
ATOM      3  C   LIG A   1      -5.918   1.182 128.148  0.00  0.00    +0.002 C 
ATOM      4  C   LIG A   1      -6.814   1.132 129.382  0.00  0.00    -0.019 C 
ATOM      5  C   LIG A   1      -6.804   2.356 130.322  0.00  0.00    -0.020 C 
ATOM      6  C   LIG A   1      -6.272   1.010 130.790  0.00  0.00    +0.015 C 
ATOM      7  C   LIG A   1      -5.772   3.485 130.167  0.00  0.00    +0.001 C 
ATOM      8  C   LIG A   1      -4.922   3.354 128.879  0.00  0.00    +0.005 C 
ATOM      9  C   LIG A   1      -4.605   1.919 128.451  0.00  0.00    +0.005 C 
ATOM     10  C   LIG A   1      -6.442   4.904 130.250  0.00  0.00    +0.018 C 
ATOM     11  C   LIG A   1      -5.382   6.019 130.176  0.00  0.00    +0.010 C 
ATOM     12  C   LIG A   1      -7.290   5.088 131.546  0.00  0.00    +0.125 C 
ATOM     13  C   LIG A   1      -8.102   3.846 131.908  0.00  0.00    +0.032 C 
ATOM     14  C   LIG A   1      -8.155   2.797 130.832  0.00  0.00    +0.010 C 
ATOM     15  C   LIG A   1      -8.174   0.541 129.088  0.00  0.00    +0.008 C 
ATOM     16  C   LIG A   1      -8.147  -0.764 128.324  0.00  0.00    +0.008 C 
ATOM     17  C   LIG A   1      -7.222  -0.815 127.106  0.00  0.00    -0.023 C 
ATOM     18  C   LIG A   1      -7.161  -2.333 126.723  0.00  0.00    +0.012 C 
ATOM     19  C   LIG A   1      -7.642  -0.064 125.767  0.00  0.00    -0.002 C 
ATOM     20  C   LIG A   1      -6.262   0.282 125.126  0.00  0.00    +0.005 C 
ATOM     21  C   LIG A   1      -5.150  -0.161 126.079  0.00  0.00    +0.008 C 
ENDROOT
BRANCH  19  22
ATOM     22  C   LIG A   1      -8.612   1.174 125.694  0.00  0.00    -0.010 C 
ATOM     23  C   LIG A   1      -9.365   1.383 124.373  0.00  0.00    +0.008 C 
BRANCH  22  24
ATOM     24  C   LIG A   1      -7.885   2.532 126.007  0.00  0.00    +0.008 C 
BRANCH  24  25
ATOM     25  C   LIG A   1      -7.843   3.546 124.845  0.00  0.00    +0.030 C 
BRANCH  25  26
ATOM     26  C   LIG A   1      -6.441   3.749 124.304  0.00  0.00    -0.074 C 
ATOM     27  C   LIG A   1      -5.400   3.831 125.173  0.00  0.00    +0.008 C 
BRANCH  26  28
ATOM     28  C   LIG A   1      -6.289   3.856 122.791  0.00  0.00    +0.008 C 
ATOM     29  C   LIG A   1      -4.960   4.473 122.340  0.00  0.00    +0.012 C 
ATOM     30  C   LIG A   1      -6.486   2.502 122.095  0.00  0.00    +0.012 C 
ENDBRANCH  26  28
ENDBRANCH  25  26
ENDBRANCH  24  25
ENDBRANCH  22  24
ENDBRANCH  19  22
BRANCH  12  31
ATOM     31  O   LIG A   1      -8.133   6.260 131.424  0.00  0.00    -0.345 OA
BRANCH  31  32
ATOM     32  C   LIG A   1      -9.428   6.082 130.806  0.00  0.00    +0.282 C 
ATOM     33  O   LIG A   1      -9.430   6.814 129.560  0.00  0.00    -0.341 OA
ATOM     34  C   LIG A   1     -10.646   6.631 128.808  0.00  0.00    +0.178 C 
ATOM     35  C   LIG A   1     -11.818   7.246 129.584  0.00  0.00    +0.177 C 
ATOM     36  C   LIG A   1     -11.926   6.546 130.934  0.00  0.00    +0.179 C 
ATOM     37  C   LIG A   1     -10.608   6.531 131.705  0.00  0.00    +0.201 C 
BRANCH  37  38
ATOM     38  O   LIG A   1     -10.821   5.640 132.815  0.00  0.00    -0.384 OA
ATOM     39  H   LIG A   1      -9.927   5.453 133.166  0.00  0.00    +0.210 HD
ENDBRANCH  37  38
BRANCH  36  40
ATOM     40  O   LIG A   1     -12.931   7.166 131.753  0.00  0.00    -0.386 OA
ATOM     41  H   LIG A   1     -13.248   6.476 132.370  0.00  0.00    +0.210 HD
ENDBRANCH  36  40
BRANCH  35  42
ATOM     42  O   LIG A   1     -13.075   7.104 128.910  0.00  0.00    -0.387 OA
ATOM     43  H   LIG A   1     -12.918   6.948 127.962  0.00  0.00    +0.210 HD
ENDBRANCH  35  42
BRANCH  34  44
ATOM     44  C   LIG A   1     -10.470   7.275 127.426  0.00  0.00    +0.190 C 
BRANCH  44  45
ATOM     45  O   LIG A   1      -9.794   6.396 126.533  0.00  0.00    -0.392 OA
ATOM     46  H   LIG A   1      -9.474   5.654 127.081  0.00  0.00    +0.209 HD
ENDBRANCH  44  45
ENDBRANCH  34  44
ENDBRANCH  31  32
ENDBRANCH  12  31
TORSDOF 12
ENDMDL
MODEL 6
REMARK VINA RESULT:      -8.8      4.018      7.211
REMARK  Name = NuBBE_1607
REMARK  18 active torsions:
REMARK  status: ('A' for Active; 'I' for Inactive)
REMARK    1  A    between atoms: C_1  and  C_2
REMARK    2  A    between atoms: C_12  and  C_14
REMARK    3  A    between atoms: C_15  and  O_19
REMARK    4  A    between atoms: O_19  and  C_20
REMARK    5  A    between atoms: C_23  and  C_25
REMARK    6  A    between atoms: C_25  and  O_26
REMARK    7  A    between atoms: C_27  and  O_35
REMARK    8  A    between atoms: C_29  and  O_34
REMARK    9  A    between atoms: C_31  and  O_33
REMARK   10  A    between atoms: C_38  and  C_39
REMARK   11  A    between atoms: C_40  and  C_44
REMARK   12  A    between atoms: C_44  and  C_46
REMARK   13  A    between atoms: C_44  and  C_53
REMARK   14  A    between atoms: C_46  and  C_47
REMARK   15  A    between atoms: C_47  and  C_48
REMARK   16  A    between atoms: C_48  and  C_50
REMARK   17  A    between atoms: C_50  and  C_51
REMARK   18  A    between atoms: C_50  and  C_52
REMARK                            x       y       z     vdW  Elec       q    Type
REMARK                         _______ _______ _______ _____ _____    ______ ____
ROOT
ATOM      1  C   LIG A   1      -6.699  -2.262 130.229  0.00  0.00    +0.012 C 
ATOM      2  C   LIG A   1      -6.246  -1.217 131.270  0.00  0.00    -0.023 C 
ATOM      3  C   LIG A   1      -7.081   0.107 131.092  0.00  0.00    +0.002 C 
ATOM      4  C   LIG A   1      -6.702   0.832 129.803  0.00  0.00    -0.019 C 
ATOM      5  C   LIG A   1      -7.624   1.975 129.329  0.00  0.00    -0.020 C 
ATOM      6  C   LIG A   1      -7.490   0.695 128.519  0.00  0.00    +0.015 C 
ATOM      7  C   LIG A   1      -8.992   2.233 129.982  0.00  0.00    +0.001 C 
ATOM      8  C   LIG A   1      -9.224   1.383 131.255  0.00  0.00    +0.005 C 
ATOM      9  C   LIG A   1      -8.607  -0.017 131.225  0.00  0.00    +0.005 C 
ATOM     10  C   LIG A   1      -9.215   3.759 130.283  0.00  0.00    +0.018 C 
ATOM     11  C   LIG A   1     -10.623   4.007 130.860  0.00  0.00    +0.010 C 
ATOM     12  C   LIG A   1      -9.015   4.652 129.019  0.00  0.00    +0.125 C 
ATOM     13  C   LIG A   1      -7.827   4.216 128.165  0.00  0.00    +0.032 C 
ATOM     14  C   LIG A   1      -6.921   3.210 128.819  0.00  0.00    +0.010 C 
ATOM     15  C   LIG A   1      -5.219   1.100 129.704  0.00  0.00    +0.008 C 
ATOM     16  C   LIG A   1      -4.336  -0.094 129.992  0.00  0.00    +0.008 C 
ATOM     17  C   LIG A   1      -4.691  -0.911 131.237  0.00  0.00    -0.023 C 
ATOM     18  C   LIG A   1      -3.838  -2.219 131.102  0.00  0.00    +0.012 C 
ATOM     19  C   LIG A   1      -4.347  -0.336 132.680  0.00  0.00    -0.002 C 
ATOM     20  C   LIG A   1      -5.444  -0.992 133.576  0.00  0.00    +0.005 C 
ATOM     21  C   LIG A   1      -6.387  -1.803 132.686  0.00  0.00    +0.008 C 
ENDROOT
BRANCH  19  22
ATOM     22  C   LIG A   1      -4.191   1.192 133.027  0.00  0.00    -0.010 C 
ATOM     23  C   LIG A   1      -2.821   1.642 133.554  0.00  0.00    +0.008 C 
BRANCH  22  24
ATOM     24  C   LIG A   1      -5.251   1.686 134.078  0.00  0.00    +0.008 C 
BRANCH  24  25
ATOM     25  C   LIG A   1      -6.597   2.159 133.491  0.00  0.00    +0.030 C 
BRANCH  25  26
ATOM     26  C   LIG A   1      -6.550   3.601 133.023  0.00  0.00    -0.074 C 
ATOM     27  C   LIG A   1      -5.678   3.952 132.043  0.00  0.00    +0.008 C 
BRANCH  26  28
ATOM     28  C   LIG A   1      -7.499   4.582 133.702  0.00  0.00    +0.008 C 
ATOM     29  C   LIG A   1      -7.855   5.801 132.841  0.00  0.00    +0.012 C 
ATOM     30  C   LIG A   1      -8.789   3.900 134.179  0.00  0.00    +0.012 C 
ENDBRANCH  26  28
ENDBRANCH  25  26
ENDBRANCH  24  25
ENDBRANCH  22  24
ENDBRANCH  19  22
BRANCH  12  31
ATOM     31  O   LIG A   1      -8.912   6.044 129.408  0.00  0.00    -0.345 OA
BRANCH  31  32
ATOM     32  C   LIG A   1      -9.926   6.947 128.909  0.00  0.00    +0.282 C 
ATOM     33  O   LIG A   1     -10.903   7.140 129.956  0.00  0.00    -0.341 OA
ATOM     34  C   LIG A   1     -11.917   8.100 129.602  0.00  0.00    +0.178 C 
ATOM     35  C   LIG A   1     -12.749   7.551 128.436  0.00  0.00    +0.177 C 
ATOM     36  C   LIG A   1     -11.821   7.306 127.251  0.00  0.00    +0.179 C 
ATOM     37  C   LIG A   1     -10.609   6.450 127.610  0.00  0.00    +0.201 C 
BRANCH  37  38
ATOM     38  O   LIG A   1      -9.735   6.522 126.468  0.00  0.00    -0.384 OA
ATOM     39  H   LIG A   1      -8.886   6.861 126.819  0.00  0.00    +0.210 HD
ENDBRANCH  37  38
BRANCH  36  40
ATOM     40  O   LIG A   1     -12.527   6.675 126.170  0.00  0.00    -0.386 OA
ATOM     41  H   LIG A   1     -13.074   5.970 126.572  0.00  0.00    +0.210 HD
ENDBRANCH  36  40
BRANCH  35  42
ATOM     42  O   LIG A   1     -13.783   8.447 128.010  0.00  0.00    -0.387 OA
ATOM     43  H   LIG A   1     -13.814   9.213 128.611  0.00  0.00    +0.210 HD
ENDBRANCH  35  42
BRANCH  34  44
ATOM     44  C   LIG A   1     -12.778   8.384 130.839  0.00  0.00    +0.190 C 
BRANCH  44  45
ATOM     45  O   LIG A   1     -13.151   7.175 131.493  0.00  0.00    -0.392 OA
ATOM     46  H   LIG A   1     -12.543   6.491 131.154  0.00  0.00    +0.209 HD
ENDBRANCH  44  45
ENDBRANCH  34  44
ENDBRANCH  31  32
ENDBRANCH  12  31
TORSDOF 12
ENDMDL
MODEL 7
REMARK VINA RESULT:      -8.8      1.717      2.373
REMARK  Name = NuBBE_1607
REMARK  18 active torsions:
REMARK  status: ('A' for Active; 'I' for Inactive)
REMARK    1  A    between atoms: C_1  and  C_2
REMARK    2  A    between atoms: C_12  and  C_14
REMARK    3  A    between atoms: C_15  and  O_19
REMARK    4  A    between atoms: O_19  and  C_20
REMARK    5  A    between atoms: C_23  and  C_25
REMARK    6  A    between atoms: C_25  and  O_26
REMARK    7  A    between atoms: C_27  and  O_35
REMARK    8  A    between atoms: C_29  and  O_34
REMARK    9  A    between atoms: C_31  and  O_33
REMARK   10  A    between atoms: C_38  and  C_39
REMARK   11  A    between atoms: C_40  and  C_44
REMARK   12  A    between atoms: C_44  and  C_46
REMARK   13  A    between atoms: C_44  and  C_53
REMARK   14  A    between atoms: C_46  and  C_47
REMARK   15  A    between atoms: C_47  and  C_48
REMARK   16  A    between atoms: C_48  and  C_50
REMARK   17  A    between atoms: C_50  and  C_51
REMARK   18  A    between atoms: C_50  and  C_52
REMARK                            x       y       z     vdW  Elec       q    Type
REMARK                         _______ _______ _______ _____ _____    ______ ____
ROOT
ATOM      1  C   LIG A   1      -7.350  -4.118 125.165  0.00  0.00    +0.012 C 
ATOM      2  C   LIG A   1      -7.253  -2.645 124.717  0.00  0.00    -0.023 C 
ATOM      3  C   LIG A   1      -6.759  -1.754 125.919  0.00  0.00    +0.002 C 
ATOM      4  C   LIG A   1      -7.831  -1.637 126.999  0.00  0.00    -0.019 C 
ATOM      5  C   LIG A   1      -7.409  -1.056 128.365  0.00  0.00    -0.020 C 
ATOM      6  C   LIG A   1      -7.853  -2.505 128.237  0.00  0.00    +0.015 C 
ATOM      7  C   LIG A   1      -5.932  -0.820 128.720  0.00  0.00    +0.001 C 
ATOM      8  C   LIG A   1      -4.980  -1.023 127.516  0.00  0.00    +0.005 C 
ATOM      9  C   LIG A   1      -5.398  -2.120 126.533  0.00  0.00    +0.005 C 
ATOM     10  C   LIG A   1      -5.708   0.591 129.375  0.00  0.00    +0.018 C 
ATOM     11  C   LIG A   1      -4.238   0.774 129.799  0.00  0.00    +0.010 C 
ATOM     12  C   LIG A   1      -6.631   0.829 130.610  0.00  0.00    +0.125 C 
ATOM     13  C   LIG A   1      -8.052   0.310 130.399  0.00  0.00    +0.032 C 
ATOM     14  C   LIG A   1      -8.375  -0.074 128.982  0.00  0.00    +0.010 C 
ATOM     15  C   LIG A   1      -9.150  -1.140 126.453  0.00  0.00    +0.008 C 
ATOM     16  C   LIG A   1      -9.635  -1.858 125.213  0.00  0.00    +0.008 C 
ATOM     17  C   LIG A   1      -8.599  -2.071 124.108  0.00  0.00    -0.023 C 
ATOM     18  C   LIG A   1      -9.279  -3.086 123.125  0.00  0.00    +0.012 C 
ATOM     19  C   LIG A   1      -8.156  -0.843 123.197  0.00  0.00    -0.002 C 
ATOM     20  C   LIG A   1      -6.700  -1.231 122.792  0.00  0.00    +0.005 C 
ATOM     21  C   LIG A   1      -6.323  -2.536 123.496  0.00  0.00    +0.008 C 
ENDROOT
BRANCH  19  22
ATOM     22  C   LIG A   1      -8.226   0.669 123.628  0.00  0.00    -0.010 C 
ATOM     23  C   LIG A   1      -9.521   1.422 123.295  0.00  0.00    +0.008 C 
BRANCH  22  24
ATOM     24  C   LIG A   1      -7.052   1.525 123.027  0.00  0.00    +0.008 C 
BRANCH  24  25
ATOM     25  C   LIG A   1      -7.308   3.044 122.952  0.00  0.00    +0.030 C 
BRANCH  25  26
ATOM     26  C   LIG A   1      -6.023   3.846 122.871  0.00  0.00    -0.074 C 
ATOM     27  C   LIG A   1      -5.550   4.455 123.990  0.00  0.00    +0.008 C 
BRANCH  26  28
ATOM     28  C   LIG A   1      -5.336   3.922 121.513  0.00  0.00    +0.008 C 
ATOM     29  C   LIG A   1      -6.305   4.032 120.330  0.00  0.00    +0.012 C 
ATOM     30  C   LIG A   1      -4.316   5.067 121.446  0.00  0.00    +0.012 C 
ENDBRANCH  26  28
ENDBRANCH  25  26
ENDBRANCH  24  25
ENDBRANCH  22  24
ENDBRANCH  19  22
BRANCH  12  31
ATOM     31  O   LIG A   1      -6.622   2.232 130.971  0.00  0.00    -0.345 OA
BRANCH  31  32
ATOM     32  C   LIG A   1      -7.866   2.801 131.441  0.00  0.00    +0.282 C 
ATOM     33  O   LIG A   1      -8.135   3.987 130.661  0.00  0.00    -0.341 OA
ATOM     34  C   LIG A   1      -9.405   4.589 130.981  0.00  0.00    +0.178 C 
ATOM     35  C   LIG A   1      -9.367   5.113 132.422  0.00  0.00    +0.177 C 
ATOM     36  C   LIG A   1      -9.092   3.940 133.357  0.00  0.00    +0.179 C 
ATOM     37  C   LIG A   1      -7.859   3.134 132.955  0.00  0.00    +0.201 C 
BRANCH  37  38
ATOM     38  O   LIG A   1      -7.887   1.952 133.776  0.00  0.00    -0.384 OA
ATOM     39  H   LIG A   1      -7.333   2.170 134.553  0.00  0.00    +0.210 HD
ENDBRANCH  37  38
BRANCH  36  40
ATOM     40  O   LIG A   1      -8.923   4.394 134.711  0.00  0.00    -0.386 OA
ATOM     41  H   LIG A   1      -8.543   5.293 134.655  0.00  0.00    +0.210 HD
ENDBRANCH  36  40
BRANCH  35  42
ATOM     42  O   LIG A   1     -10.597   5.726 132.831  0.00  0.00    -0.387 OA
ATOM     43  H   LIG A   1     -11.316   5.427 132.247  0.00  0.00    +0.210 HD
ENDBRANCH  35  42
BRANCH  34  44
ATOM     44  C   LIG A   1      -9.686   5.708 129.970  0.00  0.00    +0.190 C 
BRANCH  44  45
ATOM     45  O   LIG A   1     -11.074   6.027 129.932  0.00  0.00    -0.392 OA
ATOM     46  H   LIG A   1     -11.228   6.444 129.063  0.00  0.00    +0.209 HD
ENDBRANCH  44  45
ENDBRANCH  34  44
ENDBRANCH  31  32
ENDBRANCH  12  31
TORSDOF 12
ENDMDL
MODEL 8
REMARK VINA RESULT:      -8.8      3.932      9.093
REMARK  Name = NuBBE_1607
REMARK  18 active torsions:
REMARK  status: ('A' for Active; 'I' for Inactive)
REMARK    1  A    between atoms: C_1  and  C_2
REMARK    2  A    between atoms: C_12  and  C_14
REMARK    3  A    between atoms: C_15  and  O_19
REMARK    4  A    between atoms: O_19  and  C_20
REMARK    5  A    between atoms: C_23  and  C_25
REMARK    6  A    between atoms: C_25  and  O_26
REMARK    7  A    between atoms: C_27  and  O_35
REMARK    8  A    between atoms: C_29  and  O_34
REMARK    9  A    between atoms: C_31  and  O_33
REMARK   10  A    between atoms: C_38  and  C_39
REMARK   11  A    between atoms: C_40  and  C_44
REMARK   12  A    between atoms: C_44  and  C_46
REMARK   13  A    between atoms: C_44  and  C_53
REMARK   14  A    between atoms: C_46  and  C_47
REMARK   15  A    between atoms: C_47  and  C_48
REMARK   16  A    between atoms: C_48  and  C_50
REMARK   17  A    between atoms: C_50  and  C_51
REMARK   18  A    between atoms: C_50  and  C_52
REMARK                            x       y       z     vdW  Elec       q    Type
REMARK                         _______ _______ _______ _____ _____    ______ ____
ROOT
ATOM      1  C   LIG A   1      -2.244   4.996 131.637  0.00  0.00    +0.012 C 
ATOM      2  C   LIG A   1      -3.761   4.961 131.913  0.00  0.00    -0.023 C 
ATOM      3  C   LIG A   1      -4.386   3.655 131.291  0.00  0.00    +0.002 C 
ATOM      4  C   LIG A   1      -4.393   3.716 129.767  0.00  0.00    -0.019 C 
ATOM      5  C   LIG A   1      -4.689   2.409 129.001  0.00  0.00    -0.020 C 
ATOM      6  C   LIG A   1      -3.323   3.072 128.911  0.00  0.00    +0.015 C 
ATOM      7  C   LIG A   1      -4.747   1.050 129.715  0.00  0.00    +0.001 C 
ATOM      8  C   LIG A   1      -4.688   1.174 131.258  0.00  0.00    +0.005 C 
ATOM      9  C   LIG A   1      -3.816   2.317 131.786  0.00  0.00    +0.005 C 
ATOM     10  C   LIG A   1      -5.999   0.210 129.272  0.00  0.00    +0.018 C 
ATOM     11  C   LIG A   1      -5.993  -1.181 129.936  0.00  0.00    +0.010 C 
ATOM     12  C   LIG A   1      -6.085   0.038 127.724  0.00  0.00    +0.125 C 
ATOM     13  C   LIG A   1      -5.720   1.312 126.964  0.00  0.00    +0.032 C 
ATOM     14  C   LIG A   1      -5.618   2.544 127.818  0.00  0.00    +0.010 C 
ATOM     15  C   LIG A   1      -5.076   4.956 129.240  0.00  0.00    +0.008 C 
ATOM     16  C   LIG A   1      -4.627   6.251 129.881  0.00  0.00    +0.008 C 
ATOM     17  C   LIG A   1      -4.534   6.250 131.408  0.00  0.00    -0.023 C 
ATOM     18  C   LIG A   1      -3.762   7.570 131.754  0.00  0.00    +0.012 C 
ATOM     19  C   LIG A   1      -5.866   6.307 132.278  0.00  0.00    -0.002 C 
ATOM     20  C   LIG A   1      -5.446   5.569 133.587  0.00  0.00    +0.005 C 
ATOM     21  C   LIG A   1      -4.013   5.058 133.428  0.00  0.00    +0.008 C 
ENDROOT
BRANCH  19  22
ATOM     22  C   LIG A   1      -7.280   5.812 131.793  0.00  0.00    -0.010 C 
ATOM     23  C   LIG A   1      -8.101   6.794 130.946  0.00  0.00    +0.008 C 
BRANCH  22  24
ATOM     24  C   LIG A   1      -8.209   5.373 132.983  0.00  0.00    +0.008 C 
BRANCH  24  25
ATOM     25  C   LIG A   1      -8.988   4.059 132.768  0.00  0.00    +0.030 C 
BRANCH  25  26
ATOM     26  C   LIG A   1      -8.080   2.844 132.745  0.00  0.00    -0.074 C 
ATOM     27  C   LIG A   1      -7.228   2.633 133.781  0.00  0.00    +0.008 C 
BRANCH  26  28
ATOM     28  C   LIG A   1      -8.182   1.925 131.533  0.00  0.00    +0.008 C 
ATOM     29  C   LIG A   1      -9.213   0.801 131.689  0.00  0.00    +0.012 C 
ATOM     30  C   LIG A   1      -8.467   2.703 130.241  0.00  0.00    +0.012 C 
ENDBRANCH  26  28
ENDBRANCH  25  26
ENDBRANCH  24  25
ENDBRANCH  22  24
ENDBRANCH  19  22
BRANCH  12  31
ATOM     31  O   LIG A   1      -7.398  -0.449 127.352  0.00  0.00    -0.345 OA
BRANCH  31  32
ATOM     32  C   LIG A   1      -7.708  -0.502 125.941  0.00  0.00    +0.282 C 
ATOM     33  O   LIG A   1      -8.764   0.450 125.682  0.00  0.00    -0.341 OA
ATOM     34  C   LIG A   1      -9.092   0.552 124.283  0.00  0.00    +0.178 C 
ATOM     35  C   LIG A   1      -9.688  -0.779 123.805  0.00  0.00    +0.177 C 
ATOM     36  C   LIG A   1      -8.655  -1.879 124.023  0.00  0.00    +0.179 C 
ATOM     37  C   LIG A   1      -8.114  -1.914 125.451  0.00  0.00    +0.201 C 
BRANCH  37  38
ATOM     38  O   LIG A   1      -7.000  -2.826 125.418  0.00  0.00    -0.384 OA
ATOM     39  H   LIG A   1      -7.379  -3.698 125.649  0.00  0.00    +0.210 HD
ENDBRANCH  37  38
BRANCH  36  40
ATOM     40  O   LIG A   1      -9.206  -3.168 123.707  0.00  0.00    -0.386 OA
ATOM     41  H   LIG A   1      -8.867  -3.786 124.385  0.00  0.00    +0.210 HD
ENDBRANCH  36  40
BRANCH  35  42
ATOM     42  O   LIG A   1     -10.041  -0.772 122.416  0.00  0.00    -0.387 OA
ATOM     43  H   LIG A   1     -10.307  -1.668 122.145  0.00  0.00    +0.210 HD
ENDBRANCH  35  42
BRANCH  34  44
ATOM     44  C   LIG A   1     -10.068   1.720 124.091  0.00  0.00    +0.190 C 
BRANCH  44  45
ATOM     45  O   LIG A   1     -11.409   1.255 123.978  0.00  0.00    -0.392 OA
ATOM     46  H   LIG A   1     -11.922   2.006 123.622  0.00  0.00    +0.209 HD
ENDBRANCH  44  45
ENDBRANCH  34  44
ENDBRANCH  31  32
ENDBRANCH  12  31
TORSDOF 12
ENDMDL
MODEL 9
REMARK VINA RESULT:      -8.7      3.771      8.682
REMARK  Name = NuBBE_1607
REMARK  18 active torsions:
REMARK  status: ('A' for Active; 'I' for Inactive)
REMARK    1  A    between atoms: C_1  and  C_2
REMARK    2  A    between atoms: C_12  and  C_14
REMARK    3  A    between atoms: C_15  and  O_19
REMARK    4  A    between atoms: O_19  and  C_20
REMARK    5  A    between atoms: C_23  and  C_25
REMARK    6  A    between atoms: C_25  and  O_26
REMARK    7  A    between atoms: C_27  and  O_35
REMARK    8  A    between atoms: C_29  and  O_34
REMARK    9  A    between atoms: C_31  and  O_33
REMARK   10  A    between atoms: C_38  and  C_39
REMARK   11  A    between atoms: C_40  and  C_44
REMARK   12  A    between atoms: C_44  and  C_46
REMARK   13  A    between atoms: C_44  and  C_53
REMARK   14  A    between atoms: C_46  and  C_47
REMARK   15  A    between atoms: C_47  and  C_48
REMARK   16  A    between atoms: C_48  and  C_50
REMARK   17  A    between atoms: C_50  and  C_51
REMARK   18  A    between atoms: C_50  and  C_52
REMARK                            x       y       z     vdW  Elec       q    Type
REMARK                         _______ _______ _______ _____ _____    ______ ____
ROOT
ATOM      1  C   LIG A   1      -2.487   3.385 133.349  0.00  0.00    +0.012 C 
ATOM      2  C   LIG A   1      -3.371   4.497 132.748  0.00  0.00    -0.023 C 
ATOM      3  C   LIG A   1      -4.672   3.864 132.123  0.00  0.00    +0.002 C 
ATOM      4  C   LIG A   1      -4.350   3.067 130.863  0.00  0.00    -0.019 C 
ATOM      5  C   LIG A   1      -5.451   2.143 130.301  0.00  0.00    -0.020 C 
ATOM      6  C   LIG A   1      -4.161   1.566 130.863  0.00  0.00    +0.015 C 
ATOM      7  C   LIG A   1      -6.736   1.846 131.089  0.00  0.00    +0.001 C 
ATOM      8  C   LIG A   1      -6.880   2.718 132.361  0.00  0.00    +0.005 C 
ATOM      9  C   LIG A   1      -5.567   3.053 133.073  0.00  0.00    +0.005 C 
ATOM     10  C   LIG A   1      -8.016   1.964 130.185  0.00  0.00    +0.018 C 
ATOM     11  C   LIG A   1      -9.284   1.582 130.973  0.00  0.00    +0.010 C 
ATOM     12  C   LIG A   1      -7.924   1.081 128.902  0.00  0.00    +0.125 C 
ATOM     13  C   LIG A   1      -6.539   1.109 128.260  0.00  0.00    +0.032 C 
ATOM     14  C   LIG A   1      -5.618   2.167 128.800  0.00  0.00    +0.010 C 
ATOM     15  C   LIG A   1      -3.591   3.881 129.841  0.00  0.00    +0.008 C 
ATOM     16  C   LIG A   1      -2.396   4.632 130.387  0.00  0.00    +0.008 C 
ATOM     17  C   LIG A   1      -2.623   5.407 131.687  0.00  0.00    -0.023 C 
ATOM     18  C   LIG A   1      -1.184   5.802 132.164  0.00  0.00    +0.012 C 
ATOM     19  C   LIG A   1      -3.441   6.773 131.656  0.00  0.00    -0.002 C 
ATOM     20  C   LIG A   1      -4.065   6.824 133.086  0.00  0.00    +0.005 C 
ATOM     21  C   LIG A   1      -3.699   5.540 133.831  0.00  0.00    +0.008 C 
ENDROOT
BRANCH  19  22
ATOM     22  C   LIG A   1      -4.514   7.156 130.570  0.00  0.00    -0.010 C 
ATOM     23  C   LIG A   1      -4.342   8.518 129.883  0.00  0.00    +0.008 C 
BRANCH  22  24
ATOM     24  C   LIG A   1      -5.982   7.127 131.131  0.00  0.00    +0.008 C 
BRANCH  24  25
ATOM     25  C   LIG A   1      -6.843   5.930 130.680  0.00  0.00    +0.030 C 
BRANCH  25  26
ATOM     26  C   LIG A   1      -8.232   5.952 131.288  0.00  0.00    -0.074 C 
ATOM     27  C   LIG A   1      -8.364   6.030 132.637  0.00  0.00    +0.008 C 
BRANCH  26  28
ATOM     28  C   LIG A   1      -9.412   5.879 130.326  0.00  0.00    +0.008 C 
ATOM     29  C   LIG A   1     -10.050   7.240 130.019  0.00  0.00    +0.012 C 
ATOM     30  C   LIG A   1      -9.041   5.181 129.010  0.00  0.00    +0.012 C 
ENDBRANCH  26  28
ENDBRANCH  25  26
ENDBRANCH  24  25
ENDBRANCH  22  24
ENDBRANCH  19  22
BRANCH  12  31
ATOM     31  O   LIG A   1      -8.957   1.465 127.962  0.00  0.00    -0.345 OA
BRANCH  31  32
ATOM     32  C   LIG A   1      -8.588   1.532 126.565  0.00  0.00    +0.282 C 
ATOM     33  O   LIG A   1      -8.331   2.916 126.240  0.00  0.00    -0.341 OA
ATOM     34  C   LIG A   1      -7.862   3.093 124.889  0.00  0.00    +0.178 C 
ATOM     35  C   LIG A   1      -8.976   2.698 123.910  0.00  0.00    +0.177 C 
ATOM     36  C   LIG A   1      -9.339   1.237 124.153  0.00  0.00    +0.179 C 
ATOM     37  C   LIG A   1      -9.659   0.937 125.616  0.00  0.00    +0.201 C 
BRANCH  37  38
ATOM     38  O   LIG A   1      -9.736  -0.497 125.706  0.00  0.00    -0.384 OA
ATOM     39  H   LIG A   1      -9.843  -0.686 126.661  0.00  0.00    +0.210 HD
ENDBRANCH  37  38
BRANCH  36  40
ATOM     40  O   LIG A   1     -10.464   0.849 123.347  0.00  0.00    -0.386 OA
ATOM     41  H   LIG A   1     -10.149   0.131 122.762  0.00  0.00    +0.210 HD
ENDBRANCH  36  40
BRANCH  35  42
ATOM     42  O   LIG A   1      -8.594   2.837 122.536  0.00  0.00    -0.387 OA
ATOM     43  H   LIG A   1      -8.307   1.973 122.192  0.00  0.00    +0.210 HD
ENDBRANCH  35  42
BRANCH  34  44
ATOM     44  C   LIG A   1      -7.428   4.553 124.707  0.00  0.00    +0.190 C 
BRANCH  44  45
ATOM     45  O   LIG A   1      -8.247   5.431 125.473  0.00  0.00    -0.392 OA
ATOM     46  H   LIG A   1      -7.673   6.179 125.725  0.00  0.00    +0.209 HD
ENDBRANCH  44  45
ENDBRANCH  34  44
ENDBRANCH  31  32
ENDBRANCH  12  31
TORSDOF 12
ENDMDL
