MODEL 1
REMARK VINA RESULT:      -8.4      0.000      0.000
REMARK  Name = NuBBE_1142
REMARK  12 active torsions:
REMARK  status: ('A' for Active; 'I' for Inactive)
REMARK    1  A    between atoms: C_1  and  C_2
REMARK    2  A    between atoms: C_2  and  C_42
REMARK    3  A    between atoms: C_3  and  C_37
REMARK    4  A    between atoms: C_4  and  C_36
REMARK    5  A    between atoms: C_9  and  C_22
REMARK    6  A    between atoms: C_14  and  C_16
REMARK    7  A    between atoms: C_27  and  O_29
REMARK    8  A    between atoms: O_29  and  C_30
REMARK    9  A    between atoms: C_30  and  C_31
REMARK   10  A    between atoms: C_37  and  C_38
REMARK   11  A    between atoms: C_38  and  O_39
REMARK   12  A    between atoms: O_39  and  C_40
REMARK                            x       y       z     vdW  Elec       q    Type
REMARK                         _______ _______ _______ _____ _____    ______ ____
ROOT
ATOM      1  C   LIG A   1      -8.316  -0.315 132.209  0.00  0.00    +0.015 C 
ATOM      2  C   LIG A   1      -6.942  -0.345 131.500  0.00  0.00    +0.007 C 
ATOM      3  C   LIG A   1      -6.750   0.774 130.233  0.00  0.00    +0.022 C 
ATOM      4  C   LIG A   1      -5.519   0.408 129.176  0.00  0.00    +0.034 C 
ATOM      5  C   LIG A   1      -5.532  -0.002 127.607  0.00  0.00    +0.010 C 
ATOM      6  C   LIG A   1      -5.476   1.090 126.544  0.00  0.00    +0.006 C 
ATOM      7  C   LIG A   1      -6.829   1.517 126.049  0.00  0.00    +0.015 C 
ATOM      8  C   LIG A   1      -7.753   0.374 125.557  0.00  0.00    +0.031 C 
ATOM      9  C   LIG A   1      -7.424  -1.040 126.102  0.00  0.00    -0.050 C 
ATOM     10  C   LIG A   1      -7.972  -2.082 125.443  0.00  0.00    +0.092 C 
ATOM     11  C   LIG A   1      -8.828  -1.914 124.249  0.00  0.00    +0.333 C 
ATOM     12  O   LIG A   1      -8.674  -0.762 123.555  0.00  0.00    -0.453 OA
ATOM     13  C   LIG A   1      -7.706   0.226 123.986  0.00  0.00    +0.220 C 
ATOM     14  O   LIG A   1      -9.603  -2.794 123.904  0.00  0.00    -0.246 OA
ATOM     15  C   LIG A   1      -9.190   0.738 126.021  0.00  0.00    +0.020 C 
ATOM     16  C   LIG A   1      -6.294  -1.311 127.105  0.00  0.00    +0.021 C 
ATOM     17  C   LIG A   1      -6.490  -2.466 128.222  0.00  0.00    +0.023 C 
ATOM     18  C   LIG A   1      -6.493  -1.762 129.547  0.00  0.00    +0.098 C 
ATOM     19  C   LIG A   1      -6.783  -1.903 131.011  0.00  0.00    +0.193 C 
ATOM     20  C   LIG A   1      -5.222  -0.981 129.598  0.00  0.00    +0.146 C 
ATOM     21  O   LIG A   1      -4.111  -1.448 129.805  0.00  0.00    -0.296 OA
ATOM     22  C   LIG A   1      -4.329   1.335 129.470  0.00  0.00    +0.019 C 
ATOM     23  C   LIG A   1      -5.928   0.098 132.588  0.00  0.00    +0.015 C 
ENDROOT
BRANCH  13  24
ATOM     24  C   LIG A   1      -7.924   1.495 123.194  0.00  0.00    +0.031 A 
ATOM     25  C   LIG A   1      -9.126   2.059 122.807  0.00  0.00    +0.202 A 
ATOM     26  O   LIG A   1      -8.931   3.208 122.113  0.00  0.00    -0.471 OA
ATOM     27  C   LIG A   1      -7.591   3.382 122.007  0.00  0.00    +0.195 A 
ATOM     28  C   LIG A   1      -6.926   2.359 122.642  0.00  0.00    +0.048 A 
ENDBRANCH  13  24
BRANCH  19  29
ATOM     29  O   LIG A   1      -5.824  -2.577 131.836  0.00  0.00    -0.460 OA
BRANCH  29  30
ATOM     30  C   LIG A   1      -6.127  -3.837 132.237  0.00  0.00    +0.304 C 
ATOM     31  C   LIG A   1      -5.503  -4.847 131.323  0.00  0.00    +0.136 C 
ATOM     32  O   LIG A   1      -6.707  -4.124 133.283  0.00  0.00    -0.251 OA
ENDBRANCH  29  30
ENDBRANCH  19  29
BRANCH   3  33
ATOM     33  C   LIG A   1      -8.082   1.209 129.599  0.00  0.00    +0.125 C 
BRANCH  33  34
ATOM     34  C   LIG A   1      -8.180   2.691 129.295  0.00  0.00    +0.307 C 
ATOM     35  O   LIG A   1      -7.203   3.435 129.163  0.00  0.00    -0.251 OA
BRANCH  34  36
ATOM     36  O   LIG A   1      -9.477   3.085 129.347  0.00  0.00    -0.468 OA
ATOM     37  C   LIG A   1     -10.040   3.191 130.655  0.00  0.00    +0.280 C 
ENDBRANCH  34  36
ENDBRANCH  33  34
ENDBRANCH   3  33
TORSDOF 6
ENDMDL
MODEL 2
REMARK VINA RESULT:      -8.0      3.021      7.430
REMARK  Name = NuBBE_1142
REMARK  12 active torsions:
REMARK  status: ('A' for Active; 'I' for Inactive)
REMARK    1  A    between atoms: C_1  and  C_2
REMARK    2  A    between atoms: C_2  and  C_42
REMARK    3  A    between atoms: C_3  and  C_37
REMARK    4  A    between atoms: C_4  and  C_36
REMARK    5  A    between atoms: C_9  and  C_22
REMARK    6  A    between atoms: C_14  and  C_16
REMARK    7  A    between atoms: C_27  and  O_29
REMARK    8  A    between atoms: O_29  and  C_30
REMARK    9  A    between atoms: C_30  and  C_31
REMARK   10  A    between atoms: C_37  and  C_38
REMARK   11  A    between atoms: C_38  and  O_39
REMARK   12  A    between atoms: O_39  and  C_40
REMARK                            x       y       z     vdW  Elec       q    Type
REMARK                         _______ _______ _______ _____ _____    ______ ____
ROOT
ATOM      1  C   LIG A   1      -7.018   6.447 131.098  0.00  0.00    +0.015 C 
ATOM      2  C   LIG A   1      -8.172   5.419 131.163  0.00  0.00    +0.007 C 
ATOM      3  C   LIG A   1      -7.764   3.905 131.824  0.00  0.00    +0.022 C 
ATOM      4  C   LIG A   1      -8.820   2.680 131.435  0.00  0.00    +0.034 C 
ATOM      5  C   LIG A   1      -8.632   1.336 130.549  0.00  0.00    +0.010 C 
ATOM      6  C   LIG A   1      -8.145   0.055 131.219  0.00  0.00    +0.006 C 
ATOM      7  C   LIG A   1      -6.658  -0.141 131.132  0.00  0.00    +0.015 C 
ATOM      8  C   LIG A   1      -6.051  -0.048 129.709  0.00  0.00    +0.031 C 
ATOM      9  C   LIG A   1      -6.896   0.729 128.667  0.00  0.00    -0.050 C 
ATOM     10  C   LIG A   1      -6.578   0.537 127.369  0.00  0.00    +0.092 C 
ATOM     11  C   LIG A   1      -5.498  -0.376 126.936  0.00  0.00    +0.333 C 
ATOM     12  O   LIG A   1      -5.155  -1.358 127.804  0.00  0.00    -0.453 OA
ATOM     13  C   LIG A   1      -5.839  -1.478 129.076  0.00  0.00    +0.220 C 
ATOM     14  O   LIG A   1      -4.979  -0.257 125.836  0.00  0.00    -0.246 OA
ATOM     15  C   LIG A   1      -4.690   0.685 129.856  0.00  0.00    +0.020 C 
ATOM     16  C   LIG A   1      -8.226   1.417 129.007  0.00  0.00    +0.021 C 
ATOM     17  C   LIG A   1      -8.612   2.802 128.265  0.00  0.00    +0.023 C 
ATOM     18  C   LIG A   1      -8.648   3.849 129.338  0.00  0.00    +0.098 C 
ATOM     19  C   LIG A   1      -8.703   5.321 129.614  0.00  0.00    +0.193 C 
ATOM     20  C   LIG A   1      -9.604   3.346 130.368  0.00  0.00    +0.146 C 
ATOM     21  O   LIG A   1     -10.823   3.351 130.268  0.00  0.00    -0.296 OA
ATOM     22  C   LIG A   1      -9.702   2.387 132.659  0.00  0.00    +0.019 C 
ATOM     23  C   LIG A   1      -9.191   6.033 132.160  0.00  0.00    +0.015 C 
ENDROOT
BRANCH  13  24
ATOM     24  C   LIG A   1      -5.094  -2.478 129.932  0.00  0.00    +0.031 A 
ATOM     25  C   LIG A   1      -3.726  -2.612 130.086  0.00  0.00    +0.202 A 
ATOM     26  O   LIG A   1      -3.423  -3.617 130.945  0.00  0.00    -0.471 OA
ATOM     27  C   LIG A   1      -4.597  -4.175 131.329  0.00  0.00    +0.195 A 
ATOM     28  C   LIG A   1      -5.651  -3.524 130.732  0.00  0.00    +0.048 A 
ENDBRANCH  13  24
BRANCH  19  29
ATOM     29  O   LIG A   1      -9.963   5.995 129.489  0.00  0.00    -0.460 OA
BRANCH  29  30
ATOM     30  C   LIG A   1     -10.151   6.757 128.382  0.00  0.00    +0.304 C 
ATOM     31  C   LIG A   1     -10.640   8.122 128.758  0.00  0.00    +0.136 C 
ATOM     32  O   LIG A   1      -9.828   6.434 127.240  0.00  0.00    -0.251 OA
ENDBRANCH  29  30
ENDBRANCH  19  29
BRANCH   3  33
ATOM     33  C   LIG A   1      -6.267   3.573 131.706  0.00  0.00    +0.125 C 
BRANCH  33  34
ATOM     34  C   LIG A   1      -5.661   2.946 132.946  0.00  0.00    +0.307 C 
ATOM     35  O   LIG A   1      -6.323   2.443 133.859  0.00  0.00    -0.251 OA
BRANCH  34  36
ATOM     36  O   LIG A   1      -4.322   3.163 132.962  0.00  0.00    -0.468 OA
ATOM     37  C   LIG A   1      -3.807   3.936 131.878  0.00  0.00    +0.280 C 
ENDBRANCH  34  36
ENDBRANCH  33  34
ENDBRANCH   3  33
TORSDOF 6
ENDMDL
MODEL 3
REMARK VINA RESULT:      -7.8      2.664      5.011
REMARK  Name = NuBBE_1142
REMARK  12 active torsions:
REMARK  status: ('A' for Active; 'I' for Inactive)
REMARK    1  A    between atoms: C_1  and  C_2
REMARK    2  A    between atoms: C_2  and  C_42
REMARK    3  A    between atoms: C_3  and  C_37
REMARK    4  A    between atoms: C_4  and  C_36
REMARK    5  A    between atoms: C_9  and  C_22
REMARK    6  A    between atoms: C_14  and  C_16
REMARK    7  A    between atoms: C_27  and  O_29
REMARK    8  A    between atoms: O_29  and  C_30
REMARK    9  A    between atoms: C_30  and  C_31
REMARK   10  A    between atoms: C_37  and  C_38
REMARK   11  A    between atoms: C_38  and  O_39
REMARK   12  A    between atoms: O_39  and  C_40
REMARK                            x       y       z     vdW  Elec       q    Type
REMARK                         _______ _______ _______ _____ _____    ______ ____
ROOT
ATOM      1  C   LIG A   1      -5.387   5.564 129.862  0.00  0.00    +0.015 C 
ATOM      2  C   LIG A   1      -5.546   4.152 130.471  0.00  0.00    +0.007 C 
ATOM      3  C   LIG A   1      -4.898   2.880 129.545  0.00  0.00    +0.022 C 
ATOM      4  C   LIG A   1      -5.499   1.377 129.928  0.00  0.00    +0.034 C 
ATOM      5  C   LIG A   1      -6.404   0.331 129.082  0.00  0.00    +0.010 C 
ATOM      6  C   LIG A   1      -5.723  -0.697 128.185  0.00  0.00    +0.006 C 
ATOM      7  C   LIG A   1      -5.588  -0.252 126.756  0.00  0.00    +0.015 C 
ATOM      8  C   LIG A   1      -6.895   0.230 126.077  0.00  0.00    +0.031 C 
ATOM      9  C   LIG A   1      -8.020   0.695 127.038  0.00  0.00    -0.050 C 
ATOM     10  C   LIG A   1      -9.260   0.788 126.514  0.00  0.00    +0.092 C 
ATOM     11  C   LIG A   1      -9.562   0.452 125.105  0.00  0.00    +0.333 C 
ATOM     12  O   LIG A   1      -8.695  -0.385 124.487  0.00  0.00    -0.453 OA
ATOM     13  C   LIG A   1      -7.550  -0.910 125.205  0.00  0.00    +0.220 C 
ATOM     14  O   LIG A   1     -10.562   0.890 124.556  0.00  0.00    -0.246 OA
ATOM     15  C   LIG A   1      -6.507   1.440 125.183  0.00  0.00    +0.020 C 
ATOM     16  C   LIG A   1      -7.859   0.733 128.565  0.00  0.00    +0.021 C 
ATOM     17  C   LIG A   1      -8.591   1.905 129.407  0.00  0.00    +0.023 C 
ATOM     18  C   LIG A   1      -7.491   2.726 130.013  0.00  0.00    +0.098 C 
ATOM     19  C   LIG A   1      -7.162   4.006 130.719  0.00  0.00    +0.193 C 
ATOM     20  C   LIG A   1      -6.644   1.768 130.784  0.00  0.00    +0.146 C 
ATOM     21  O   LIG A   1      -6.931   1.281 131.868  0.00  0.00    -0.296 OA
ATOM     22  C   LIG A   1      -4.440   0.620 130.745  0.00  0.00    +0.019 C 
ATOM     23  C   LIG A   1      -4.693   4.183 131.767  0.00  0.00    +0.015 C 
ENDROOT
BRANCH  13  24
ATOM     24  C   LIG A   1      -6.635  -1.597 124.217  0.00  0.00    +0.031 A 
ATOM     25  C   LIG A   1      -6.568  -1.410 122.848  0.00  0.00    +0.202 A 
ATOM     26  O   LIG A   1      -5.616  -2.198 122.289  0.00  0.00    -0.471 OA
ATOM     27  C   LIG A   1      -5.078  -2.937 123.289  0.00  0.00    +0.195 A 
ATOM     28  C   LIG A   1      -5.670  -2.618 124.489  0.00  0.00    +0.048 A 
ENDBRANCH  13  24
BRANCH  19  29
ATOM     29  O   LIG A   1      -7.451   4.110 132.119  0.00  0.00    -0.460 OA
BRANCH  29  30
ATOM     30  C   LIG A   1      -8.744   4.317 132.472  0.00  0.00    +0.304 C 
ATOM     31  C   LIG A   1      -9.105   3.490 133.667  0.00  0.00    +0.136 C 
ATOM     32  O   LIG A   1      -9.482   5.170 131.979  0.00  0.00    -0.251 OA
ENDBRANCH  29  30
ENDBRANCH  19  29
BRANCH   3  33
ATOM     33  C   LIG A   1      -4.798   3.210 128.046  0.00  0.00    +0.125 C 
BRANCH  33  34
ATOM     34  C   LIG A   1      -3.384   3.244 127.501  0.00  0.00    +0.307 C 
ATOM     35  O   LIG A   1      -2.999   2.573 126.537  0.00  0.00    -0.251 OA
BRANCH  34  36
ATOM     36  O   LIG A   1      -2.596   3.987 128.316  0.00  0.00    -0.468 OA
ATOM     37  C   LIG A   1      -2.460   5.364 127.960  0.00  0.00    +0.280 C 
ENDBRANCH  34  36
ENDBRANCH  33  34
ENDBRANCH   3  33
TORSDOF 6
ENDMDL
MODEL 4
REMARK VINA RESULT:      -7.7      2.402      4.554
REMARK  Name = NuBBE_1142
REMARK  12 active torsions:
REMARK  status: ('A' for Active; 'I' for Inactive)
REMARK    1  A    between atoms: C_1  and  C_2
REMARK    2  A    between atoms: C_2  and  C_42
REMARK    3  A    between atoms: C_3  and  C_37
REMARK    4  A    between atoms: C_4  and  C_36
REMARK    5  A    between atoms: C_9  and  C_22
REMARK    6  A    between atoms: C_14  and  C_16
REMARK    7  A    between atoms: C_27  and  O_29
REMARK    8  A    between atoms: O_29  and  C_30
REMARK    9  A    between atoms: C_30  and  C_31
REMARK   10  A    between atoms: C_37  and  C_38
REMARK   11  A    between atoms: C_38  and  O_39
REMARK   12  A    between atoms: O_39  and  C_40
REMARK                            x       y       z     vdW  Elec       q    Type
REMARK                         _______ _______ _______ _____ _____    ______ ____
ROOT
ATOM      1  C   LIG A   1      -4.214  -3.897 130.217  0.00  0.00    +0.015 C 
ATOM      2  C   LIG A   1      -5.112  -2.795 130.826  0.00  0.00    +0.007 C 
ATOM      3  C   LIG A   1      -6.238  -2.098 129.757  0.00  0.00    +0.022 C 
ATOM      4  C   LIG A   1      -6.821  -0.618 130.245  0.00  0.00    +0.034 C 
ATOM      5  C   LIG A   1      -6.659   0.866 129.614  0.00  0.00    +0.010 C 
ATOM      6  C   LIG A   1      -7.658   1.352 128.569  0.00  0.00    +0.006 C 
ATOM      7  C   LIG A   1      -7.210   1.119 127.154  0.00  0.00    +0.015 C 
ATOM      8  C   LIG A   1      -5.801   1.657 126.799  0.00  0.00    +0.031 C 
ATOM      9  C   LIG A   1      -4.842   1.874 127.999  0.00  0.00    -0.050 C 
ATOM     10  C   LIG A   1      -3.760   2.648 127.773  0.00  0.00    +0.092 C 
ATOM     11  C   LIG A   1      -3.490   3.285 126.466  0.00  0.00    +0.333 C 
ATOM     12  O   LIG A   1      -4.558   3.471 125.654  0.00  0.00    -0.453 OA
ATOM     13  C   LIG A   1      -5.880   3.061 126.083  0.00  0.00    +0.220 C 
ATOM     14  O   LIG A   1      -2.362   3.648 126.166  0.00  0.00    -0.246 OA
ATOM     15  C   LIG A   1      -5.151   0.606 125.858  0.00  0.00    +0.020 C 
ATOM     16  C   LIG A   1      -5.220   1.537 129.448  0.00  0.00    +0.021 C 
ATOM     17  C   LIG A   1      -4.080   0.980 130.453  0.00  0.00    +0.023 C 
ATOM     18  C   LIG A   1      -4.488  -0.421 130.803  0.00  0.00    +0.098 C 
ATOM     19  C   LIG A   1      -4.045  -1.706 131.434  0.00  0.00    +0.193 C 
ATOM     20  C   LIG A   1      -5.875  -0.319 131.345  0.00  0.00    +0.146 C 
ATOM     21  O   LIG A   1      -6.173   0.088 132.460  0.00  0.00    -0.296 OA
ATOM     22  C   LIG A   1      -8.247  -0.809 130.787  0.00  0.00    +0.019 C 
ATOM     23  C   LIG A   1      -5.968  -3.527 131.893  0.00  0.00    +0.015 C 
ENDROOT
BRANCH  13  24
ATOM     24  C   LIG A   1      -6.820   3.151 124.902  0.00  0.00    +0.031 A 
ATOM     25  C   LIG A   1      -8.185   3.371 124.918  0.00  0.00    +0.202 A 
ATOM     26  O   LIG A   1      -8.695   3.398 123.662  0.00  0.00    -0.471 OA
ATOM     27  C   LIG A   1      -7.667   3.155 122.813  0.00  0.00    +0.195 A 
ATOM     28  C   LIG A   1      -6.497   2.987 123.518  0.00  0.00    +0.048 A 
ENDBRANCH  13  24
BRANCH  19  29
ATOM     29  O   LIG A   1      -4.022  -1.795 132.865  0.00  0.00    -0.460 OA
BRANCH  29  30
ATOM     30  C   LIG A   1      -2.856  -2.176 133.444  0.00  0.00    +0.304 C 
ATOM     31  C   LIG A   1      -2.137  -0.992 134.013  0.00  0.00    +0.136 C 
ATOM     32  O   LIG A   1      -2.500  -3.341 133.614  0.00  0.00    -0.251 OA
ENDBRANCH  29  30
ENDBRANCH  19  29
BRANCH   3  33
ATOM     33  C   LIG A   1      -5.824  -2.210 128.280  0.00  0.00    +0.125 C 
BRANCH  33  34
ATOM     34  C   LIG A   1      -6.948  -2.597 127.339  0.00  0.00    +0.307 C 
ATOM     35  O   LIG A   1      -6.950  -2.351 126.128  0.00  0.00    -0.251 OA
BRANCH  34  36
ATOM     36  O   LIG A   1      -7.988  -3.101 128.048  0.00  0.00    -0.468 OA
ATOM     37  C   LIG A   1      -9.015  -3.729 127.280  0.00  0.00    +0.280 C 
ENDBRANCH  34  36
ENDBRANCH  33  34
ENDBRANCH   3  33
TORSDOF 6
ENDMDL
MODEL 5
REMARK VINA RESULT:      -7.4      2.781      6.430
REMARK  Name = NuBBE_1142
REMARK  12 active torsions:
REMARK  status: ('A' for Active; 'I' for Inactive)
REMARK    1  A    between atoms: C_1  and  C_2
REMARK    2  A    between atoms: C_2  and  C_42
REMARK    3  A    between atoms: C_3  and  C_37
REMARK    4  A    between atoms: C_4  and  C_36
REMARK    5  A    between atoms: C_9  and  C_22
REMARK    6  A    between atoms: C_14  and  C_16
REMARK    7  A    between atoms: C_27  and  O_29
REMARK    8  A    between atoms: O_29  and  C_30
REMARK    9  A    between atoms: C_30  and  C_31
REMARK   10  A    between atoms: C_37  and  C_38
REMARK   11  A    between atoms: C_38  and  O_39
REMARK   12  A    between atoms: O_39  and  C_40
REMARK                            x       y       z     vdW  Elec       q    Type
REMARK                         _______ _______ _______ _____ _____    ______ ____
ROOT
ATOM      1  C   LIG A   1      -4.912  -0.973 129.158  0.00  0.00    +0.015 C 
ATOM      2  C   LIG A   1      -5.843  -0.832 130.384  0.00  0.00    +0.007 C 
ATOM      3  C   LIG A   1      -7.353  -0.112 130.075  0.00  0.00    +0.022 C 
ATOM      4  C   LIG A   1      -8.116   0.488 131.426  0.00  0.00    +0.034 C 
ATOM      5  C   LIG A   1      -8.495   2.002 131.867  0.00  0.00    +0.010 C 
ATOM      6  C   LIG A   1      -9.831   2.598 131.435  0.00  0.00    +0.006 C 
ATOM      7  C   LIG A   1      -9.750   3.397 130.165  0.00  0.00    +0.015 C 
ATOM      8  C   LIG A   1      -8.665   4.504 130.138  0.00  0.00    +0.031 C 
ATOM      9  C   LIG A   1      -7.493   4.322 131.137  0.00  0.00    -0.050 C 
ATOM     10  C   LIG A   1      -6.734   5.412 131.380  0.00  0.00    +0.092 C 
ATOM     11  C   LIG A   1      -6.997   6.727 130.756  0.00  0.00    +0.333 C 
ATOM     12  O   LIG A   1      -8.260   6.944 130.318  0.00  0.00    -0.453 OA
ATOM     13  C   LIG A   1      -9.274   5.920 130.478  0.00  0.00    +0.220 C 
ATOM     14  O   LIG A   1      -6.118   7.571 130.680  0.00  0.00    -0.246 OA
ATOM     15  C   LIG A   1      -8.070   4.503 128.704  0.00  0.00    +0.020 C 
ATOM     16  C   LIG A   1      -7.363   3.108 132.068  0.00  0.00    +0.021 C 
ATOM     17  C   LIG A   1      -5.891   2.533 132.415  0.00  0.00    +0.023 C 
ATOM     18  C   LIG A   1      -5.838   1.154 131.827  0.00  0.00    +0.098 C 
ATOM     19  C   LIG A   1      -4.943   0.005 131.471  0.00  0.00    +0.193 C 
ATOM     20  C   LIG A   1      -7.003   0.419 132.402  0.00  0.00    +0.146 C 
ATOM     21  O   LIG A   1      -7.069  -0.026 133.539  0.00  0.00    -0.296 OA
ATOM     22  C   LIG A   1      -9.247  -0.476 131.819  0.00  0.00    +0.019 C 
ATOM     23  C   LIG A   1      -6.168  -2.291 130.802  0.00  0.00    +0.015 C 
ENDROOT
BRANCH  13  24
ATOM     24  C   LIG A   1     -10.497   6.324 129.686  0.00  0.00    +0.031 A 
ATOM     25  C   LIG A   1     -10.545   7.038 128.502  0.00  0.00    +0.202 A 
ATOM     26  O   LIG A   1     -11.822   7.204 128.079  0.00  0.00    -0.471 OA
ATOM     27  C   LIG A   1     -12.624   6.630 129.008  0.00  0.00    +0.195 A 
ATOM     28  C   LIG A   1     -11.867   6.084 130.019  0.00  0.00    +0.048 A 
ENDBRANCH  13  24
BRANCH  19  29
ATOM     29  O   LIG A   1      -4.504  -0.871 132.518  0.00  0.00    -0.460 OA
BRANCH  29  30
ATOM     30  C   LIG A   1      -3.172  -1.112 132.607  0.00  0.00    +0.304 C 
ATOM     31  C   LIG A   1      -2.550  -0.256 133.666  0.00  0.00    +0.136 C 
ATOM     32  O   LIG A   1      -2.577  -2.009 132.012  0.00  0.00    -0.251 OA
ENDBRANCH  29  30
ENDBRANCH  19  29
BRANCH   3  33
ATOM     33  C   LIG A   1      -7.350   0.799 128.837  0.00  0.00    +0.125 C 
BRANCH  33  34
ATOM     34  C   LIG A   1      -8.048   0.216 127.624  0.00  0.00    +0.307 C 
ATOM     35  O   LIG A   1      -7.923  -0.956 127.253  0.00  0.00    -0.251 OA
BRANCH  34  36
ATOM     36  O   LIG A   1      -8.685   1.200 126.943  0.00  0.00    -0.468 OA
ATOM     37  C   LIG A   1      -9.493   0.772 125.846  0.00  0.00    +0.280 C 
ENDBRANCH  34  36
ENDBRANCH  33  34
ENDBRANCH   3  33
TORSDOF 6
ENDMDL
MODEL 6
REMARK VINA RESULT:      -7.4      3.054      6.319
REMARK  Name = NuBBE_1142
REMARK  12 active torsions:
REMARK  status: ('A' for Active; 'I' for Inactive)
REMARK    1  A    between atoms: C_1  and  C_2
REMARK    2  A    between atoms: C_2  and  C_42
REMARK    3  A    between atoms: C_3  and  C_37
REMARK    4  A    between atoms: C_4  and  C_36
REMARK    5  A    between atoms: C_9  and  C_22
REMARK    6  A    between atoms: C_14  and  C_16
REMARK    7  A    between atoms: C_27  and  O_29
REMARK    8  A    between atoms: O_29  and  C_30
REMARK    9  A    between atoms: C_30  and  C_31
REMARK   10  A    between atoms: C_37  and  C_38
REMARK   11  A    between atoms: C_38  and  O_39
REMARK   12  A    between atoms: O_39  and  C_40
REMARK                            x       y       z     vdW  Elec       q    Type
REMARK                         _______ _______ _______ _____ _____    ______ ____
ROOT
ATOM      1  C   LIG A   1      -6.955   5.678 132.559  0.00  0.00    +0.015 C 
ATOM      2  C   LIG A   1      -5.921   5.355 131.456  0.00  0.00    +0.007 C 
ATOM      3  C   LIG A   1      -6.483   4.355 130.199  0.00  0.00    +0.022 C 
ATOM      4  C   LIG A   1      -5.279   3.613 129.323  0.00  0.00    +0.034 C 
ATOM      5  C   LIG A   1      -4.865   2.054 129.164  0.00  0.00    +0.010 C 
ATOM      6  C   LIG A   1      -5.519   1.210 128.075  0.00  0.00    +0.006 C 
ATOM      7  C   LIG A   1      -6.723   0.445 128.549  0.00  0.00    +0.015 C 
ATOM      8  C   LIG A   1      -6.508  -0.429 129.810  0.00  0.00    +0.031 C 
ATOM      9  C   LIG A   1      -5.314  -0.025 130.714  0.00  0.00    -0.050 C 
ATOM     10  C   LIG A   1      -4.896  -0.946 131.607  0.00  0.00    +0.092 C 
ATOM     11  C   LIG A   1      -5.512  -2.285 131.725  0.00  0.00    +0.333 C 
ATOM     12  O   LIG A   1      -6.171  -2.743 130.635  0.00  0.00    -0.453 OA
ATOM     13  C   LIG A   1      -6.240  -1.937 129.432  0.00  0.00    +0.220 C 
ATOM     14  O   LIG A   1      -5.393  -2.942 132.749  0.00  0.00    -0.246 OA
ATOM     15  C   LIG A   1      -7.805  -0.308 130.657  0.00  0.00    +0.020 C 
ATOM     16  C   LIG A   1      -4.418   1.189 130.429  0.00  0.00    +0.021 C 
ATOM     17  C   LIG A   1      -3.821   2.039 131.669  0.00  0.00    +0.023 C 
ATOM     18  C   LIG A   1      -4.436   3.403 131.567  0.00  0.00    +0.098 C 
ATOM     19  C   LIG A   1      -4.657   4.706 132.276  0.00  0.00    +0.193 C 
ATOM     20  C   LIG A   1      -4.115   3.895 130.195  0.00  0.00    +0.146 C 
ATOM     21  O   LIG A   1      -3.026   4.316 129.829  0.00  0.00    -0.296 OA
ATOM     22  C   LIG A   1      -5.138   4.337 127.974  0.00  0.00    +0.019 C 
ATOM     23  C   LIG A   1      -5.623   6.721 130.783  0.00  0.00    +0.015 C 
ENDROOT
BRANCH  13  24
ATOM     24  C   LIG A   1      -7.233  -2.570 128.483  0.00  0.00    +0.031 A 
ATOM     25  C   LIG A   1      -7.254  -2.495 127.102  0.00  0.00    +0.202 A 
ATOM     26  O   LIG A   1      -8.292  -3.199 126.587  0.00  0.00    -0.471 OA
ATOM     27  C   LIG A   1      -8.982  -3.710 127.635  0.00  0.00    +0.195 A 
ATOM     28  C   LIG A   1      -8.384  -3.349 128.820  0.00  0.00    +0.048 A 
ENDBRANCH  13  24
BRANCH  19  29
ATOM     29  O   LIG A   1      -3.577   5.648 132.330  0.00  0.00    -0.460 OA
BRANCH  29  30
ATOM     30  C   LIG A   1      -2.645   5.468 133.300  0.00  0.00    +0.304 C 
ATOM     31  C   LIG A   1      -1.325   5.094 132.701  0.00  0.00    +0.136 C 
ATOM     32  O   LIG A   1      -2.812   5.717 134.493  0.00  0.00    -0.251 OA
ENDBRANCH  29  30
ENDBRANCH  19  29
BRANCH   3  33
ATOM     33  C   LIG A   1      -7.667   3.465 130.613  0.00  0.00    +0.125 C 
BRANCH  33  34
ATOM     34  C   LIG A   1      -8.770   3.363 129.578  0.00  0.00    +0.307 C 
ATOM     35  O   LIG A   1      -8.614   3.603 128.376  0.00  0.00    -0.251 OA
BRANCH  34  36
ATOM     36  O   LIG A   1      -9.955   3.127 130.193  0.00  0.00    -0.468 OA
ATOM     37  C   LIG A   1      -9.872   2.674 131.545  0.00  0.00    +0.280 C 
ENDBRANCH  34  36
ENDBRANCH  33  34
ENDBRANCH   3  33
TORSDOF 6
ENDMDL
MODEL 7
REMARK VINA RESULT:      -7.3      3.171      5.730
REMARK  Name = NuBBE_1142
REMARK  12 active torsions:
REMARK  status: ('A' for Active; 'I' for Inactive)
REMARK    1  A    between atoms: C_1  and  C_2
REMARK    2  A    between atoms: C_2  and  C_42
REMARK    3  A    between atoms: C_3  and  C_37
REMARK    4  A    between atoms: C_4  and  C_36
REMARK    5  A    between atoms: C_9  and  C_22
REMARK    6  A    between atoms: C_14  and  C_16
REMARK    7  A    between atoms: C_27  and  O_29
REMARK    8  A    between atoms: O_29  and  C_30
REMARK    9  A    between atoms: C_30  and  C_31
REMARK   10  A    between atoms: C_37  and  C_38
REMARK   11  A    between atoms: C_38  and  O_39
REMARK   12  A    between atoms: O_39  and  C_40
REMARK                            x       y       z     vdW  Elec       q    Type
REMARK                         _______ _______ _______ _____ _____    ______ ____
ROOT
ATOM      1  C   LIG A   1      -7.319   5.684 131.780  0.00  0.00    +0.015 C 
ATOM      2  C   LIG A   1      -5.963   5.531 131.053  0.00  0.00    +0.007 C 
ATOM      3  C   LIG A   1      -6.041   4.841 129.500  0.00  0.00    +0.022 C 
ATOM      4  C   LIG A   1      -4.597   4.223 128.951  0.00  0.00    +0.034 C 
ATOM      5  C   LIG A   1      -4.130   2.707 128.619  0.00  0.00    +0.010 C 
ATOM      6  C   LIG A   1      -4.355   2.140 127.222  0.00  0.00    +0.006 C 
ATOM      7  C   LIG A   1      -5.636   1.366 127.085  0.00  0.00    +0.015 C 
ATOM      8  C   LIG A   1      -5.856   0.244 128.132  0.00  0.00    +0.031 C 
ATOM      9  C   LIG A   1      -5.053   0.387 129.451  0.00  0.00    -0.050 C 
ATOM     10  C   LIG A   1      -4.954  -0.718 130.219  0.00  0.00    +0.092 C 
ATOM     11  C   LIG A   1      -5.552  -2.016 129.836  0.00  0.00    +0.333 C 
ATOM     12  O   LIG A   1      -5.787  -2.205 128.516  0.00  0.00    -0.453 OA
ATOM     13  C   LIG A   1      -5.450  -1.170 127.560  0.00  0.00    +0.220 C 
ATOM     14  O   LIG A   1      -5.783  -2.872 130.677  0.00  0.00    -0.246 OA
ATOM     15  C   LIG A   1      -7.366   0.267 128.492  0.00  0.00    +0.020 C 
ATOM     16  C   LIG A   1      -4.133   1.579 129.749  0.00  0.00    +0.021 C 
ATOM     17  C   LIG A   1      -4.014   2.125 131.268  0.00  0.00    +0.023 C 
ATOM     18  C   LIG A   1      -4.577   3.515 131.252  0.00  0.00    +0.098 C 
ATOM     19  C   LIG A   1      -5.049   4.657 132.099  0.00  0.00    +0.193 C 
ATOM     20  C   LIG A   1      -3.810   4.255 130.206  0.00  0.00    +0.146 C 
ATOM     21  O   LIG A   1      -2.669   4.677 130.329  0.00  0.00    -0.296 OA
ATOM     22  C   LIG A   1      -4.012   5.195 127.915  0.00  0.00    +0.019 C 
ATOM     23  C   LIG A   1      -5.472   6.986 130.825  0.00  0.00    +0.015 C 
ENDROOT
BRANCH  13  24
ATOM     24  C   LIG A   1      -6.044  -1.538 126.219  0.00  0.00    +0.031 A 
ATOM     25  C   LIG A   1      -7.268  -2.131 125.966  0.00  0.00    +0.202 A 
ATOM     26  O   LIG A   1      -7.467  -2.302 124.636  0.00  0.00    -0.471 OA
ATOM     27  C   LIG A   1      -6.352  -1.856 124.009  0.00  0.00    +0.195 A 
ATOM     28  C   LIG A   1      -5.444  -1.386 124.929  0.00  0.00    +0.048 A 
ENDBRANCH  13  24
BRANCH  19  29
ATOM     29  O   LIG A   1      -4.070   5.505 132.714  0.00  0.00    -0.460 OA
BRANCH  29  30
ATOM     30  C   LIG A   1      -3.817   5.305 134.032  0.00  0.00    +0.304 C 
ATOM     31  C   LIG A   1      -4.362   6.434 134.852  0.00  0.00    +0.136 C 
ATOM     32  O   LIG A   1      -3.339   4.277 134.511  0.00  0.00    -0.251 OA
ENDBRANCH  29  30
ENDBRANCH  19  29
BRANCH   3  33
ATOM     33  C   LIG A   1      -7.281   3.955 129.290  0.00  0.00    +0.125 C 
BRANCH  33  34
ATOM     34  C   LIG A   1      -8.273   4.491 128.276  0.00  0.00    +0.307 C 
ATOM     35  O   LIG A   1      -9.076   5.400 128.510  0.00  0.00    -0.251 OA
BRANCH  34  36
ATOM     36  O   LIG A   1      -8.243   3.727 127.157  0.00  0.00    -0.468 OA
ATOM     37  C   LIG A   1      -7.707   4.356 125.992  0.00  0.00    +0.280 C 
ENDBRANCH  34  36
ENDBRANCH  33  34
ENDBRANCH   3  33
TORSDOF 6
ENDMDL
MODEL 8
REMARK VINA RESULT:      -7.3      2.286      5.536
REMARK  Name = NuBBE_1142
REMARK  12 active torsions:
REMARK  status: ('A' for Active; 'I' for Inactive)
REMARK    1  A    between atoms: C_1  and  C_2
REMARK    2  A    between atoms: C_2  and  C_42
REMARK    3  A    between atoms: C_3  and  C_37
REMARK    4  A    between atoms: C_4  and  C_36
REMARK    5  A    between atoms: C_9  and  C_22
REMARK    6  A    between atoms: C_14  and  C_16
REMARK    7  A    between atoms: C_27  and  O_29
REMARK    8  A    between atoms: O_29  and  C_30
REMARK    9  A    between atoms: C_30  and  C_31
REMARK   10  A    between atoms: C_37  and  C_38
REMARK   11  A    between atoms: C_38  and  O_39
REMARK   12  A    between atoms: O_39  and  C_40
REMARK                            x       y       z     vdW  Elec       q    Type
REMARK                         _______ _______ _______ _____ _____    ______ ____
ROOT
ATOM      1  C   LIG A   1      -3.367   1.462 132.727  0.00  0.00    +0.015 C 
ATOM      2  C   LIG A   1      -4.831   1.006 132.923  0.00  0.00    +0.007 C 
ATOM      3  C   LIG A   1      -5.304  -0.345 132.003  0.00  0.00    +0.022 C 
ATOM      4  C   LIG A   1      -6.950  -0.512 131.827  0.00  0.00    +0.034 C 
ATOM      5  C   LIG A   1      -7.910  -0.418 130.524  0.00  0.00    +0.010 C 
ATOM      6  C   LIG A   1      -8.176  -1.670 129.694  0.00  0.00    +0.006 C 
ATOM      7  C   LIG A   1      -7.247  -1.823 128.522  0.00  0.00    +0.015 C 
ATOM      8  C   LIG A   1      -7.150  -0.597 127.579  0.00  0.00    +0.031 C 
ATOM      9  C   LIG A   1      -7.565   0.763 128.198  0.00  0.00    -0.050 C 
ATOM     10  C   LIG A   1      -7.820   1.766 127.332  0.00  0.00    +0.092 C 
ATOM     11  C   LIG A   1      -7.736   1.599 125.865  0.00  0.00    +0.333 C 
ATOM     12  O   LIG A   1      -7.862   0.335 125.395  0.00  0.00    -0.453 OA
ATOM     13  C   LIG A   1      -8.075  -0.767 126.312  0.00  0.00    +0.220 C 
ATOM     14  O   LIG A   1      -7.594   2.565 125.131  0.00  0.00    -0.246 OA
ATOM     15  C   LIG A   1      -5.661  -0.487 127.150  0.00  0.00    +0.020 C 
ATOM     16  C   LIG A   1      -7.998   0.923 129.662  0.00  0.00    +0.021 C 
ATOM     17  C   LIG A   1      -7.614   2.279 130.457  0.00  0.00    +0.023 C 
ATOM     18  C   LIG A   1      -6.678   1.864 131.553  0.00  0.00    +0.098 C 
ATOM     19  C   LIG A   1      -5.713   2.349 132.592  0.00  0.00    +0.193 C 
ATOM     20  C   LIG A   1      -7.398   0.809 132.327  0.00  0.00    +0.146 C 
ATOM     21  O   LIG A   1      -8.305   1.007 133.123  0.00  0.00    -0.296 OA
ATOM     22  C   LIG A   1      -7.429  -1.639 132.756  0.00  0.00    +0.019 C 
ATOM     23  C   LIG A   1      -4.902   0.533 134.400  0.00  0.00    +0.015 C 
ENDROOT
BRANCH  13  24
ATOM     24  C   LIG A   1      -7.925  -2.064 125.550  0.00  0.00    +0.031 A 
ATOM     25  C   LIG A   1      -6.994  -2.375 124.576  0.00  0.00    +0.202 A 
ATOM     26  O   LIG A   1      -7.160  -3.642 124.123  0.00  0.00    -0.471 OA
ATOM     27  C   LIG A   1      -8.231  -4.158 124.773  0.00  0.00    +0.195 A 
ATOM     28  C   LIG A   1      -8.745  -3.232 125.652  0.00  0.00    +0.048 A 
ENDBRANCH  13  24
BRANCH  19  29
ATOM     29  O   LIG A   1      -6.236   2.900 133.808  0.00  0.00    -0.460 OA
BRANCH  29  30
ATOM     30  C   LIG A   1      -6.741   4.158 133.752  0.00  0.00    +0.304 C 
ATOM     31  C   LIG A   1      -8.003   4.256 134.553  0.00  0.00    +0.136 C 
ATOM     32  O   LIG A   1      -6.175   5.123 133.242  0.00  0.00    -0.251 OA
ENDBRANCH  29  30
ENDBRANCH  19  29
BRANCH   3  33
ATOM     33  C   LIG A   1      -4.463  -0.538 130.730  0.00  0.00    +0.125 C 
BRANCH  33  34
ATOM     34  C   LIG A   1      -3.782  -1.888 130.623  0.00  0.00    +0.307 C 
ATOM     35  O   LIG A   1      -2.574  -2.037 130.406  0.00  0.00    -0.251 OA
BRANCH  34  36
ATOM     36  O   LIG A   1      -4.712  -2.874 130.647  0.00  0.00    -0.468 OA
ATOM     37  C   LIG A   1      -4.435  -3.965 131.527  0.00  0.00    +0.280 C 
ENDBRANCH  34  36
ENDBRANCH  33  34
ENDBRANCH   3  33
TORSDOF 6
ENDMDL
MODEL 9
REMARK VINA RESULT:      -7.3      2.196      5.810
REMARK  Name = NuBBE_1142
REMARK  12 active torsions:
REMARK  status: ('A' for Active; 'I' for Inactive)
REMARK    1  A    between atoms: C_1  and  C_2
REMARK    2  A    between atoms: C_2  and  C_42
REMARK    3  A    between atoms: C_3  and  C_37
REMARK    4  A    between atoms: C_4  and  C_36
REMARK    5  A    between atoms: C_9  and  C_22
REMARK    6  A    between atoms: C_14  and  C_16
REMARK    7  A    between atoms: C_27  and  O_29
REMARK    8  A    between atoms: O_29  and  C_30
REMARK    9  A    between atoms: C_30  and  C_31
REMARK   10  A    between atoms: C_37  and  C_38
REMARK   11  A    between atoms: C_38  and  O_39
REMARK   12  A    between atoms: O_39  and  C_40
REMARK                            x       y       z     vdW  Elec       q    Type
REMARK                         _______ _______ _______ _____ _____    ______ ____
ROOT
ATOM      1  C   LIG A   1      -4.364   3.810 131.552  0.00  0.00    +0.015 C 
ATOM      2  C   LIG A   1      -5.834   3.335 131.477  0.00  0.00    +0.007 C 
ATOM      3  C   LIG A   1      -6.064   1.773 130.844  0.00  0.00    +0.022 C 
ATOM      4  C   LIG A   1      -7.608   1.474 130.302  0.00  0.00    +0.034 C 
ATOM      5  C   LIG A   1      -8.193   1.185 128.817  0.00  0.00    +0.010 C 
ATOM      6  C   LIG A   1      -8.246  -0.247 128.295  0.00  0.00    +0.006 C 
ATOM      7  C   LIG A   1      -7.045  -0.635 127.480  0.00  0.00    +0.015 C 
ATOM      8  C   LIG A   1      -6.691   0.320 126.312  0.00  0.00    +0.031 C 
ATOM      9  C   LIG A   1      -7.238   1.766 126.435  0.00  0.00    -0.050 C 
ATOM     10  C   LIG A   1      -7.246   2.505 125.306  0.00  0.00    +0.092 C 
ATOM     11  C   LIG A   1      -6.783   1.982 124.002  0.00  0.00    +0.333 C 
ATOM     12  O   LIG A   1      -6.796   0.636 123.855  0.00  0.00    -0.453 OA
ATOM     13  C   LIG A   1      -7.253  -0.212 124.937  0.00  0.00    +0.220 C 
ATOM     14  O   LIG A   1      -6.443   2.741 123.107  0.00  0.00    -0.246 OA
ATOM     15  C   LIG A   1      -5.140   0.404 126.265  0.00  0.00    +0.020 C 
ATOM     16  C   LIG A   1      -8.038   2.261 127.648  0.00  0.00    +0.021 C 
ATOM     17  C   LIG A   1      -7.860   3.793 128.141  0.00  0.00    +0.023 C 
ATOM     18  C   LIG A   1      -7.249   3.718 129.508  0.00  0.00    +0.098 C 
ATOM     19  C   LIG A   1      -6.583   4.501 130.600  0.00  0.00    +0.193 C 
ATOM     20  C   LIG A   1      -8.157   2.850 130.315  0.00  0.00    +0.146 C 
ATOM     21  O   LIG A   1      -9.239   3.189 130.775  0.00  0.00    -0.296 OA
ATOM     22  C   LIG A   1      -8.327   0.590 131.333  0.00  0.00    +0.019 C 
ATOM     23  C   LIG A   1      -6.294   3.243 132.957  0.00  0.00    +0.015 C 
ENDROOT
BRANCH  13  24
ATOM     24  C   LIG A   1      -6.924  -1.648 124.597  0.00  0.00    +0.031 A 
ATOM     25  C   LIG A   1      -7.743  -2.757 124.712  0.00  0.00    +0.202 A 
ATOM     26  O   LIG A   1      -7.107  -3.883 124.303  0.00  0.00    -0.471 OA
ATOM     27  C   LIG A   1      -5.850  -3.521 123.952  0.00  0.00    +0.195 A 
ATOM     28  C   LIG A   1      -5.679  -2.167 124.121  0.00  0.00    +0.048 A 
ENDBRANCH  13  24
BRANCH  19  29
ATOM     29  O   LIG A   1      -7.400   5.308 131.459  0.00  0.00    -0.460 OA
BRANCH  29  30
ATOM     30  C   LIG A   1      -7.748   6.539 131.007  0.00  0.00    +0.304 C 
ATOM     31  C   LIG A   1      -9.234   6.721 131.062  0.00  0.00    +0.136 C 
ATOM     32  O   LIG A   1      -6.956   7.438 130.728  0.00  0.00    -0.251 OA
ENDBRANCH  29  30
ENDBRANCH  19  29
BRANCH   3  33
ATOM     33  C   LIG A   1      -4.922   1.316 129.921  0.00  0.00    +0.125 C 
BRANCH  33  34
ATOM     34  C   LIG A   1      -4.307  -0.019 130.294  0.00  0.00    +0.307 C 
ATOM     35  O   LIG A   1      -4.290  -1.003 129.547  0.00  0.00    -0.251 OA
BRANCH  34  36
ATOM     36  O   LIG A   1      -3.932  -0.004 131.596  0.00  0.00    -0.468 OA
ATOM     37  C   LIG A   1      -3.390  -1.226 132.099  0.00  0.00    +0.280 C 
ENDBRANCH  34  36
ENDBRANCH  33  34
ENDBRANCH   3  33
TORSDOF 6
ENDMDL
