MODEL 1
REMARK VINA RESULT:      -7.4      0.000      0.000
REMARK  Name = NuBBE_1281
REMARK  6 active torsions:
REMARK  status: ('A' for Active; 'I' for Inactive)
REMARK    1  A    between atoms: C_8  and  O_9
REMARK    2  A    between atoms: O_9  and  C_10
REMARK    3  A    between atoms: C_10  and  C_11
REMARK    4  A    between atoms: C_11  and  C_12
REMARK    5  A    between atoms: C_12  and  C_13
REMARK    6  A    between atoms: C_12  and  C_14
REMARK                            x       y       z     vdW  Elec       q    Type
REMARK                         _______ _______ _______ _____ _____    ______ ____
ROOT
ATOM      1  O   LIG A   1      -5.736   5.362 118.696  0.00  0.00    -0.245 OA
ATOM      2  C   LIG A   1      -5.881   4.872 119.807  0.00  0.00    +0.337 A 
ATOM      3  O   LIG A   1      -7.052   4.242 120.200  0.00  0.00    -0.422 OA
ATOM      4  C   LIG A   1      -7.216   3.722 121.505  0.00  0.00    +0.146 A 
ATOM      5  C   LIG A   1      -8.451   3.127 121.762  0.00  0.00    +0.094 A 
ATOM      6  C   LIG A   1      -8.616   2.612 123.042  0.00  0.00    +0.142 A 
ATOM      7  C   LIG A   1      -7.655   2.668 124.050  0.00  0.00    +0.063 A 
ATOM      8  C   LIG A   1      -6.421   3.296 123.754  0.00  0.00    +0.153 A 
ATOM      9  C   LIG A   1      -6.194   3.810 122.455  0.00  0.00    +0.061 A 
ATOM     10  C   LIG A   1      -4.932   4.421 122.038  0.00  0.00    +0.022 A 
ATOM     11  C   LIG A   1      -4.796   4.914 120.803  0.00  0.00    +0.093 A 
ATOM     12  C   LIG A   1      -8.250   2.004 125.160  0.00  0.00    +0.053 A 
ATOM     13  C   LIG A   1      -9.509   1.617 124.768  0.00  0.00    +0.196 A 
ATOM     14  O   LIG A   1      -9.736   1.976 123.480  0.00  0.00    -0.463 OA
ENDROOT
BRANCH   8  15
ATOM     15  O   LIG A   1      -5.323   3.345 124.669  0.00  0.00    -0.424 OA
BRANCH  15  16
ATOM     16  C   LIG A   1      -5.344   4.210 125.759  0.00  0.00    +0.313 C 
ATOM     17  O   LIG A   1      -5.957   5.272 125.827  0.00  0.00    -0.250 OA
BRANCH  16  18
ATOM     18  C   LIG A   1      -4.446   3.673 126.854  0.00  0.00    +0.124 C 
BRANCH  18  19
ATOM     19  C   LIG A   1      -2.996   4.173 126.763  0.00  0.00    -0.007 C 
ATOM     20  C   LIG A   1      -2.658   5.019 127.995  0.00  0.00    +0.007 C 
ATOM     21  C   LIG A   1      -1.983   3.033 126.629  0.00  0.00    +0.007 C 
ENDBRANCH  18  19
ENDBRANCH  16  18
ENDBRANCH  15  16
ENDBRANCH   8  15
TORSDOF 4
ENDMDL
MODEL 2
REMARK VINA RESULT:      -7.2      0.617      4.056
REMARK  Name = NuBBE_1281
REMARK  6 active torsions:
REMARK  status: ('A' for Active; 'I' for Inactive)
REMARK    1  A    between atoms: C_8  and  O_9
REMARK    2  A    between atoms: O_9  and  C_10
REMARK    3  A    between atoms: C_10  and  C_11
REMARK    4  A    between atoms: C_11  and  C_12
REMARK    5  A    between atoms: C_12  and  C_13
REMARK    6  A    between atoms: C_12  and  C_14
REMARK                            x       y       z     vdW  Elec       q    Type
REMARK                         _______ _______ _______ _____ _____    ______ ____
ROOT
ATOM      1  O   LIG A   1     -11.169   1.028 124.117  0.00  0.00    -0.245 OA
ATOM      2  C   LIG A   1     -10.077   1.566 124.002  0.00  0.00    +0.337 A 
ATOM      3  O   LIG A   1      -9.655   2.159 122.823  0.00  0.00    -0.422 OA
ATOM      4  C   LIG A   1      -8.370   2.736 122.696  0.00  0.00    +0.146 A 
ATOM      5  C   LIG A   1      -8.079   3.285 121.447  0.00  0.00    +0.094 A 
ATOM      6  C   LIG A   1      -6.818   3.855 121.320  0.00  0.00    +0.142 A 
ATOM      7  C   LIG A   1      -5.860   3.896 122.331  0.00  0.00    +0.063 A 
ATOM      8  C   LIG A   1      -6.188   3.314 123.579  0.00  0.00    +0.153 A 
ATOM      9  C   LIG A   1      -7.471   2.745 123.767  0.00  0.00    +0.061 A 
ATOM     10  C   LIG A   1      -7.923   2.175 125.036  0.00  0.00    +0.022 A 
ATOM     11  C   LIG A   1      -9.137   1.627 125.135  0.00  0.00    +0.093 A 
ATOM     12  C   LIG A   1      -4.754   4.587 121.759  0.00  0.00    +0.053 A 
ATOM     13  C   LIG A   1      -5.099   4.893 120.464  0.00  0.00    +0.196 A 
ATOM     14  O   LIG A   1      -6.355   4.459 120.193  0.00  0.00    -0.463 OA
ENDROOT
BRANCH   8  15
ATOM     15  O   LIG A   1      -5.330   3.364 124.721  0.00  0.00    -0.424 OA
BRANCH  15  16
ATOM     16  C   LIG A   1      -5.411   4.418 125.626  0.00  0.00    +0.313 C 
ATOM     17  O   LIG A   1      -5.962   5.498 125.430  0.00  0.00    -0.250 OA
BRANCH  16  18
ATOM     18  C   LIG A   1      -4.666   4.060 126.895  0.00  0.00    +0.124 C 
BRANCH  18  19
ATOM     19  C   LIG A   1      -3.170   4.403 126.850  0.00  0.00    -0.007 C 
ATOM     20  C   LIG A   1      -2.773   5.178 128.111  0.00  0.00    +0.007 C 
ATOM     21  C   LIG A   1      -2.281   3.164 126.708  0.00  0.00    +0.007 C 
ENDBRANCH  18  19
ENDBRANCH  16  18
ENDBRANCH  15  16
ENDBRANCH   8  15
TORSDOF 4
ENDMDL
MODEL 3
REMARK VINA RESULT:      -7.0      4.955      8.268
REMARK  Name = NuBBE_1281
REMARK  6 active torsions:
REMARK  status: ('A' for Active; 'I' for Inactive)
REMARK    1  A    between atoms: C_8  and  O_9
REMARK    2  A    between atoms: O_9  and  C_10
REMARK    3  A    between atoms: C_10  and  C_11
REMARK    4  A    between atoms: C_11  and  C_12
REMARK    5  A    between atoms: C_12  and  C_13
REMARK    6  A    between atoms: C_12  and  C_14
REMARK                            x       y       z     vdW  Elec       q    Type
REMARK                         _______ _______ _______ _____ _____    ______ ____
ROOT
ATOM      1  O   LIG A   1      -6.883  -2.620 131.030  0.00  0.00    -0.245 OA
ATOM      2  C   LIG A   1      -7.308  -2.368 129.911  0.00  0.00    +0.337 A 
ATOM      3  O   LIG A   1      -7.393  -1.076 129.416  0.00  0.00    -0.422 OA
ATOM      4  C   LIG A   1      -7.930  -0.802 128.137  0.00  0.00    +0.146 A 
ATOM      5  C   LIG A   1      -7.965   0.545 127.777  0.00  0.00    +0.094 A 
ATOM      6  C   LIG A   1      -8.490   0.819 126.519  0.00  0.00    +0.142 A 
ATOM      7  C   LIG A   1      -8.977  -0.143 125.637  0.00  0.00    +0.063 A 
ATOM      8  C   LIG A   1      -8.939  -1.498 126.046  0.00  0.00    +0.153 A 
ATOM      9  C   LIG A   1      -8.388  -1.830 127.306  0.00  0.00    +0.061 A 
ATOM     10  C   LIG A   1      -8.251  -3.204 127.791  0.00  0.00    +0.022 A 
ATOM     11  C   LIG A   1      -7.748  -3.444 129.006  0.00  0.00    +0.093 A 
ATOM     12  C   LIG A   1      -9.381   0.589 124.484  0.00  0.00    +0.053 A 
ATOM     13  C   LIG A   1      -9.138   1.916 124.748  0.00  0.00    +0.196 A 
ATOM     14  O   LIG A   1      -8.589   2.063 125.979  0.00  0.00    -0.463 OA
ENDROOT
BRANCH   8  15
ATOM     15  O   LIG A   1      -9.328  -2.586 125.204  0.00  0.00    -0.424 OA
BRANCH  15  16
ATOM     16  C   LIG A   1      -8.632  -2.859 124.030  0.00  0.00    +0.313 C 
ATOM     17  O   LIG A   1      -9.017  -2.620 122.889  0.00  0.00    -0.250 OA
BRANCH  16  18
ATOM     18  C   LIG A   1      -7.327  -3.555 124.360  0.00  0.00    +0.124 C 
BRANCH  18  19
ATOM     19  C   LIG A   1      -6.088  -2.839 123.803  0.00  0.00    -0.007 C 
ATOM     20  C   LIG A   1      -5.696  -1.680 124.725  0.00  0.00    +0.007 C 
ATOM     21  C   LIG A   1      -4.892  -3.778 123.622  0.00  0.00    +0.007 C 
ENDBRANCH  18  19
ENDBRANCH  16  18
ENDBRANCH  15  16
ENDBRANCH   8  15
TORSDOF 4
ENDMDL
MODEL 4
REMARK VINA RESULT:      -7.0      2.687      4.612
REMARK  Name = NuBBE_1281
REMARK  6 active torsions:
REMARK  status: ('A' for Active; 'I' for Inactive)
REMARK    1  A    between atoms: C_8  and  O_9
REMARK    2  A    between atoms: O_9  and  C_10
REMARK    3  A    between atoms: C_10  and  C_11
REMARK    4  A    between atoms: C_11  and  C_12
REMARK    5  A    between atoms: C_12  and  C_13
REMARK    6  A    between atoms: C_12  and  C_14
REMARK                            x       y       z     vdW  Elec       q    Type
REMARK                         _______ _______ _______ _____ _____    ______ ____
ROOT
ATOM      1  O   LIG A   1      -4.359   5.376 121.571  0.00  0.00    -0.245 OA
ATOM      2  C   LIG A   1      -5.126   4.594 122.114  0.00  0.00    +0.337 A 
ATOM      3  O   LIG A   1      -5.377   4.617 123.477  0.00  0.00    -0.422 OA
ATOM      4  C   LIG A   1      -6.232   3.674 124.094  0.00  0.00    +0.146 A 
ATOM      5  C   LIG A   1      -6.380   3.811 125.474  0.00  0.00    +0.094 A 
ATOM      6  C   LIG A   1      -7.222   2.888 126.083  0.00  0.00    +0.142 A 
ATOM      7  C   LIG A   1      -7.891   1.864 125.417  0.00  0.00    +0.063 A 
ATOM      8  C   LIG A   1      -7.701   1.748 124.018  0.00  0.00    +0.153 A 
ATOM      9  C   LIG A   1      -6.875   2.681 123.348  0.00  0.00    +0.061 A 
ATOM     10  C   LIG A   1      -6.666   2.680 121.900  0.00  0.00    +0.022 A 
ATOM     11  C   LIG A   1      -5.848   3.574 121.335  0.00  0.00    +0.093 A 
ATOM     12  C   LIG A   1      -8.642   1.198 126.428  0.00  0.00    +0.053 A 
ATOM     13  C   LIG A   1      -8.368   1.836 127.614  0.00  0.00    +0.196 A 
ATOM     14  O   LIG A   1      -7.513   2.868 127.412  0.00  0.00    -0.463 OA
ENDROOT
BRANCH   8  15
ATOM     15  O   LIG A   1      -8.393   0.796 123.206  0.00  0.00    -0.424 OA
BRANCH  15  16
ATOM     16  C   LIG A   1      -8.286  -0.567 123.461  0.00  0.00    +0.313 C 
ATOM     17  O   LIG A   1      -9.163  -1.286 123.932  0.00  0.00    -0.250 OA
BRANCH  16  18
ATOM     18  C   LIG A   1      -6.889  -1.042 123.117  0.00  0.00    +0.124 C 
BRANCH  18  19
ATOM     19  C   LIG A   1      -6.244  -1.906 124.211  0.00  0.00    -0.007 C 
ATOM     20  C   LIG A   1      -5.243  -2.882 123.584  0.00  0.00    +0.007 C 
ATOM     21  C   LIG A   1      -5.543  -1.074 125.288  0.00  0.00    +0.007 C 
ENDBRANCH  18  19
ENDBRANCH  16  18
ENDBRANCH  15  16
ENDBRANCH   8  15
TORSDOF 4
ENDMDL
MODEL 5
REMARK VINA RESULT:      -6.9      2.141      4.904
REMARK  Name = NuBBE_1281
REMARK  6 active torsions:
REMARK  status: ('A' for Active; 'I' for Inactive)
REMARK    1  A    between atoms: C_8  and  O_9
REMARK    2  A    between atoms: O_9  and  C_10
REMARK    3  A    between atoms: C_10  and  C_11
REMARK    4  A    between atoms: C_11  and  C_12
REMARK    5  A    between atoms: C_12  and  C_13
REMARK    6  A    between atoms: C_12  and  C_14
REMARK                            x       y       z     vdW  Elec       q    Type
REMARK                         _______ _______ _______ _____ _____    ______ ____
ROOT
ATOM      1  O   LIG A   1      -4.524   5.922 120.457  0.00  0.00    -0.245 OA
ATOM      2  C   LIG A   1      -5.047   5.085 121.180  0.00  0.00    +0.337 A 
ATOM      3  O   LIG A   1      -4.943   5.120 122.562  0.00  0.00    -0.422 OA
ATOM      4  C   LIG A   1      -5.516   4.118 123.378  0.00  0.00    +0.146 A 
ATOM      5  C   LIG A   1      -5.321   4.277 124.750  0.00  0.00    +0.094 A 
ATOM      6  C   LIG A   1      -5.885   3.296 125.556  0.00  0.00    +0.142 A 
ATOM      7  C   LIG A   1      -6.598   2.196 125.085  0.00  0.00    +0.063 A 
ATOM      8  C   LIG A   1      -6.761   2.061 123.684  0.00  0.00    +0.153 A 
ATOM      9  C   LIG A   1      -6.229   3.050 122.823  0.00  0.00    +0.061 A 
ATOM     10  C   LIG A   1      -6.396   3.030 121.370  0.00  0.00    +0.022 A 
ATOM     11  C   LIG A   1      -5.841   3.981 120.613  0.00  0.00    +0.093 A 
ATOM     12  C   LIG A   1      -6.998   1.490 126.255  0.00  0.00    +0.053 A 
ATOM     13  C   LIG A   1      -6.495   2.181 127.331  0.00  0.00    +0.196 A 
ATOM     14  O   LIG A   1      -5.824   3.284 126.915  0.00  0.00    -0.463 OA
ENDROOT
BRANCH   8  15
ATOM     15  O   LIG A   1      -7.541   1.028 123.078  0.00  0.00    -0.424 OA
BRANCH  15  16
ATOM     16  C   LIG A   1      -8.926   1.010 123.214  0.00  0.00    +0.313 C 
ATOM     17  O   LIG A   1      -9.634   1.964 123.522  0.00  0.00    -0.250 OA
BRANCH  16  18
ATOM     18  C   LIG A   1      -9.444  -0.394 122.975  0.00  0.00    +0.124 C 
BRANCH  18  19
ATOM     19  C   LIG A   1      -8.747  -1.463 123.830  0.00  0.00    -0.007 C 
ATOM     20  C   LIG A   1      -9.115  -1.272 125.305  0.00  0.00    +0.007 C 
ATOM     21  C   LIG A   1      -9.093  -2.889 123.395  0.00  0.00    +0.007 C 
ENDBRANCH  18  19
ENDBRANCH  16  18
ENDBRANCH  15  16
ENDBRANCH   8  15
TORSDOF 4
ENDMDL
MODEL 6
REMARK VINA RESULT:      -6.8      5.365      7.401
REMARK  Name = NuBBE_1281
REMARK  6 active torsions:
REMARK  status: ('A' for Active; 'I' for Inactive)
REMARK    1  A    between atoms: C_8  and  O_9
REMARK    2  A    between atoms: O_9  and  C_10
REMARK    3  A    between atoms: C_10  and  C_11
REMARK    4  A    between atoms: C_11  and  C_12
REMARK    5  A    between atoms: C_12  and  C_13
REMARK    6  A    between atoms: C_12  and  C_14
REMARK                            x       y       z     vdW  Elec       q    Type
REMARK                         _______ _______ _______ _____ _____    ______ ____
ROOT
ATOM      1  O   LIG A   1      -8.446   3.485 128.075  0.00  0.00    -0.245 OA
ATOM      2  C   LIG A   1      -8.346   2.314 127.736  0.00  0.00    +0.337 A 
ATOM      3  O   LIG A   1      -8.804   1.847 126.513  0.00  0.00    -0.422 OA
ATOM      4  C   LIG A   1      -8.721   0.480 126.159  0.00  0.00    +0.146 A 
ATOM      5  C   LIG A   1      -9.233   0.154 124.903  0.00  0.00    +0.094 A 
ATOM      6  C   LIG A   1      -9.151  -1.187 124.550  0.00  0.00    +0.142 A 
ATOM      7  C   LIG A   1      -8.617  -2.189 125.358  0.00  0.00    +0.063 A 
ATOM      8  C   LIG A   1      -8.123  -1.820 126.632  0.00  0.00    +0.153 A 
ATOM      9  C   LIG A   1      -8.158  -0.461 127.026  0.00  0.00    +0.061 A 
ATOM     10  C   LIG A   1      -7.618   0.026 128.296  0.00  0.00    +0.022 A 
ATOM     11  C   LIG A   1      -7.712   1.319 128.618  0.00  0.00    +0.093 A 
ATOM     12  C   LIG A   1      -8.721  -3.379 124.582  0.00  0.00    +0.053 A 
ATOM     13  C   LIG A   1      -9.316  -3.031 123.393  0.00  0.00    +0.196 A 
ATOM     14  O   LIG A   1      -9.573  -1.700 123.363  0.00  0.00    -0.463 OA
ENDROOT
BRANCH   8  15
ATOM     15  O   LIG A   1      -7.474  -2.734 127.520  0.00  0.00    -0.424 OA
BRANCH  15  16
ATOM     16  C   LIG A   1      -8.216  -3.527 128.390  0.00  0.00    +0.313 C 
ATOM     17  O   LIG A   1      -9.201  -4.198 128.095  0.00  0.00    -0.250 OA
BRANCH  16  18
ATOM     18  C   LIG A   1      -7.659  -3.405 129.793  0.00  0.00    +0.124 C 
BRANCH  18  19
ATOM     19  C   LIG A   1      -6.132  -3.554 129.866  0.00  0.00    -0.007 C 
ATOM     20  C   LIG A   1      -5.500  -2.239 130.334  0.00  0.00    +0.007 C 
ATOM     21  C   LIG A   1      -5.690  -4.693 130.789  0.00  0.00    +0.007 C 
ENDBRANCH  18  19
ENDBRANCH  16  18
ENDBRANCH  15  16
ENDBRANCH   8  15
TORSDOF 4
ENDMDL
MODEL 7
REMARK VINA RESULT:      -6.6      5.658      7.573
REMARK  Name = NuBBE_1281
REMARK  6 active torsions:
REMARK  status: ('A' for Active; 'I' for Inactive)
REMARK    1  A    between atoms: C_8  and  O_9
REMARK    2  A    between atoms: O_9  and  C_10
REMARK    3  A    between atoms: C_10  and  C_11
REMARK    4  A    between atoms: C_11  and  C_12
REMARK    5  A    between atoms: C_12  and  C_13
REMARK    6  A    between atoms: C_12  and  C_14
REMARK                            x       y       z     vdW  Elec       q    Type
REMARK                         _______ _______ _______ _____ _____    ______ ____
ROOT
ATOM      1  O   LIG A   1      -9.798  -3.462 123.228  0.00  0.00    -0.245 OA
ATOM      2  C   LIG A   1      -9.321  -2.915 124.213  0.00  0.00    +0.337 A 
ATOM      3  O   LIG A   1      -9.561  -1.585 124.519  0.00  0.00    -0.422 OA
ATOM      4  C   LIG A   1      -8.963  -0.958 125.637  0.00  0.00    +0.146 A 
ATOM      5  C   LIG A   1      -9.286   0.387 125.815  0.00  0.00    +0.094 A 
ATOM      6  C   LIG A   1      -8.703   1.006 126.914  0.00  0.00    +0.142 A 
ATOM      7  C   LIG A   1      -7.835   0.382 127.808  0.00  0.00    +0.063 A 
ATOM      8  C   LIG A   1      -7.519  -0.980 127.583  0.00  0.00    +0.153 A 
ATOM      9  C   LIG A   1      -8.111  -1.662 126.494  0.00  0.00    +0.061 A 
ATOM     10  C   LIG A   1      -7.893  -3.082 126.216  0.00  0.00    +0.022 A 
ATOM     11  C   LIG A   1      -8.460  -3.656 125.150  0.00  0.00    +0.093 A 
ATOM     12  C   LIG A   1      -7.517   1.384 128.769  0.00  0.00    +0.053 A 
ATOM     13  C   LIG A   1      -8.180   2.526 128.390  0.00  0.00    +0.196 A 
ATOM     14  O   LIG A   1      -8.909   2.303 127.269  0.00  0.00    -0.463 OA
ENDROOT
BRANCH   8  15
ATOM     15  O   LIG A   1      -6.712  -1.758 128.471  0.00  0.00    -0.424 OA
BRANCH  15  16
ATOM     16  C   LIG A   1      -7.256  -2.306 129.629  0.00  0.00    +0.313 C 
ATOM     17  O   LIG A   1      -7.974  -1.724 130.437  0.00  0.00    -0.250 OA
BRANCH  16  18
ATOM     18  C   LIG A   1      -6.786  -3.738 129.784  0.00  0.00    +0.124 C 
BRANCH  18  19
ATOM     19  C   LIG A   1      -5.493  -3.879 130.601  0.00  0.00    -0.007 C 
ATOM     20  C   LIG A   1      -5.502  -5.206 131.367  0.00  0.00    +0.007 C 
ATOM     21  C   LIG A   1      -4.232  -3.794 129.736  0.00  0.00    +0.007 C 
ENDBRANCH  18  19
ENDBRANCH  16  18
ENDBRANCH  15  16
ENDBRANCH   8  15
TORSDOF 4
ENDMDL
MODEL 8
REMARK VINA RESULT:      -6.4      4.765      6.871
REMARK  Name = NuBBE_1281
REMARK  6 active torsions:
REMARK  status: ('A' for Active; 'I' for Inactive)
REMARK    1  A    between atoms: C_8  and  O_9
REMARK    2  A    between atoms: O_9  and  C_10
REMARK    3  A    between atoms: C_10  and  C_11
REMARK    4  A    between atoms: C_11  and  C_12
REMARK    5  A    between atoms: C_12  and  C_13
REMARK    6  A    between atoms: C_12  and  C_14
REMARK                            x       y       z     vdW  Elec       q    Type
REMARK                         _______ _______ _______ _____ _____    ______ ____
ROOT
ATOM      1  O   LIG A   1     -10.151  -3.590 123.276  0.00  0.00    -0.245 OA
ATOM      2  C   LIG A   1      -9.287  -2.949 123.858  0.00  0.00    +0.337 A 
ATOM      3  O   LIG A   1      -9.142  -1.579 123.703  0.00  0.00    -0.422 OA
ATOM      4  C   LIG A   1      -8.108  -0.862 124.349  0.00  0.00    +0.146 A 
ATOM      5  C   LIG A   1      -8.077   0.509 124.092  0.00  0.00    +0.094 A 
ATOM      6  C   LIG A   1      -7.064   1.217 124.726  0.00  0.00    +0.142 A 
ATOM      7  C   LIG A   1      -6.106   0.652 125.565  0.00  0.00    +0.063 A 
ATOM      8  C   LIG A   1      -6.162  -0.745 125.789  0.00  0.00    +0.153 A 
ATOM      9  C   LIG A   1      -7.192  -1.506 125.187  0.00  0.00    +0.061 A 
ATOM     10  C   LIG A   1      -7.368  -2.942 125.405  0.00  0.00    +0.022 A 
ATOM     11  C   LIG A   1      -8.346  -3.605 124.780  0.00  0.00    +0.093 A 
ATOM     12  C   LIG A   1      -5.304   1.748 125.996  0.00  0.00    +0.053 A 
ATOM     13  C   LIG A   1      -5.805   2.873 125.387  0.00  0.00    +0.196 A 
ATOM     14  O   LIG A   1      -6.879   2.561 124.621  0.00  0.00    -0.463 OA
ENDROOT
BRANCH   8  15
ATOM     15  O   LIG A   1      -5.293  -1.434 126.692  0.00  0.00    -0.424 OA
BRANCH  15  16
ATOM     16  C   LIG A   1      -5.528  -1.407 128.063  0.00  0.00    +0.313 C 
ATOM     17  O   LIG A   1      -5.839  -0.420 128.724  0.00  0.00    -0.250 OA
BRANCH  16  18
ATOM     18  C   LIG A   1      -5.292  -2.784 128.648  0.00  0.00    +0.124 C 
BRANCH  18  19
ATOM     19  C   LIG A   1      -6.329  -3.192 129.705  0.00  0.00    -0.007 C 
ATOM     20  C   LIG A   1      -7.694  -3.405 129.042  0.00  0.00    +0.007 C 
ATOM     21  C   LIG A   1      -5.929  -4.454 130.474  0.00  0.00    +0.007 C 
ENDBRANCH  18  19
ENDBRANCH  16  18
ENDBRANCH  15  16
ENDBRANCH   8  15
TORSDOF 4
ENDMDL
MODEL 9
REMARK VINA RESULT:      -6.4      3.055      5.968
REMARK  Name = NuBBE_1281
REMARK  6 active torsions:
REMARK  status: ('A' for Active; 'I' for Inactive)
REMARK    1  A    between atoms: C_8  and  O_9
REMARK    2  A    between atoms: O_9  and  C_10
REMARK    3  A    between atoms: C_10  and  C_11
REMARK    4  A    between atoms: C_11  and  C_12
REMARK    5  A    between atoms: C_12  and  C_13
REMARK    6  A    between atoms: C_12  and  C_14
REMARK                            x       y       z     vdW  Elec       q    Type
REMARK                         _______ _______ _______ _____ _____    ______ ____
ROOT
ATOM      1  O   LIG A   1      -3.309   4.320 126.720  0.00  0.00    -0.245 OA
ATOM      2  C   LIG A   1      -4.138   3.541 126.272  0.00  0.00    +0.337 A 
ATOM      3  O   LIG A   1      -5.101   3.921 125.351  0.00  0.00    -0.422 OA
ATOM      4  C   LIG A   1      -6.080   3.016 124.880  0.00  0.00    +0.146 A 
ATOM      5  C   LIG A   1      -6.993   3.542 123.965  0.00  0.00    +0.094 A 
ATOM      6  C   LIG A   1      -7.955   2.655 123.497  0.00  0.00    +0.142 A 
ATOM      7  C   LIG A   1      -8.062   1.322 123.888  0.00  0.00    +0.063 A 
ATOM      8  C   LIG A   1      -7.127   0.830 124.831  0.00  0.00    +0.153 A 
ATOM      9  C   LIG A   1      -6.110   1.687 125.315  0.00  0.00    +0.061 A 
ATOM     10  C   LIG A   1      -5.065   1.256 126.244  0.00  0.00    +0.022 A 
ATOM     11  C   LIG A   1      -4.152   2.127 126.685  0.00  0.00    +0.093 A 
ATOM     12  C   LIG A   1      -9.161   0.808 123.142  0.00  0.00    +0.053 A 
ATOM     13  C   LIG A   1      -9.648   1.845 122.383  0.00  0.00    +0.196 A 
ATOM     14  O   LIG A   1      -8.916   2.968 122.587  0.00  0.00    -0.463 OA
ENDROOT
BRANCH   8  15
ATOM     15  O   LIG A   1      -7.074  -0.536 125.249  0.00  0.00    -0.424 OA
BRANCH  15  16
ATOM     16  C   LIG A   1      -6.362  -1.478 124.513  0.00  0.00    +0.313 C 
ATOM     17  O   LIG A   1      -5.152  -1.677 124.571  0.00  0.00    -0.250 OA
BRANCH  16  18
ATOM     18  C   LIG A   1      -7.300  -2.204 123.570  0.00  0.00    +0.124 C 
BRANCH  18  19
ATOM     19  C   LIG A   1      -8.555  -2.763 124.258  0.00  0.00    -0.007 C 
ATOM     20  C   LIG A   1      -9.601  -3.143 123.206  0.00  0.00    +0.007 C 
ATOM     21  C   LIG A   1      -8.255  -3.973 125.146  0.00  0.00    +0.007 C 
ENDBRANCH  18  19
ENDBRANCH  16  18
ENDBRANCH  15  16
ENDBRANCH   8  15
TORSDOF 4
ENDMDL
