MODEL 1
REMARK VINA RESULT:      -7.1      0.000      0.000
REMARK  Name = NuBBE_537
REMARK  8 active torsions:
REMARK  status: ('A' for Active; 'I' for Inactive)
REMARK    1  A    between atoms: O_1  and  C_2
REMARK    2  A    between atoms: C_2  and  C_4
REMARK    3  A    between atoms: C_2  and  C_12
REMARK    4  A    between atoms: C_5  and  C_6
REMARK    5  A    between atoms: C_12  and  C_13
REMARK    6  A    between atoms: C_13  and  C_15
REMARK    7  A    between atoms: C_13  and  O_24
REMARK    8  A    between atoms: C_15  and  C_16
REMARK                            x       y       z     vdW  Elec       q    Type
REMARK                         _______ _______ _______ _____ _____    ______ ____
ROOT
ATOM      1  C   LIG A   1      -8.698   0.632 123.599  0.00  0.00    +0.067 C 
ENDROOT
BRANCH   1   2
ATOM      2  C   LIG A   1      -9.473   1.943 123.391  0.00  0.00    +0.140 C 
BRANCH   2   3
ATOM      3  O   LIG A   1      -9.699   2.565 124.657  0.00  0.00    -0.388 OA
ATOM      4  H   LIG A   1      -9.874   3.510 124.485  0.00  0.00    +0.210 HD
ENDBRANCH   2   3
BRANCH   2   5
ATOM      5  C   LIG A   1      -8.690   2.902 122.549  0.00  0.00    +0.004 C 
ATOM      6  C   LIG A   1      -7.436   2.702 122.111  0.00  0.00    +0.006 C 
BRANCH   6   7
ATOM      7  C   LIG A   1      -6.666   3.657 121.291  0.00  0.00    -0.025 A 
ATOM      8  C   LIG A   1      -7.172   4.049 120.042  0.00  0.00    +0.008 A 
ATOM      9  C   LIG A   1      -6.459   4.934 119.225  0.00  0.00    +0.001 A 
ATOM     10  C   LIG A   1      -5.231   5.440 119.645  0.00  0.00    +0.000 A 
ATOM     11  C   LIG A   1      -4.719   5.068 120.883  0.00  0.00    +0.001 A 
ATOM     12  C   LIG A   1      -5.431   4.184 121.696  0.00  0.00    +0.008 A 
ENDBRANCH   6   7
ENDBRANCH   2   5
ENDBRANCH   1   2
BRANCH   1  13
ATOM     13  C   LIG A   1      -8.772   0.116 125.046  0.00  0.00    +0.121 C 
BRANCH  13  14
ATOM     14  O   LIG A   1      -7.859   0.801 125.897  0.00  0.00    -0.392 OA
ATOM     15  H   LIG A   1      -7.520   0.147 126.548  0.00  0.00    +0.210 HD
ENDBRANCH  13  14
BRANCH  13  16
ATOM     16  C   LIG A   1      -8.460  -1.385 125.122  0.00  0.00    +0.076 C 
BRANCH  16  17
ATOM     17  C   LIG A   1      -8.635  -1.991 126.525  0.00  0.00    +0.183 C 
ATOM     18  O   LIG A   1      -7.395  -1.781 127.249  0.00  0.00    -0.458 OA
ATOM     19  C   LIG A   1      -7.253  -2.333 128.479  0.00  0.00    +0.332 C 
ATOM     20  C   LIG A   1      -8.113  -3.488 128.794  0.00  0.00    +0.087 C 
ATOM     21  C   LIG A   1      -8.892  -4.054 127.864  0.00  0.00    -0.016 C 
ATOM     22  C   LIG A   1      -8.978  -3.482 126.488  0.00  0.00    +0.072 C 
ATOM     23  O   LIG A   1      -6.411  -1.947 129.288  0.00  0.00    -0.246 OA
ENDBRANCH  16  17
ENDBRANCH  13  16
ENDBRANCH   1  13
TORSDOF 8
ENDMDL
MODEL 2
REMARK VINA RESULT:      -7.0      8.458     10.369
REMARK  Name = NuBBE_537
REMARK  8 active torsions:
REMARK  status: ('A' for Active; 'I' for Inactive)
REMARK    1  A    between atoms: O_1  and  C_2
REMARK    2  A    between atoms: C_2  and  C_4
REMARK    3  A    between atoms: C_2  and  C_12
REMARK    4  A    between atoms: C_5  and  C_6
REMARK    5  A    between atoms: C_12  and  C_13
REMARK    6  A    between atoms: C_13  and  C_15
REMARK    7  A    between atoms: C_13  and  O_24
REMARK    8  A    between atoms: C_15  and  C_16
REMARK                            x       y       z     vdW  Elec       q    Type
REMARK                         _______ _______ _______ _____ _____    ______ ____
ROOT
ATOM      1  C   LIG A   1      -9.650   4.616 131.944  0.00  0.00    +0.067 C 
ENDROOT
BRANCH   1   2
ATOM      2  C   LIG A   1      -9.209   6.041 132.313  0.00  0.00    +0.140 C 
BRANCH   2   3
ATOM      3  O   LIG A   1      -9.634   6.340 133.643  0.00  0.00    -0.388 OA
ATOM      4  H   LIG A   1      -8.986   6.967 134.018  0.00  0.00    +0.210 HD
ENDBRANCH   2   3
BRANCH   2   5
ATOM      5  C   LIG A   1      -7.717   6.168 132.275  0.00  0.00    +0.004 C 
ATOM      6  C   LIG A   1      -7.016   6.759 131.293  0.00  0.00    +0.006 C 
BRANCH   6   7
ATOM      7  C   LIG A   1      -5.545   6.870 131.256  0.00  0.00    -0.025 A 
ATOM      8  C   LIG A   1      -4.784   6.197 132.224  0.00  0.00    +0.008 A 
ATOM      9  C   LIG A   1      -3.388   6.298 132.236  0.00  0.00    +0.001 A 
ATOM     10  C   LIG A   1      -2.733   7.071 131.279  0.00  0.00    +0.000 A 
ATOM     11  C   LIG A   1      -3.472   7.736 130.308  0.00  0.00    +0.001 A 
ATOM     12  C   LIG A   1      -4.864   7.636 130.298  0.00  0.00    +0.008 A 
ENDBRANCH   6   7
ENDBRANCH   2   5
ENDBRANCH   1   2
BRANCH   1  13
ATOM     13  C   LIG A   1     -10.622   4.581 130.752  0.00  0.00    +0.121 C 
BRANCH  13  14
ATOM     14  O   LIG A   1      -9.939   4.357 129.523  0.00  0.00    -0.392 OA
ATOM     15  H   LIG A   1     -10.426   4.847 128.824  0.00  0.00    +0.210 HD
ENDBRANCH  13  14
BRANCH  13  16
ATOM     16  C   LIG A   1     -11.404   5.897 130.628  0.00  0.00    +0.076 C 
BRANCH  16  17
ATOM     17  C   LIG A   1     -12.104   6.084 129.271  0.00  0.00    +0.183 C 
ATOM     18  O   LIG A   1     -11.102   6.534 128.322  0.00  0.00    -0.458 OA
ATOM     19  C   LIG A   1     -11.495   6.886 127.073  0.00  0.00    +0.332 C 
ATOM     20  C   LIG A   1     -12.909   7.269 126.902  0.00  0.00    +0.087 C 
ATOM     21  C   LIG A   1     -13.729   7.401 127.952  0.00  0.00    -0.016 C 
ATOM     22  C   LIG A   1     -13.259   7.085 129.334  0.00  0.00    +0.072 C 
ATOM     23  O   LIG A   1     -10.715   6.952 126.125  0.00  0.00    -0.246 OA
ENDBRANCH  16  17
ENDBRANCH  13  16
ENDBRANCH   1  13
TORSDOF 8
ENDMDL
MODEL 3
REMARK VINA RESULT:      -7.0      4.038      5.793
REMARK  Name = NuBBE_537
REMARK  8 active torsions:
REMARK  status: ('A' for Active; 'I' for Inactive)
REMARK    1  A    between atoms: O_1  and  C_2
REMARK    2  A    between atoms: C_2  and  C_4
REMARK    3  A    between atoms: C_2  and  C_12
REMARK    4  A    between atoms: C_5  and  C_6
REMARK    5  A    between atoms: C_12  and  C_13
REMARK    6  A    between atoms: C_13  and  C_15
REMARK    7  A    between atoms: C_13  and  O_24
REMARK    8  A    between atoms: C_15  and  C_16
REMARK                            x       y       z     vdW  Elec       q    Type
REMARK                         _______ _______ _______ _____ _____    ______ ____
ROOT
ATOM      1  C   LIG A   1      -8.090   3.241 125.276  0.00  0.00    +0.067 C 
ENDROOT
BRANCH   1   2
ATOM      2  C   LIG A   1      -8.514   2.420 124.048  0.00  0.00    +0.140 C 
BRANCH   2   3
ATOM      3  O   LIG A   1      -9.922   2.189 124.094  0.00  0.00    -0.388 OA
ATOM      4  H   LIG A   1     -10.359   3.036 123.880  0.00  0.00    +0.210 HD
ENDBRANCH   2   3
BRANCH   2   5
ATOM      5  C   LIG A   1      -8.217   3.158 122.780  0.00  0.00    +0.004 C 
ATOM      6  C   LIG A   1      -7.029   3.173 122.153  0.00  0.00    +0.006 C 
BRANCH   6   7
ATOM      7  C   LIG A   1      -6.739   3.913 120.909  0.00  0.00    -0.025 A 
ATOM      8  C   LIG A   1      -5.515   4.587 120.785  0.00  0.00    +0.008 A 
ATOM      9  C   LIG A   1      -5.215   5.320 119.630  0.00  0.00    +0.001 A 
ATOM     10  C   LIG A   1      -6.132   5.386 118.584  0.00  0.00    +0.000 A 
ATOM     11  C   LIG A   1      -7.345   4.716 118.688  0.00  0.00    +0.001 A 
ATOM     12  C   LIG A   1      -7.645   3.988 119.840  0.00  0.00    +0.008 A 
ENDBRANCH   6   7
ENDBRANCH   2   5
ENDBRANCH   1   2
BRANCH   1  13
ATOM     13  C   LIG A   1      -6.645   2.952 125.719  0.00  0.00    +0.121 C 
BRANCH  13  14
ATOM     14  O   LIG A   1      -6.587   2.516 127.072  0.00  0.00    -0.392 OA
ATOM     15  H   LIG A   1      -5.953   1.765 127.110  0.00  0.00    +0.210 HD
ENDBRANCH  13  14
BRANCH  13  16
ATOM     16  C   LIG A   1      -5.758   4.198 125.581  0.00  0.00    +0.076 C 
BRANCH  16  17
ATOM     17  C   LIG A   1      -4.772   4.396 126.745  0.00  0.00    +0.183 C 
ATOM     18  O   LIG A   1      -4.691   5.820 127.011  0.00  0.00    -0.458 OA
ATOM     19  C   LIG A   1      -3.790   6.266 127.922  0.00  0.00    +0.332 C 
ATOM     20  C   LIG A   1      -2.640   5.388 128.207  0.00  0.00    +0.087 C 
ATOM     21  C   LIG A   1      -2.420   4.274 127.498  0.00  0.00    -0.016 C 
ATOM     22  C   LIG A   1      -3.380   3.836 126.442  0.00  0.00    +0.072 C 
ATOM     23  O   LIG A   1      -3.873   7.372 128.452  0.00  0.00    -0.246 OA
ENDBRANCH  16  17
ENDBRANCH  13  16
ENDBRANCH   1  13
TORSDOF 8
ENDMDL
MODEL 4
REMARK VINA RESULT:      -6.9      2.016      8.804
REMARK  Name = NuBBE_537
REMARK  8 active torsions:
REMARK  status: ('A' for Active; 'I' for Inactive)
REMARK    1  A    between atoms: O_1  and  C_2
REMARK    2  A    between atoms: C_2  and  C_4
REMARK    3  A    between atoms: C_2  and  C_12
REMARK    4  A    between atoms: C_5  and  C_6
REMARK    5  A    between atoms: C_12  and  C_13
REMARK    6  A    between atoms: C_13  and  C_15
REMARK    7  A    between atoms: C_13  and  O_24
REMARK    8  A    between atoms: C_15  and  C_16
REMARK                            x       y       z     vdW  Elec       q    Type
REMARK                         _______ _______ _______ _____ _____    ______ ____
ROOT
ATOM      1  C   LIG A   1      -9.145   1.623 123.711  0.00  0.00    +0.067 C 
ENDROOT
BRANCH   1   2
ATOM      2  C   LIG A   1      -8.545   0.224 123.498  0.00  0.00    +0.140 C 
BRANCH   2   3
ATOM      3  O   LIG A   1      -7.131   0.336 123.328  0.00  0.00    -0.388 OA
ATOM      4  H   LIG A   1      -6.735   0.345 124.220  0.00  0.00    +0.210 HD
ENDBRANCH   2   3
BRANCH   2   5
ATOM      5  C   LIG A   1      -8.790  -0.652 124.687  0.00  0.00    +0.004 C 
ATOM      6  C   LIG A   1      -7.863  -1.004 125.593  0.00  0.00    +0.006 C 
BRANCH   6   7
ATOM      7  C   LIG A   1      -8.108  -1.878 126.756  0.00  0.00    -0.025 A 
ATOM      8  C   LIG A   1      -7.647  -1.479 128.020  0.00  0.00    +0.008 A 
ATOM      9  C   LIG A   1      -7.839  -2.293 129.143  0.00  0.00    +0.001 A 
ATOM     10  C   LIG A   1      -8.496  -3.515 129.018  0.00  0.00    +0.000 A 
ATOM     11  C   LIG A   1      -8.966  -3.921 127.775  0.00  0.00    +0.001 A 
ATOM     12  C   LIG A   1      -8.773  -3.109 126.656  0.00  0.00    +0.008 A 
ENDBRANCH   6   7
ENDBRANCH   2   5
ENDBRANCH   1   2
BRANCH   1  13
ATOM     13  C   LIG A   1      -8.240   2.749 123.181  0.00  0.00    +0.121 C 
BRANCH  13  14
ATOM     14  O   LIG A   1      -8.317   3.913 123.996  0.00  0.00    -0.392 OA
ATOM     15  H   LIG A   1      -7.410   4.290 124.055  0.00  0.00    +0.210 HD
ENDBRANCH  13  14
BRANCH  13  16
ATOM     16  C   LIG A   1      -8.619   3.145 121.747  0.00  0.00    +0.076 C 
BRANCH  16  17
ATOM     17  C   LIG A   1      -7.415   3.491 120.854  0.00  0.00    +0.183 C 
ATOM     18  O   LIG A   1      -6.459   4.215 121.671  0.00  0.00    -0.458 OA
ATOM     19  C   LIG A   1      -5.356   4.738 121.081  0.00  0.00    +0.332 C 
ATOM     20  C   LIG A   1      -5.430   4.981 119.628  0.00  0.00    +0.087 C 
ATOM     21  C   LIG A   1      -6.575   4.829 118.952  0.00  0.00    -0.016 C 
ATOM     22  C   LIG A   1      -7.805   4.326 119.633  0.00  0.00    +0.072 C 
ATOM     23  O   LIG A   1      -4.353   5.060 121.714  0.00  0.00    -0.246 OA
ENDBRANCH  16  17
ENDBRANCH  13  16
ENDBRANCH   1  13
TORSDOF 8
ENDMDL
MODEL 5
REMARK VINA RESULT:      -6.9      2.000      3.087
REMARK  Name = NuBBE_537
REMARK  8 active torsions:
REMARK  status: ('A' for Active; 'I' for Inactive)
REMARK    1  A    between atoms: O_1  and  C_2
REMARK    2  A    between atoms: C_2  and  C_4
REMARK    3  A    between atoms: C_2  and  C_12
REMARK    4  A    between atoms: C_5  and  C_6
REMARK    5  A    between atoms: C_12  and  C_13
REMARK    6  A    between atoms: C_13  and  C_15
REMARK    7  A    between atoms: C_13  and  O_24
REMARK    8  A    between atoms: C_15  and  C_16
REMARK                            x       y       z     vdW  Elec       q    Type
REMARK                         _______ _______ _______ _____ _____    ______ ____
ROOT
ATOM      1  C   LIG A   1      -6.164   2.017 125.300  0.00  0.00    +0.067 C 
ENDROOT
BRANCH   1   2
ATOM      2  C   LIG A   1      -5.958   3.513 125.018  0.00  0.00    +0.140 C 
BRANCH   2   3
ATOM      3  O   LIG A   1      -4.572   3.833 125.142  0.00  0.00    -0.388 OA
ATOM      4  H   LIG A   1      -4.243   3.379 125.940  0.00  0.00    +0.210 HD
ENDBRANCH   2   3
BRANCH   2   5
ATOM      5  C   LIG A   1      -6.380   3.860 123.624  0.00  0.00    +0.004 C 
ATOM      6  C   LIG A   1      -5.563   3.910 122.558  0.00  0.00    +0.006 C 
BRANCH   6   7
ATOM      7  C   LIG A   1      -5.983   4.264 121.188  0.00  0.00    -0.025 A 
ATOM      8  C   LIG A   1      -5.144   5.071 120.404  0.00  0.00    +0.008 A 
ATOM      9  C   LIG A   1      -5.519   5.449 119.109  0.00  0.00    +0.001 A 
ATOM     10  C   LIG A   1      -6.735   5.024 118.580  0.00  0.00    +0.000 A 
ATOM     11  C   LIG A   1      -7.573   4.217 119.341  0.00  0.00    +0.001 A 
ATOM     12  C   LIG A   1      -7.199   3.843 120.632  0.00  0.00    +0.008 A 
ENDBRANCH   6   7
ENDBRANCH   2   5
ENDBRANCH   1   2
BRANCH   1  13
ATOM     13  C   LIG A   1      -7.504   1.485 124.763  0.00  0.00    +0.121 C 
BRANCH  13  14
ATOM     14  O   LIG A   1      -8.372   1.085 125.818  0.00  0.00    -0.392 OA
ATOM     15  H   LIG A   1      -9.228   0.823 125.410  0.00  0.00    +0.210 HD
ENDBRANCH  13  14
BRANCH  13  16
ATOM     16  C   LIG A   1      -7.297   0.281 123.834  0.00  0.00    +0.076 C 
BRANCH  16  17
ATOM     17  C   LIG A   1      -8.323  -0.848 124.035  0.00  0.00    +0.183 C 
ATOM     18  O   LIG A   1      -7.963  -1.553 125.251  0.00  0.00    -0.458 OA
ATOM     19  C   LIG A   1      -8.650  -2.674 125.587  0.00  0.00    +0.332 C 
ATOM     20  C   LIG A   1      -9.348  -3.378 124.496  0.00  0.00    +0.087 C 
ATOM     21  C   LIG A   1      -9.194  -3.013 123.217  0.00  0.00    -0.016 C 
ATOM     22  C   LIG A   1      -8.370  -1.822 122.856  0.00  0.00    +0.072 C 
ATOM     23  O   LIG A   1      -8.653  -3.135 126.726  0.00  0.00    -0.246 OA
ENDBRANCH  16  17
ENDBRANCH  13  16
ENDBRANCH   1  13
TORSDOF 8
ENDMDL
MODEL 6
REMARK VINA RESULT:      -6.9      9.663     11.160
REMARK  Name = NuBBE_537
REMARK  8 active torsions:
REMARK  status: ('A' for Active; 'I' for Inactive)
REMARK    1  A    between atoms: O_1  and  C_2
REMARK    2  A    between atoms: C_2  and  C_4
REMARK    3  A    between atoms: C_2  and  C_12
REMARK    4  A    between atoms: C_5  and  C_6
REMARK    5  A    between atoms: C_12  and  C_13
REMARK    6  A    between atoms: C_13  and  C_15
REMARK    7  A    between atoms: C_13  and  O_24
REMARK    8  A    between atoms: C_15  and  C_16
REMARK                            x       y       z     vdW  Elec       q    Type
REMARK                         _______ _______ _______ _____ _____    ______ ____
ROOT
ATOM      1  C   LIG A   1      -7.705   5.717 132.458  0.00  0.00    +0.067 C 
ENDROOT
BRANCH   1   2
ATOM      2  C   LIG A   1      -6.744   6.122 131.330  0.00  0.00    +0.140 C 
BRANCH   2   3
ATOM      3  O   LIG A   1      -7.150   7.381 130.790  0.00  0.00    -0.388 OA
ATOM      4  H   LIG A   1      -7.905   7.692 131.325  0.00  0.00    +0.210 HD
ENDBRANCH   2   3
BRANCH   2   5
ATOM      5  C   LIG A   1      -5.347   6.280 131.844  0.00  0.00    +0.004 C 
ATOM      6  C   LIG A   1      -4.408   7.072 131.301  0.00  0.00    +0.006 C 
BRANCH   6   7
ATOM      7  C   LIG A   1      -3.028   7.214 131.806  0.00  0.00    -0.025 A 
ATOM      8  C   LIG A   1      -2.675   8.372 132.514  0.00  0.00    +0.008 A 
ATOM      9  C   LIG A   1      -1.370   8.554 132.987  0.00  0.00    +0.001 A 
ATOM     10  C   LIG A   1      -0.401   7.579 132.761  0.00  0.00    +0.000 A 
ATOM     11  C   LIG A   1      -0.737   6.422 132.068  0.00  0.00    +0.001 A 
ATOM     12  C   LIG A   1      -2.037   6.243 131.595  0.00  0.00    +0.008 A 
ENDBRANCH   6   7
ENDBRANCH   2   5
ENDBRANCH   1   2
BRANCH   1  13
ATOM     13  C   LIG A   1      -9.022   5.118 131.936  0.00  0.00    +0.121 C 
BRANCH  13  14
ATOM     14  O   LIG A   1      -8.977   4.890 130.532  0.00  0.00    -0.392 OA
ATOM     15  H   LIG A   1      -8.888   3.921 130.395  0.00  0.00    +0.210 HD
ENDBRANCH  13  14
BRANCH  13  16
ATOM     16  C   LIG A   1     -10.213   6.041 132.231  0.00  0.00    +0.076 C 
BRANCH  16  17
ATOM     17  C   LIG A   1     -11.007   6.457 130.980  0.00  0.00    +0.183 C 
ATOM     18  O   LIG A   1     -10.182   7.384 130.228  0.00  0.00    -0.458 OA
ATOM     19  C   LIG A   1     -10.709   7.991 129.136  0.00  0.00    +0.332 C 
ATOM     20  C   LIG A   1     -12.179   8.074 129.063  0.00  0.00    +0.087 C 
ATOM     21  C   LIG A   1     -12.951   7.699 130.090  0.00  0.00    -0.016 C 
ATOM     22  C   LIG A   1     -12.351   7.104 131.321  0.00  0.00    +0.072 C 
ATOM     23  O   LIG A   1     -10.014   8.511 128.265  0.00  0.00    -0.246 OA
ENDBRANCH  16  17
ENDBRANCH  13  16
ENDBRANCH   1  13
TORSDOF 8
ENDMDL
MODEL 7
REMARK VINA RESULT:      -6.8      8.792     10.710
REMARK  Name = NuBBE_537
REMARK  8 active torsions:
REMARK  status: ('A' for Active; 'I' for Inactive)
REMARK    1  A    between atoms: O_1  and  C_2
REMARK    2  A    between atoms: C_2  and  C_4
REMARK    3  A    between atoms: C_2  and  C_12
REMARK    4  A    between atoms: C_5  and  C_6
REMARK    5  A    between atoms: C_12  and  C_13
REMARK    6  A    between atoms: C_13  and  C_15
REMARK    7  A    between atoms: C_13  and  O_24
REMARK    8  A    between atoms: C_15  and  C_16
REMARK                            x       y       z     vdW  Elec       q    Type
REMARK                         _______ _______ _______ _____ _____    ______ ____
ROOT
ATOM      1  C   LIG A   1      -9.387   6.825 131.011  0.00  0.00    +0.067 C 
ENDROOT
BRANCH   1   2
ATOM      2  C   LIG A   1      -8.595   5.652 130.412  0.00  0.00    +0.140 C 
BRANCH   2   3
ATOM      3  O   LIG A   1      -8.801   5.612 128.999  0.00  0.00    -0.388 OA
ATOM      4  H   LIG A   1      -7.981   5.935 128.580  0.00  0.00    +0.210 HD
ENDBRANCH   2   3
BRANCH   2   5
ATOM      5  C   LIG A   1      -7.126   5.817 130.650  0.00  0.00    +0.004 C 
ATOM      6  C   LIG A   1      -6.581   6.504 131.668  0.00  0.00    +0.006 C 
BRANCH   6   7
ATOM      7  C   LIG A   1      -5.131   6.674 131.891  0.00  0.00    -0.025 A 
ATOM      8  C   LIG A   1      -4.344   7.230 130.871  0.00  0.00    +0.008 A 
ATOM      9  C   LIG A   1      -2.962   7.384 131.036  0.00  0.00    +0.001 A 
ATOM     10  C   LIG A   1      -2.349   6.988 132.222  0.00  0.00    +0.000 A 
ATOM     11  C   LIG A   1      -3.117   6.443 133.245  0.00  0.00    +0.001 A 
ATOM     12  C   LIG A   1      -4.494   6.288 133.080  0.00  0.00    +0.008 A 
ENDBRANCH   6   7
ENDBRANCH   2   5
ENDBRANCH   1   2
BRANCH   1  13
ATOM     13  C   LIG A   1     -10.706   6.383 131.666  0.00  0.00    +0.121 C 
BRANCH  13  14
ATOM     14  O   LIG A   1     -10.479   5.599 132.832  0.00  0.00    -0.392 OA
ATOM     15  H   LIG A   1      -9.654   5.085 132.682  0.00  0.00    +0.210 HD
ENDBRANCH  13  14
BRANCH  13  16
ATOM     16  C   LIG A   1     -11.563   5.556 130.696  0.00  0.00    +0.076 C 
BRANCH  16  17
ATOM     17  C   LIG A   1     -12.351   6.401 129.680  0.00  0.00    +0.183 C 
ATOM     18  O   LIG A   1     -11.625   6.360 128.424  0.00  0.00    -0.458 OA
ATOM     19  C   LIG A   1     -12.056   7.129 127.393  0.00  0.00    +0.332 C 
ATOM     20  C   LIG A   1     -12.887   8.298 127.737  0.00  0.00    +0.087 C 
ATOM     21  C   LIG A   1     -13.086   8.664 129.009  0.00  0.00    -0.016 C 
ATOM     22  C   LIG A   1     -12.538   7.850 130.134  0.00  0.00    +0.072 C 
ATOM     23  O   LIG A   1     -11.732   6.920 126.226  0.00  0.00    -0.246 OA
ENDBRANCH  16  17
ENDBRANCH  13  16
ENDBRANCH   1  13
TORSDOF 8
ENDMDL
MODEL 8
REMARK VINA RESULT:      -6.8      2.112      2.975
REMARK  Name = NuBBE_537
REMARK  8 active torsions:
REMARK  status: ('A' for Active; 'I' for Inactive)
REMARK    1  A    between atoms: O_1  and  C_2
REMARK    2  A    between atoms: C_2  and  C_4
REMARK    3  A    between atoms: C_2  and  C_12
REMARK    4  A    between atoms: C_5  and  C_6
REMARK    5  A    between atoms: C_12  and  C_13
REMARK    6  A    between atoms: C_13  and  C_15
REMARK    7  A    between atoms: C_13  and  O_24
REMARK    8  A    between atoms: C_15  and  C_16
REMARK                            x       y       z     vdW  Elec       q    Type
REMARK                         _______ _______ _______ _____ _____    ______ ____
ROOT
ATOM      1  C   LIG A   1     -10.025   1.555 124.741  0.00  0.00    +0.067 C 
ENDROOT
BRANCH   1   2
ATOM      2  C   LIG A   1     -10.093   0.824 123.391  0.00  0.00    +0.140 C 
BRANCH   2   3
ATOM      3  O   LIG A   1     -11.442   0.817 122.923  0.00  0.00    -0.388 OA
ATOM      4  H   LIG A   1     -11.567  -0.010 122.421  0.00  0.00    +0.210 HD
ENDBRANCH   2   3
BRANCH   2   5
ATOM      5  C   LIG A   1      -9.260   1.520 122.361  0.00  0.00    +0.004 C 
ATOM      6  C   LIG A   1      -8.676   2.720 122.520  0.00  0.00    +0.006 C 
BRANCH   6   7
ATOM      7  C   LIG A   1      -7.866   3.407 121.495  0.00  0.00    -0.025 A 
ATOM      8  C   LIG A   1      -8.483   3.838 120.311  0.00  0.00    +0.008 A 
ATOM      9  C   LIG A   1      -7.743   4.471 119.306  0.00  0.00    +0.001 A 
ATOM     10  C   LIG A   1      -6.376   4.684 119.471  0.00  0.00    +0.000 A 
ATOM     11  C   LIG A   1      -5.751   4.270 120.642  0.00  0.00    +0.001 A 
ATOM     12  C   LIG A   1      -6.490   3.638 121.642  0.00  0.00    +0.008 A 
ENDBRANCH   6   7
ENDBRANCH   2   5
ENDBRANCH   1   2
BRANCH   1  13
ATOM     13  C   LIG A   1      -9.154   0.821 125.776  0.00  0.00    +0.121 C 
BRANCH  13  14
ATOM     14  O   LIG A   1      -7.867   1.416 125.897  0.00  0.00    -0.392 OA
ATOM     15  H   LIG A   1      -7.787   2.089 125.184  0.00  0.00    +0.210 HD
ENDBRANCH  13  14
BRANCH  13  16
ATOM     16  C   LIG A   1      -8.963  -0.655 125.400  0.00  0.00    +0.076 C 
BRANCH  16  17
ATOM     17  C   LIG A   1      -7.509  -1.035 125.070  0.00  0.00    +0.183 C 
ATOM     18  O   LIG A   1      -7.473  -1.456 123.682  0.00  0.00    -0.458 OA
ATOM     19  C   LIG A   1      -6.316  -1.956 123.180  0.00  0.00    +0.332 C 
ATOM     20  C   LIG A   1      -5.350  -2.502 124.150  0.00  0.00    +0.087 C 
ATOM     21  C   LIG A   1      -5.657  -2.629 125.447  0.00  0.00    -0.016 C 
ATOM     22  C   LIG A   1      -6.968  -2.145 125.973  0.00  0.00    +0.072 C 
ATOM     23  O   LIG A   1      -6.089  -2.020 121.973  0.00  0.00    -0.246 OA
ENDBRANCH  16  17
ENDBRANCH  13  16
ENDBRANCH   1  13
TORSDOF 8
ENDMDL
MODEL 9
REMARK VINA RESULT:      -6.7      9.016     10.285
REMARK  Name = NuBBE_537
REMARK  8 active torsions:
REMARK  status: ('A' for Active; 'I' for Inactive)
REMARK    1  A    between atoms: O_1  and  C_2
REMARK    2  A    between atoms: C_2  and  C_4
REMARK    3  A    between atoms: C_2  and  C_12
REMARK    4  A    between atoms: C_5  and  C_6
REMARK    5  A    between atoms: C_12  and  C_13
REMARK    6  A    between atoms: C_13  and  C_15
REMARK    7  A    between atoms: C_13  and  O_24
REMARK    8  A    between atoms: C_15  and  C_16
REMARK                            x       y       z     vdW  Elec       q    Type
REMARK                         _______ _______ _______ _____ _____    ______ ____
ROOT
ATOM      1  C   LIG A   1      -8.493   5.165 131.846  0.00  0.00    +0.067 C 
ENDROOT
BRANCH   1   2
ATOM      2  C   LIG A   1      -9.892   5.611 132.300  0.00  0.00    +0.140 C 
BRANCH   2   3
ATOM      3  O   LIG A   1      -9.775   6.412 133.477  0.00  0.00    -0.388 OA
ATOM      4  H   LIG A   1     -10.488   7.076 133.444  0.00  0.00    +0.210 HD
ENDBRANCH   2   3
BRANCH   2   5
ATOM      5  C   LIG A   1     -10.558   6.445 131.250  0.00  0.00    +0.004 C 
ATOM      6  C   LIG A   1     -11.881   6.491 131.024  0.00  0.00    +0.006 C 
BRANCH   6   7
ATOM      7  C   LIG A   1     -12.531   7.306 129.979  0.00  0.00    -0.025 A 
ATOM      8  C   LIG A   1     -13.110   6.664 128.874  0.00  0.00    +0.008 A 
ATOM      9  C   LIG A   1     -13.714   7.404 127.850  0.00  0.00    +0.001 A 
ATOM     10  C   LIG A   1     -13.750   8.795 127.919  0.00  0.00    +0.000 A 
ATOM     11  C   LIG A   1     -13.188   9.445 129.011  0.00  0.00    +0.001 A 
ATOM     12  C   LIG A   1     -12.585   8.707 130.030  0.00  0.00    +0.008 A 
ENDBRANCH   6   7
ENDBRANCH   2   5
ENDBRANCH   1   2
BRANCH   1  13
ATOM     13  C   LIG A   1      -7.890   6.089 130.773  0.00  0.00    +0.121 C 
BRANCH  13  14
ATOM     14  O   LIG A   1      -7.486   5.361 129.619  0.00  0.00    -0.392 OA
ATOM     15  H   LIG A   1      -8.292   4.945 129.239  0.00  0.00    +0.210 HD
ENDBRANCH  13  14
BRANCH  13  16
ATOM     16  C   LIG A   1      -6.667   6.847 131.311  0.00  0.00    +0.076 C 
BRANCH  16  17
ATOM     17  C   LIG A   1      -5.337   6.432 130.658  0.00  0.00    +0.183 C 
ATOM     18  O   LIG A   1      -5.032   5.086 131.107  0.00  0.00    -0.458 OA
ATOM     19  C   LIG A   1      -3.842   4.535 130.762  0.00  0.00    +0.332 C 
ATOM     20  C   LIG A   1      -2.756   5.465 130.404  0.00  0.00    +0.087 C 
ATOM     21  C   LIG A   1      -2.893   6.789 130.550  0.00  0.00    -0.016 C 
ATOM     22  C   LIG A   1      -4.187   7.378 131.007  0.00  0.00    +0.072 C 
ATOM     23  O   LIG A   1      -3.635   3.323 130.799  0.00  0.00    -0.246 OA
ENDBRANCH  16  17
ENDBRANCH  13  16
ENDBRANCH   1  13
TORSDOF 8
ENDMDL
