MODEL 1
REMARK VINA RESULT:      -8.3      0.000      0.000
REMARK  Name = NuBBE_1324
REMARK  8 active torsions:
REMARK  status: ('A' for Active; 'I' for Inactive)
REMARK    1  A    between atoms: C_2  and  C_3
REMARK    2  A    between atoms: C_2  and  C_17
REMARK    3  A    between atoms: C_4  and  O_5
REMARK    4  A    between atoms: O_5  and  C_6
REMARK    5  A    between atoms: C_10  and  C_11
REMARK    6  A    between atoms: C_10  and  C_12
REMARK    7  A    between atoms: C_17  and  C_18
REMARK    8  A    between atoms: C_18  and  C_19
REMARK                            x       y       z     vdW  Elec       q    Type
REMARK                         _______ _______ _______ _____ _____    ______ ____
ROOT
ATOM      1  O   LIG A   1      -9.679  -3.661 123.226  0.00  0.00    -0.291 OA
ATOM      2  C   LIG A   1      -8.911  -2.778 123.594  0.00  0.00    +0.174 C 
ENDROOT
BRANCH   2   3
ATOM      3  C   LIG A   1      -8.410  -2.799 125.012  0.00  0.00    +0.060 A 
ATOM      4  C   LIG A   1      -7.065  -2.582 125.370  0.00  0.00    +0.141 A 
ATOM      5  C   LIG A   1      -6.734  -2.451 126.737  0.00  0.00    +0.059 A 
ATOM      6  C   LIG A   1      -5.466  -1.916 127.221  0.00  0.00    +0.015 C 
ATOM      7  C   LIG A   1      -5.117  -2.121 128.490  0.00  0.00    +0.020 C 
ATOM      8  C   LIG A   1      -6.068  -2.700 129.503  0.00  0.00    +0.123 C 
ATOM      9  C   LIG A   1      -6.092  -1.713 130.674  0.00  0.00    +0.060 C 
ATOM     10  C   LIG A   1      -5.615  -4.082 129.985  0.00  0.00    +0.060 C 
ATOM     11  O   LIG A   1      -7.436  -2.801 129.057  0.00  0.00    -0.481 OA
ATOM     12  C   LIG A   1      -7.692  -2.775 127.711  0.00  0.00    +0.132 A 
ATOM     13  C   LIG A   1      -9.004  -3.072 127.349  0.00  0.00    +0.047 A 
ATOM     14  C   LIG A   1      -9.374  -3.050 126.006  0.00  0.00    +0.019 A 
BRANCH   4  15
ATOM     15  O   LIG A   1      -6.184  -2.537 124.323  0.00  0.00    -0.494 OA
ATOM     16  C   LIG A   1      -5.400  -3.672 123.973  0.00  0.00    +0.277 C 
ENDBRANCH   4  15
ENDBRANCH   2   3
BRANCH   2  17
ATOM     17  C   LIG A   1      -8.554  -1.618 122.683  0.00  0.00    +0.159 C 
BRANCH  17  18
ATOM     18  C   LIG A   1      -9.299  -0.333 122.985  0.00  0.00    +0.171 C 
ATOM     19  O   LIG A   1     -10.471  -0.185 122.670  0.00  0.00    -0.292 OA
BRANCH  18  20
ATOM     20  C   LIG A   1      -8.579   0.804 123.638  0.00  0.00    +0.021 A 
ATOM     21  C   LIG A   1      -9.250   1.948 124.085  0.00  0.00    +0.060 A 
ATOM     22  C   LIG A   1      -8.516   2.911 124.745  0.00  0.00    +0.167 A 
ATOM     23  C   LIG A   1      -7.167   2.773 124.975  0.00  0.00    +0.166 A 
ATOM     24  O   LIG A   1      -6.650   3.820 125.670  0.00  0.00    -0.453 OA
ATOM     25  C   LIG A   1      -7.826   4.640 125.843  0.00  0.00    +0.466 C 
ATOM     26  O   LIG A   1      -9.013   4.070 125.255  0.00  0.00    -0.453 OA
ATOM     27  C   LIG A   1      -6.469   1.670 124.537  0.00  0.00    +0.050 A 
ATOM     28  C   LIG A   1      -7.186   0.673 123.863  0.00  0.00    +0.015 A 
ENDBRANCH  18  20
ENDBRANCH  17  18
ENDBRANCH   2  17
TORSDOF 5
ENDMDL
MODEL 2
REMARK VINA RESULT:      -8.2      2.783      3.669
REMARK  Name = NuBBE_1324
REMARK  8 active torsions:
REMARK  status: ('A' for Active; 'I' for Inactive)
REMARK    1  A    between atoms: C_2  and  C_3
REMARK    2  A    between atoms: C_2  and  C_17
REMARK    3  A    between atoms: C_4  and  O_5
REMARK    4  A    between atoms: O_5  and  C_6
REMARK    5  A    between atoms: C_10  and  C_11
REMARK    6  A    between atoms: C_10  and  C_12
REMARK    7  A    between atoms: C_17  and  C_18
REMARK    8  A    between atoms: C_18  and  C_19
REMARK                            x       y       z     vdW  Elec       q    Type
REMARK                         _______ _______ _______ _____ _____    ______ ____
ROOT
ATOM      1  O   LIG A   1      -7.071  -0.653 122.861  0.00  0.00    -0.291 OA
ATOM      2  C   LIG A   1      -7.789  -0.232 123.762  0.00  0.00    +0.174 C 
ENDROOT
BRANCH   2   3
ATOM      3  C   LIG A   1      -7.520  -0.682 125.171  0.00  0.00    +0.060 A 
ATOM      4  C   LIG A   1      -8.291  -1.649 125.846  0.00  0.00    +0.141 A 
ATOM      5  C   LIG A   1      -7.849  -2.122 127.100  0.00  0.00    +0.059 A 
ATOM      6  C   LIG A   1      -8.364  -3.327 127.745  0.00  0.00    +0.015 C 
ATOM      7  C   LIG A   1      -8.127  -3.520 129.041  0.00  0.00    +0.020 C 
ATOM      8  C   LIG A   1      -7.174  -2.658 129.824  0.00  0.00    +0.123 C 
ATOM      9  C   LIG A   1      -6.177  -3.617 130.481  0.00  0.00    +0.060 C 
ATOM     10  C   LIG A   1      -7.897  -1.832 130.892  0.00  0.00    +0.060 C 
ATOM     11  O   LIG A   1      -6.375  -1.763 129.022  0.00  0.00    -0.481 OA
ATOM     12  C   LIG A   1      -6.797  -1.461 127.755  0.00  0.00    +0.132 A 
ATOM     13  C   LIG A   1      -6.087  -0.446 127.116  0.00  0.00    +0.047 A 
ATOM     14  C   LIG A   1      -6.422  -0.080 125.814  0.00  0.00    +0.019 A 
BRANCH   4  15
ATOM     15  O   LIG A   1      -9.440  -2.028 125.204  0.00  0.00    -0.494 OA
ATOM     16  C   LIG A   1      -9.461  -3.162 124.345  0.00  0.00    +0.277 C 
ENDBRANCH   4  15
ENDBRANCH   2   3
BRANCH   2  17
ATOM     17  C   LIG A   1      -8.998   0.635 123.463  0.00  0.00    +0.159 C 
BRANCH  17  18
ATOM     18  C   LIG A   1      -8.759   2.122 123.642  0.00  0.00    +0.171 C 
ATOM     19  O   LIG A   1      -9.105   2.706 124.659  0.00  0.00    -0.292 OA
BRANCH  18  20
ATOM     20  C   LIG A   1      -8.132   2.910 122.536  0.00  0.00    +0.021 A 
ATOM     21  C   LIG A   1      -6.786   3.289 122.567  0.00  0.00    +0.060 A 
ATOM     22  C   LIG A   1      -6.275   3.946 121.467  0.00  0.00    +0.167 A 
ATOM     23  C   LIG A   1      -7.042   4.227 120.361  0.00  0.00    +0.166 A 
ATOM     24  O   LIG A   1      -6.332   4.849 119.382  0.00  0.00    -0.453 OA
ATOM     25  C   LIG A   1      -5.031   4.937 120.003  0.00  0.00    +0.466 C 
ATOM     26  O   LIG A   1      -4.989   4.369 121.328  0.00  0.00    -0.453 OA
ATOM     27  C   LIG A   1      -8.374   3.885 120.299  0.00  0.00    +0.050 A 
ATOM     28  C   LIG A   1      -8.923   3.215 121.401  0.00  0.00    +0.015 A 
ENDBRANCH  18  20
ENDBRANCH  17  18
ENDBRANCH   2  17
TORSDOF 5
ENDMDL
MODEL 3
REMARK VINA RESULT:      -7.9      1.380      2.736
REMARK  Name = NuBBE_1324
REMARK  8 active torsions:
REMARK  status: ('A' for Active; 'I' for Inactive)
REMARK    1  A    between atoms: C_2  and  C_3
REMARK    2  A    between atoms: C_2  and  C_17
REMARK    3  A    between atoms: C_4  and  O_5
REMARK    4  A    between atoms: O_5  and  C_6
REMARK    5  A    between atoms: C_10  and  C_11
REMARK    6  A    between atoms: C_10  and  C_12
REMARK    7  A    between atoms: C_17  and  C_18
REMARK    8  A    between atoms: C_18  and  C_19
REMARK                            x       y       z     vdW  Elec       q    Type
REMARK                         _______ _______ _______ _____ _____    ______ ____
ROOT
ATOM      1  O   LIG A   1      -5.708  -3.836 123.882  0.00  0.00    -0.291 OA
ATOM      2  C   LIG A   1      -6.026  -2.679 124.135  0.00  0.00    +0.174 C 
ENDROOT
BRANCH   2   3
ATOM      3  C   LIG A   1      -6.208  -2.276 125.572  0.00  0.00    +0.060 A 
ATOM      4  C   LIG A   1      -7.231  -2.777 126.402  0.00  0.00    +0.141 A 
ATOM      5  C   LIG A   1      -7.207  -2.467 127.780  0.00  0.00    +0.059 A 
ATOM      6  C   LIG A   1      -8.001  -3.165 128.786  0.00  0.00    +0.015 C 
ATOM      7  C   LIG A   1      -8.157  -2.611 129.988  0.00  0.00    +0.020 C 
ATOM      8  C   LIG A   1      -7.378  -1.399 130.423  0.00  0.00    +0.123 C 
ATOM      9  C   LIG A   1      -6.706  -1.780 131.747  0.00  0.00    +0.060 C 
ATOM     10  C   LIG A   1      -8.283  -0.180 130.621  0.00  0.00    +0.060 C 
ATOM     11  O   LIG A   1      -6.300  -1.025 129.539  0.00  0.00    -0.481 OA
ATOM     12  C   LIG A   1      -6.319  -1.486 128.249  0.00  0.00    +0.132 A 
ATOM     13  C   LIG A   1      -5.360  -0.930 127.405  0.00  0.00    +0.047 A 
ATOM     14  C   LIG A   1      -5.279  -1.349 126.078  0.00  0.00    +0.019 A 
BRANCH   4  15
ATOM     15  O   LIG A   1      -8.187  -3.521 125.764  0.00  0.00    -0.494 OA
ATOM     16  C   LIG A   1      -9.532  -3.066 125.670  0.00  0.00    +0.277 C 
ENDBRANCH   4  15
ENDBRANCH   2   3
BRANCH   2  17
ATOM     17  C   LIG A   1      -6.343  -1.691 123.027  0.00  0.00    +0.159 C 
BRANCH  17  18
ATOM     18  C   LIG A   1      -7.764  -1.162 123.049  0.00  0.00    +0.171 C 
ATOM     19  O   LIG A   1      -8.684  -1.781 122.534  0.00  0.00    -0.292 OA
BRANCH  18  20
ATOM     20  C   LIG A   1      -8.048   0.169 123.669  0.00  0.00    +0.021 A 
ATOM     21  C   LIG A   1      -7.026   1.066 124.001  0.00  0.00    +0.060 A 
ATOM     22  C   LIG A   1      -7.388   2.302 124.495  0.00  0.00    +0.167 A 
ATOM     23  C   LIG A   1      -8.702   2.667 124.662  0.00  0.00    +0.166 A 
ATOM     24  O   LIG A   1      -8.832   3.938 125.129  0.00  0.00    -0.453 OA
ATOM     25  C   LIG A   1      -7.447   4.327 125.248  0.00  0.00    +0.466 C 
ATOM     26  O   LIG A   1      -6.524   3.292 124.851  0.00  0.00    -0.453 OA
ATOM     27  C   LIG A   1      -9.735   1.808 124.362  0.00  0.00    +0.050 A 
ATOM     28  C   LIG A   1      -9.402   0.544 123.856  0.00  0.00    +0.015 A 
ENDBRANCH  18  20
ENDBRANCH  17  18
ENDBRANCH   2  17
TORSDOF 5
ENDMDL
MODEL 4
REMARK VINA RESULT:      -7.9      2.401      2.914
REMARK  Name = NuBBE_1324
REMARK  8 active torsions:
REMARK  status: ('A' for Active; 'I' for Inactive)
REMARK    1  A    between atoms: C_2  and  C_3
REMARK    2  A    between atoms: C_2  and  C_17
REMARK    3  A    between atoms: C_4  and  O_5
REMARK    4  A    between atoms: O_5  and  C_6
REMARK    5  A    between atoms: C_10  and  C_11
REMARK    6  A    between atoms: C_10  and  C_12
REMARK    7  A    between atoms: C_17  and  C_18
REMARK    8  A    between atoms: C_18  and  C_19
REMARK                            x       y       z     vdW  Elec       q    Type
REMARK                         _______ _______ _______ _____ _____    ______ ____
ROOT
ATOM      1  O   LIG A   1      -8.155  -1.277 123.831  0.00  0.00    -0.291 OA
ATOM      2  C   LIG A   1      -8.583  -0.815 124.883  0.00  0.00    +0.174 C 
ENDROOT
BRANCH   2   3
ATOM      3  C   LIG A   1      -8.219  -1.497 126.173  0.00  0.00    +0.060 A 
ATOM      4  C   LIG A   1      -7.235  -1.019 127.062  0.00  0.00    +0.141 A 
ATOM      5  C   LIG A   1      -7.094  -1.637 128.323  0.00  0.00    +0.059 A 
ATOM      6  C   LIG A   1      -6.355  -1.054 129.438  0.00  0.00    +0.015 C 
ATOM      7  C   LIG A   1      -6.009  -1.831 130.464  0.00  0.00    +0.020 C 
ATOM      8  C   LIG A   1      -6.528  -3.234 130.622  0.00  0.00    +0.123 C 
ATOM      9  C   LIG A   1      -7.147  -3.303 132.022  0.00  0.00    +0.060 C 
ATOM     10  C   LIG A   1      -5.411  -4.274 130.486  0.00  0.00    +0.060 C 
ATOM     11  O   LIG A   1      -7.591  -3.590 129.714  0.00  0.00    -0.481 OA
ATOM     12  C   LIG A   1      -7.757  -2.849 128.574  0.00  0.00    +0.132 A 
ATOM     13  C   LIG A   1      -8.670  -3.365 127.656  0.00  0.00    +0.047 A 
ATOM     14  C   LIG A   1      -8.929  -2.674 126.474  0.00  0.00    +0.019 A 
BRANCH   4  15
ATOM     15  O   LIG A   1      -6.478   0.019 126.587  0.00  0.00    -0.494 OA
ATOM     16  C   LIG A   1      -5.238  -0.217 125.929  0.00  0.00    +0.277 C 
ENDBRANCH   4  15
ENDBRANCH   2   3
BRANCH   2  17
ATOM     17  C   LIG A   1      -9.552   0.353 124.893  0.00  0.00    +0.159 C 
BRANCH  17  18
ATOM     18  C   LIG A   1      -8.889   1.714 124.961  0.00  0.00    +0.171 C 
ATOM     19  O   LIG A   1      -8.890   2.375 125.990  0.00  0.00    -0.292 OA
BRANCH  18  20
ATOM     20  C   LIG A   1      -8.259   2.293 123.734  0.00  0.00    +0.021 A 
ATOM     21  C   LIG A   1      -9.017   2.672 122.620  0.00  0.00    +0.060 A 
ATOM     22  C   LIG A   1      -8.359   3.269 121.565  0.00  0.00    +0.167 A 
ATOM     23  C   LIG A   1      -7.004   3.501 121.584  0.00  0.00    +0.166 A 
ATOM     24  O   LIG A   1      -6.570   4.128 120.459  0.00  0.00    -0.453 OA
ATOM     25  C   LIG A   1      -7.806   4.256 119.723  0.00  0.00    +0.466 C 
ATOM     26  O   LIG A   1      -8.945   3.710 120.418  0.00  0.00    -0.453 OA
ATOM     27  C   LIG A   1      -6.222   3.128 122.654  0.00  0.00    +0.050 A 
ATOM     28  C   LIG A   1      -6.860   2.520 123.743  0.00  0.00    +0.015 A 
ENDBRANCH  18  20
ENDBRANCH  17  18
ENDBRANCH   2  17
TORSDOF 5
ENDMDL
MODEL 5
REMARK VINA RESULT:      -7.8      4.563      8.530
REMARK  Name = NuBBE_1324
REMARK  8 active torsions:
REMARK  status: ('A' for Active; 'I' for Inactive)
REMARK    1  A    between atoms: C_2  and  C_3
REMARK    2  A    between atoms: C_2  and  C_17
REMARK    3  A    between atoms: C_4  and  O_5
REMARK    4  A    between atoms: O_5  and  C_6
REMARK    5  A    between atoms: C_10  and  C_11
REMARK    6  A    between atoms: C_10  and  C_12
REMARK    7  A    between atoms: C_17  and  C_18
REMARK    8  A    between atoms: C_18  and  C_19
REMARK                            x       y       z     vdW  Elec       q    Type
REMARK                         _______ _______ _______ _____ _____    ______ ____
ROOT
ATOM      1  O   LIG A   1      -6.584   3.283 131.549  0.00  0.00    -0.291 OA
ATOM      2  C   LIG A   1      -7.185   3.269 130.480  0.00  0.00    +0.174 C 
ENDROOT
BRANCH   2   3
ATOM      3  C   LIG A   1      -8.482   4.023 130.369  0.00  0.00    +0.060 A 
ATOM      4  C   LIG A   1      -8.563   5.411 130.134  0.00  0.00    +0.141 A 
ATOM      5  C   LIG A   1      -9.826   5.987 129.876  0.00  0.00    +0.059 A 
ATOM      6  C   LIG A   1     -10.012   7.320 129.311  0.00  0.00    +0.015 C 
ATOM      7  C   LIG A   1     -11.209   7.898 129.397  0.00  0.00    +0.020 C 
ATOM      8  C   LIG A   1     -12.432   7.155 129.863  0.00  0.00    +0.123 C 
ATOM      9  C   LIG A   1     -13.485   7.341 128.766  0.00  0.00    +0.060 C 
ATOM     10  C   LIG A   1     -12.955   7.696 131.196  0.00  0.00    +0.060 C 
ATOM     11  O   LIG A   1     -12.258   5.728 129.990  0.00  0.00    -0.481 OA
ATOM     12  C   LIG A   1     -10.987   5.228 130.092  0.00  0.00    +0.132 A 
ATOM     13  C   LIG A   1     -10.904   3.873 130.407  0.00  0.00    +0.047 A 
ATOM     14  C   LIG A   1      -9.656   3.261 130.511  0.00  0.00    +0.019 A 
BRANCH   4  15
ATOM     15  O   LIG A   1      -7.372   6.083 130.202  0.00  0.00    -0.494 OA
ATOM     16  C   LIG A   1      -7.008   6.817 131.366  0.00  0.00    +0.277 C 
ENDBRANCH   4  15
ENDBRANCH   2   3
BRANCH   2  17
ATOM     17  C   LIG A   1      -6.703   2.421 129.318  0.00  0.00    +0.159 C 
BRANCH  17  18
ATOM     18  C   LIG A   1      -6.836   3.085 127.962  0.00  0.00    +0.171 C 
ATOM     19  O   LIG A   1      -6.238   4.117 127.693  0.00  0.00    -0.292 OA
BRANCH  18  20
ATOM     20  C   LIG A   1      -7.757   2.500 126.939  0.00  0.00    +0.021 A 
ATOM     21  C   LIG A   1      -7.846   3.013 125.640  0.00  0.00    +0.060 A 
ATOM     22  C   LIG A   1      -8.664   2.361 124.741  0.00  0.00    +0.167 A 
ATOM     23  C   LIG A   1      -9.377   1.237 125.085  0.00  0.00    +0.166 A 
ATOM     24  O   LIG A   1     -10.091   0.737 124.041  0.00  0.00    -0.453 OA
ATOM     25  C   LIG A   1      -9.753   1.682 123.003  0.00  0.00    +0.466 C 
ATOM     26  O   LIG A   1      -8.851   2.717 123.441  0.00  0.00    -0.453 OA
ATOM     27  C   LIG A   1      -9.330   0.711 126.356  0.00  0.00    +0.050 A 
ATOM     28  C   LIG A   1      -8.507   1.350 127.293  0.00  0.00    +0.015 A 
ENDBRANCH  18  20
ENDBRANCH  17  18
ENDBRANCH   2  17
TORSDOF 5
ENDMDL
MODEL 6
REMARK VINA RESULT:      -7.8      7.579      9.529
REMARK  Name = NuBBE_1324
REMARK  8 active torsions:
REMARK  status: ('A' for Active; 'I' for Inactive)
REMARK    1  A    between atoms: C_2  and  C_3
REMARK    2  A    between atoms: C_2  and  C_17
REMARK    3  A    between atoms: C_4  and  O_5
REMARK    4  A    between atoms: O_5  and  C_6
REMARK    5  A    between atoms: C_10  and  C_11
REMARK    6  A    between atoms: C_10  and  C_12
REMARK    7  A    between atoms: C_17  and  C_18
REMARK    8  A    between atoms: C_18  and  C_19
REMARK                            x       y       z     vdW  Elec       q    Type
REMARK                         _______ _______ _______ _____ _____    ______ ____
ROOT
ATOM      1  O   LIG A   1      -8.823   4.673 133.629  0.00  0.00    -0.291 OA
ATOM      2  C   LIG A   1      -8.606   4.484 132.437  0.00  0.00    +0.174 C 
ENDROOT
BRANCH   2   3
ATOM      3  C   LIG A   1      -7.329   5.012 131.842  0.00  0.00    +0.060 A 
ATOM      4  C   LIG A   1      -6.237   4.197 131.481  0.00  0.00    +0.141 A 
ATOM      5  C   LIG A   1      -5.160   4.772 130.773  0.00  0.00    +0.059 A 
ATOM      6  C   LIG A   1      -4.140   3.998 130.072  0.00  0.00    +0.015 C 
ATOM      7  C   LIG A   1      -3.007   4.597 129.708  0.00  0.00    +0.020 C 
ATOM      8  C   LIG A   1      -2.818   6.087 129.802  0.00  0.00    +0.123 C 
ATOM      9  C   LIG A   1      -2.384   6.547 128.406  0.00  0.00    +0.060 C 
ATOM     10  C   LIG A   1      -1.754   6.462 130.838  0.00  0.00    +0.060 C 
ATOM     11  O   LIG A   1      -4.019   6.830 130.095  0.00  0.00    -0.481 OA
ATOM     12  C   LIG A   1      -5.081   6.168 130.653  0.00  0.00    +0.132 A 
ATOM     13  C   LIG A   1      -6.127   6.980 131.087  0.00  0.00    +0.047 A 
ATOM     14  C   LIG A   1      -7.265   6.404 131.647  0.00  0.00    +0.019 A 
BRANCH   4  15
ATOM     15  O   LIG A   1      -6.328   2.891 131.885  0.00  0.00    -0.494 OA
ATOM     16  C   LIG A   1      -5.698   2.447 133.081  0.00  0.00    +0.277 C 
ENDBRANCH   4  15
ENDBRANCH   2   3
BRANCH   2  17
ATOM     17  C   LIG A   1      -9.644   3.833 131.542  0.00  0.00    +0.159 C 
BRANCH  17  18
ATOM     18  C   LIG A   1      -9.901   4.570 130.243  0.00  0.00    +0.171 C 
ATOM     19  O   LIG A   1      -9.407   4.198 129.188  0.00  0.00    -0.292 OA
BRANCH  18  20
ATOM     20  C   LIG A   1     -10.734   5.812 130.250  0.00  0.00    +0.021 A 
ATOM     21  C   LIG A   1     -10.755   6.698 129.166  0.00  0.00    +0.060 A 
ATOM     22  C   LIG A   1     -11.613   7.775 129.229  0.00  0.00    +0.167 A 
ATOM     23  C   LIG A   1     -12.436   7.993 130.309  0.00  0.00    +0.166 A 
ATOM     24  O   LIG A   1     -13.221   9.091 130.148  0.00  0.00    -0.453 OA
ATOM     25  C   LIG A   1     -12.791   9.547 128.848  0.00  0.00    +0.466 C 
ATOM     26  O   LIG A   1     -11.768   8.718 128.260  0.00  0.00    -0.453 OA
ATOM     27  C   LIG A   1     -12.433   7.155 131.400  0.00  0.00    +0.050 A 
ATOM     28  C   LIG A   1     -11.573   6.049 131.367  0.00  0.00    +0.015 A 
ENDBRANCH  18  20
ENDBRANCH  17  18
ENDBRANCH   2  17
TORSDOF 5
ENDMDL
MODEL 7
REMARK VINA RESULT:      -7.8      5.104      7.952
REMARK  Name = NuBBE_1324
REMARK  8 active torsions:
REMARK  status: ('A' for Active; 'I' for Inactive)
REMARK    1  A    between atoms: C_2  and  C_3
REMARK    2  A    between atoms: C_2  and  C_17
REMARK    3  A    between atoms: C_4  and  O_5
REMARK    4  A    between atoms: O_5  and  C_6
REMARK    5  A    between atoms: C_10  and  C_11
REMARK    6  A    between atoms: C_10  and  C_12
REMARK    7  A    between atoms: C_17  and  C_18
REMARK    8  A    between atoms: C_18  and  C_19
REMARK                            x       y       z     vdW  Elec       q    Type
REMARK                         _______ _______ _______ _____ _____    ______ ____
ROOT
ATOM      1  O   LIG A   1      -9.328   2.993 133.262  0.00  0.00    -0.291 OA
ATOM      2  C   LIG A   1      -8.624   3.242 132.289  0.00  0.00    +0.174 C 
ENDROOT
BRANCH   2   3
ATOM      3  C   LIG A   1      -8.345   2.146 131.298  0.00  0.00    +0.060 A 
ATOM      4  C   LIG A   1      -7.974   0.836 131.663  0.00  0.00    +0.141 A 
ATOM      5  C   LIG A   1      -7.906  -0.158 130.663  0.00  0.00    +0.059 A 
ATOM      6  C   LIG A   1      -7.852  -1.590 130.941  0.00  0.00    +0.015 C 
ATOM      7  C   LIG A   1      -7.474  -2.425 129.974  0.00  0.00    +0.020 C 
ATOM      8  C   LIG A   1      -7.302  -1.978 128.547  0.00  0.00    +0.123 C 
ATOM      9  C   LIG A   1      -8.168  -2.919 127.702  0.00  0.00    +0.060 C 
ATOM     10  C   LIG A   1      -5.841  -2.057 128.096  0.00  0.00    +0.060 C 
ATOM     11  O   LIG A   1      -7.792  -0.651 128.267  0.00  0.00    -0.481 OA
ATOM     12  C   LIG A   1      -7.971   0.217 129.312  0.00  0.00    +0.132 A 
ATOM     13  C   LIG A   1      -8.256   1.533 128.952  0.00  0.00    +0.047 A 
ATOM     14  C   LIG A   1      -8.479   2.489 129.940  0.00  0.00    +0.019 A 
BRANCH   4  15
ATOM     15  O   LIG A   1      -7.690   0.661 132.991  0.00  0.00    -0.494 OA
ATOM     16  C   LIG A   1      -6.345   0.606 133.453  0.00  0.00    +0.277 C 
ENDBRANCH   4  15
ENDBRANCH   2   3
BRANCH   2  17
ATOM     17  C   LIG A   1      -7.949   4.592 132.132  0.00  0.00    +0.159 C 
BRANCH  17  18
ATOM     18  C   LIG A   1      -8.783   5.766 132.607  0.00  0.00    +0.171 C 
ATOM     19  O   LIG A   1      -8.736   6.159 133.764  0.00  0.00    -0.292 OA
BRANCH  18  20
ATOM     20  C   LIG A   1      -9.726   6.435 131.658  0.00  0.00    +0.021 A 
ATOM     21  C   LIG A   1      -9.287   7.021 130.465  0.00  0.00    +0.060 A 
ATOM     22  C   LIG A   1     -10.238   7.545 129.614  0.00  0.00    +0.167 A 
ATOM     23  C   LIG A   1     -11.581   7.503 129.904  0.00  0.00    +0.166 A 
ATOM     24  O   LIG A   1     -12.342   8.045 128.916  0.00  0.00    -0.453 OA
ATOM     25  C   LIG A   1     -11.322   8.444 127.975  0.00  0.00    +0.466 C 
ATOM     26  O   LIG A   1      -9.985   8.133 128.414  0.00  0.00    -0.453 OA
ATOM     27  C   LIG A   1     -12.052   6.950 131.074  0.00  0.00    +0.050 A 
ATOM     28  C   LIG A   1     -11.111   6.407 131.959  0.00  0.00    +0.015 A 
ENDBRANCH  18  20
ENDBRANCH  17  18
ENDBRANCH   2  17
TORSDOF 5
ENDMDL
MODEL 8
REMARK VINA RESULT:      -7.8      5.073      7.275
REMARK  Name = NuBBE_1324
REMARK  8 active torsions:
REMARK  status: ('A' for Active; 'I' for Inactive)
REMARK    1  A    between atoms: C_2  and  C_3
REMARK    2  A    between atoms: C_2  and  C_17
REMARK    3  A    between atoms: C_4  and  O_5
REMARK    4  A    between atoms: O_5  and  C_6
REMARK    5  A    between atoms: C_10  and  C_11
REMARK    6  A    between atoms: C_10  and  C_12
REMARK    7  A    between atoms: C_17  and  C_18
REMARK    8  A    between atoms: C_18  and  C_19
REMARK                            x       y       z     vdW  Elec       q    Type
REMARK                         _______ _______ _______ _____ _____    ______ ____
ROOT
ATOM      1  O   LIG A   1      -4.951   1.563 126.035  0.00  0.00    -0.291 OA
ATOM      2  C   LIG A   1      -4.933   2.790 126.048  0.00  0.00    +0.174 C 
ENDROOT
BRANCH   2   3
ATOM      3  C   LIG A   1      -4.574   3.494 127.328  0.00  0.00    +0.060 A 
ATOM      4  C   LIG A   1      -3.374   4.208 127.519  0.00  0.00    +0.141 A 
ATOM      5  C   LIG A   1      -3.215   4.975 128.694  0.00  0.00    +0.059 A 
ATOM      6  C   LIG A   1      -2.186   5.995 128.868  0.00  0.00    +0.015 C 
ATOM      7  C   LIG A   1      -1.910   6.435 130.095  0.00  0.00    +0.020 C 
ATOM      8  C   LIG A   1      -2.758   6.082 131.287  0.00  0.00    +0.123 C 
ATOM      9  C   LIG A   1      -3.152   7.412 131.936  0.00  0.00    +0.060 C 
ATOM     10  C   LIG A   1      -1.997   5.208 132.289  0.00  0.00    +0.060 C 
ATOM     11  O   LIG A   1      -4.003   5.427 130.968  0.00  0.00    -0.481 OA
ATOM     12  C   LIG A   1      -4.134   4.824 129.744  0.00  0.00    +0.132 A 
ATOM     13  C   LIG A   1      -5.281   4.049 129.582  0.00  0.00    +0.047 A 
ATOM     14  C   LIG A   1      -5.521   3.414 128.366  0.00  0.00    +0.019 A 
BRANCH   4  15
ATOM     15  O   LIG A   1      -2.446   4.065 126.522  0.00  0.00    -0.494 OA
ATOM     16  C   LIG A   1      -1.520   2.985 126.530  0.00  0.00    +0.277 C 
ENDBRANCH   4  15
ENDBRANCH   2   3
BRANCH   2  17
ATOM     17  C   LIG A   1      -5.368   3.595 124.838  0.00  0.00    +0.159 C 
BRANCH  17  18
ATOM     18  C   LIG A   1      -6.584   3.039 124.123  0.00  0.00    +0.171 C 
ATOM     19  O   LIG A   1      -7.377   2.300 124.689  0.00  0.00    -0.292 OA
BRANCH  18  20
ATOM     20  C   LIG A   1      -6.801   3.356 122.677  0.00  0.00    +0.021 A 
ATOM     21  C   LIG A   1      -8.075   3.343 122.098  0.00  0.00    +0.060 A 
ATOM     22  C   LIG A   1      -8.188   3.725 120.777  0.00  0.00    +0.167 A 
ATOM     23  C   LIG A   1      -7.100   4.115 120.033  0.00  0.00    +0.166 A 
ATOM     24  O   LIG A   1      -7.441   4.481 118.769  0.00  0.00    -0.453 OA
ATOM     25  C   LIG A   1      -8.868   4.267 118.799  0.00  0.00    +0.466 C 
ATOM     26  O   LIG A   1      -9.349   3.784 120.070  0.00  0.00    -0.453 OA
ATOM     27  C   LIG A   1      -5.829   4.125 120.562  0.00  0.00    +0.050 A 
ATOM     28  C   LIG A   1      -5.680   3.744 121.902  0.00  0.00    +0.015 A 
ENDBRANCH  18  20
ENDBRANCH  17  18
ENDBRANCH   2  17
TORSDOF 5
ENDMDL
MODEL 9
REMARK VINA RESULT:      -7.7      1.804      2.998
REMARK  Name = NuBBE_1324
REMARK  8 active torsions:
REMARK  status: ('A' for Active; 'I' for Inactive)
REMARK    1  A    between atoms: C_2  and  C_3
REMARK    2  A    between atoms: C_2  and  C_17
REMARK    3  A    between atoms: C_4  and  O_5
REMARK    4  A    between atoms: O_5  and  C_6
REMARK    5  A    between atoms: C_10  and  C_11
REMARK    6  A    between atoms: C_10  and  C_12
REMARK    7  A    between atoms: C_17  and  C_18
REMARK    8  A    between atoms: C_18  and  C_19
REMARK                            x       y       z     vdW  Elec       q    Type
REMARK                         _______ _______ _______ _____ _____    ______ ____
ROOT
ATOM      1  O   LIG A   1      -6.582  -1.046 122.583  0.00  0.00    -0.291 OA
ATOM      2  C   LIG A   1      -7.052  -0.359 123.484  0.00  0.00    +0.174 C 
ENDROOT
BRANCH   2   3
ATOM      3  C   LIG A   1      -6.944  -0.853 124.901  0.00  0.00    +0.060 A 
ATOM      4  C   LIG A   1      -7.916  -1.662 125.524  0.00  0.00    +0.141 A 
ATOM      5  C   LIG A   1      -7.635  -2.212 126.794  0.00  0.00    +0.059 A 
ATOM      6  C   LIG A   1      -8.397  -3.301 127.397  0.00  0.00    +0.015 C 
ATOM      7  C   LIG A   1      -8.269  -3.537 128.701  0.00  0.00    +0.020 C 
ATOM      8  C   LIG A   1      -7.216  -2.867 129.542  0.00  0.00    +0.123 C 
ATOM      9  C   LIG A   1      -6.449  -3.995 130.239  0.00  0.00    +0.060 C 
ATOM     10  C   LIG A   1      -7.830  -1.924 130.580  0.00  0.00    +0.060 C 
ATOM     11  O   LIG A   1      -6.224  -2.133 128.793  0.00  0.00    -0.481 OA
ATOM     12  C   LIG A   1      -6.516  -1.757 127.509  0.00  0.00    +0.132 A 
ATOM     13  C   LIG A   1      -5.598  -0.889 126.920  0.00  0.00    +0.047 A 
ATOM     14  C   LIG A   1      -5.791  -0.465 125.607  0.00  0.00    +0.019 A 
BRANCH   4  15
ATOM     15  O   LIG A   1      -9.079  -1.822 124.819  0.00  0.00    -0.494 OA
ATOM     16  C   LIG A   1      -9.296  -2.974 124.012  0.00  0.00    +0.277 C 
ENDBRANCH   4  15
ENDBRANCH   2   3
BRANCH   2  17
ATOM     17  C   LIG A   1      -7.827   0.910 123.182  0.00  0.00    +0.159 C 
BRANCH  17  18
ATOM     18  C   LIG A   1      -6.995   2.177 123.235  0.00  0.00    +0.171 C 
ATOM     19  O   LIG A   1      -6.424   2.609 122.244  0.00  0.00    -0.292 OA
BRANCH  18  20
ATOM     20  C   LIG A   1      -6.823   2.895 124.536  0.00  0.00    +0.021 A 
ATOM     21  C   LIG A   1      -7.816   2.892 125.522  0.00  0.00    +0.060 A 
ATOM     22  C   LIG A   1      -7.537   3.515 126.721  0.00  0.00    +0.167 A 
ATOM     23  C   LIG A   1      -6.328   4.123 126.965  0.00  0.00    +0.166 A 
ATOM     24  O   LIG A   1      -6.255   4.644 128.219  0.00  0.00    -0.453 OA
ATOM     25  C   LIG A   1      -7.561   4.304 128.732  0.00  0.00    +0.466 C 
ATOM     26  O   LIG A   1      -8.381   3.591 127.785  0.00  0.00    -0.453 OA
ATOM     27  C   LIG A   1      -5.333   4.161 126.016  0.00  0.00    +0.050 A 
ATOM     28  C   LIG A   1      -5.584   3.535 124.787  0.00  0.00    +0.015 A 
ENDBRANCH  18  20
ENDBRANCH  17  18
ENDBRANCH   2  17
TORSDOF 5
ENDMDL
