MODEL 1
REMARK VINA RESULT:      -7.5      0.000      0.000
REMARK  Name = NuBBE_650
REMARK  8 active torsions:
REMARK  status: ('A' for Active; 'I' for Inactive)
REMARK    1  A    between atoms: C_6  and  C_7
REMARK    2  A    between atoms: C_9  and  O_11
REMARK    3  A    between atoms: O_11  and  C_12
REMARK    4  A    between atoms: C_12  and  C_13
REMARK    5  A    between atoms: C_13  and  C_14
REMARK    6  A    between atoms: C_15  and  C_16
REMARK    7  A    between atoms: C_28  and  C_29
REMARK    8  A    between atoms: C_29  and  O_30
REMARK                            x       y       z     vdW  Elec       q    Type
REMARK                         _______ _______ _______ _____ _____    ______ ____
ROOT
ATOM      1  O   LIG A   1     -10.849   0.196 122.442  0.00  0.00    -0.288 OA
ATOM      2  C   LIG A   1      -9.803   0.637 122.892  0.00  0.00    +0.203 C 
ATOM      3  C   LIG A   1      -9.376   2.016 122.657  0.00  0.00    +0.096 C 
ATOM      4  C   LIG A   1      -8.218   2.016 123.312  0.00  0.00    +0.131 C 
ATOM      5  O   LIG A   1      -7.696   0.780 123.700  0.00  0.00    -0.478 OA
ATOM      6  C   LIG A   1      -8.833  -0.084 123.827  0.00  0.00    +0.172 C 
ATOM      7  C   LIG A   1      -8.562  -1.471 123.252  0.00  0.00    +0.064 C 
ATOM      8  C   LIG A   1      -9.296  -0.135 125.311  0.00  0.00    +0.101 C 
ATOM      9  C   LIG A   1      -8.316   0.225 126.497  0.00  0.00    +0.192 C 
ATOM     10  C   LIG A   1      -8.598   1.642 127.114  0.00  0.00    +0.111 C 
ATOM     11  C   LIG A   1      -7.821   2.840 126.552  0.00  0.00    +0.211 C 
ATOM     12  O   LIG A   1      -7.989   3.903 127.488  0.00  0.00    -0.453 OA
ATOM     13  C   LIG A   1      -8.101   3.361 128.733  0.00  0.00    +0.336 C 
ATOM     14  C   LIG A   1      -8.294   1.892 128.562  0.00  0.00    +0.040 C 
ATOM     15  C   LIG A   1      -8.205   1.065 129.609  0.00  0.00    +0.020 C 
ATOM     16  O   LIG A   1      -8.097   3.974 129.775  0.00  0.00    -0.245 OA
ATOM     17  C   LIG A   1      -8.373   3.296 125.228  0.00  0.00    +0.027 C 
ATOM     18  C   LIG A   1      -7.666   3.113 124.089  0.00  0.00    +0.019 C 
ENDROOT
BRANCH   9  19
ATOM     19  O   LIG A   1      -6.909   0.070 126.185  0.00  0.00    -0.457 OA
BRANCH  19  20
ATOM     20  C   LIG A   1      -6.341  -1.159 126.333  0.00  0.00    +0.335 C 
ATOM     21  O   LIG A   1      -5.750  -1.762 125.448  0.00  0.00    -0.245 OA
BRANCH  20  22
ATOM     22  C   LIG A   1      -6.433  -1.676 127.741  0.00  0.00    +0.029 C 
ATOM     23  C   LIG A   1      -5.330  -1.209 128.659  0.00  0.00    +0.051 C 
ATOM     24  C   LIG A   1      -7.349  -2.544 128.217  0.00  0.00    -0.020 C 
ATOM     25  C   LIG A   1      -8.416  -3.289 127.491  0.00  0.00    +0.035 C 
ENDBRANCH  20  22
ENDBRANCH  19  20
ENDBRANCH   9  19
BRANCH  18  26
ATOM     26  C   LIG A   1      -6.184   3.368 123.905  0.00  0.00    +0.194 C 
BRANCH  26  27
ATOM     27  O   LIG A   1      -5.908   4.599 123.245  0.00  0.00    -0.390 OA
ATOM     28  H   LIG A   1      -6.086   5.322 123.873  0.00  0.00    +0.210 HD
ENDBRANCH  26  27
ENDBRANCH  18  26
TORSDOF 5
ENDMDL
MODEL 2
REMARK VINA RESULT:      -7.2      1.931      4.832
REMARK  Name = NuBBE_650
REMARK  8 active torsions:
REMARK  status: ('A' for Active; 'I' for Inactive)
REMARK    1  A    between atoms: C_6  and  C_7
REMARK    2  A    between atoms: C_9  and  O_11
REMARK    3  A    between atoms: O_11  and  C_12
REMARK    4  A    between atoms: C_12  and  C_13
REMARK    5  A    between atoms: C_13  and  C_14
REMARK    6  A    between atoms: C_15  and  C_16
REMARK    7  A    between atoms: C_28  and  C_29
REMARK    8  A    between atoms: C_29  and  O_30
REMARK                            x       y       z     vdW  Elec       q    Type
REMARK                         _______ _______ _______ _____ _____    ______ ____
ROOT
ATOM      1  O   LIG A   1      -6.239   5.012 126.578  0.00  0.00    -0.288 OA
ATOM      2  C   LIG A   1      -7.003   4.104 126.287  0.00  0.00    +0.203 C 
ATOM      3  C   LIG A   1      -7.778   4.109 125.046  0.00  0.00    +0.096 C 
ATOM      4  C   LIG A   1      -8.442   2.964 125.182  0.00  0.00    +0.131 C 
ATOM      5  O   LIG A   1      -8.427   2.354 126.438  0.00  0.00    -0.478 OA
ATOM      6  C   LIG A   1      -7.215   2.804 127.059  0.00  0.00    +0.172 C 
ATOM      7  C   LIG A   1      -7.422   3.152 128.530  0.00  0.00    +0.064 C 
ATOM      8  C   LIG A   1      -6.091   1.748 126.850  0.00  0.00    +0.101 C 
ATOM      9  C   LIG A   1      -6.425   0.234 126.539  0.00  0.00    +0.192 C 
ATOM     10  C   LIG A   1      -6.194  -0.145 125.032  0.00  0.00    +0.111 C 
ATOM     11  C   LIG A   1      -7.386  -0.034 124.071  0.00  0.00    +0.211 C 
ATOM     12  O   LIG A   1      -7.020  -0.749 122.893  0.00  0.00    -0.453 OA
ATOM     13  C   LIG A   1      -6.203  -1.778 123.256  0.00  0.00    +0.336 C 
ATOM     14  C   LIG A   1      -5.804  -1.549 124.674  0.00  0.00    +0.040 C 
ATOM     15  C   LIG A   1      -5.192  -2.509 125.376  0.00  0.00    +0.020 C 
ATOM     16  O   LIG A   1      -5.834  -2.676 122.536  0.00  0.00    -0.245 OA
ATOM     17  C   LIG A   1      -7.659   1.395 123.679  0.00  0.00    +0.027 C 
ATOM     18  C   LIG A   1      -8.770   2.027 124.121  0.00  0.00    +0.019 C 
ENDROOT
BRANCH   9  19
ATOM     19  O   LIG A   1      -7.734  -0.199 126.984  0.00  0.00    -0.457 OA
BRANCH  19  20
ATOM     20  C   LIG A   1      -7.837  -0.824 128.191  0.00  0.00    +0.335 C 
ATOM     21  O   LIG A   1      -8.015  -0.250 129.256  0.00  0.00    -0.245 OA
BRANCH  20  22
ATOM     22  C   LIG A   1      -7.802  -2.321 128.075  0.00  0.00    +0.029 C 
ATOM     23  C   LIG A   1      -6.864  -3.007 129.037  0.00  0.00    +0.051 C 
ATOM     24  C   LIG A   1      -8.465  -3.070 127.171  0.00  0.00    -0.020 C 
ATOM     25  C   LIG A   1      -9.299  -2.640 126.013  0.00  0.00    +0.035 C 
ENDBRANCH  20  22
ENDBRANCH  19  20
ENDBRANCH   9  19
BRANCH  18  26
ATOM     26  C   LIG A   1     -10.170   1.450 124.165  0.00  0.00    +0.194 C 
BRANCH  26  27
ATOM     27  O   LIG A   1     -10.400   0.628 125.305  0.00  0.00    -0.390 OA
ATOM     28  H   LIG A   1     -11.173   0.067 125.118  0.00  0.00    +0.210 HD
ENDBRANCH  26  27
ENDBRANCH  18  26
TORSDOF 5
ENDMDL
MODEL 3
REMARK VINA RESULT:      -7.0      4.040      6.814
REMARK  Name = NuBBE_650
REMARK  8 active torsions:
REMARK  status: ('A' for Active; 'I' for Inactive)
REMARK    1  A    between atoms: C_6  and  C_7
REMARK    2  A    between atoms: C_9  and  O_11
REMARK    3  A    between atoms: O_11  and  C_12
REMARK    4  A    between atoms: C_12  and  C_13
REMARK    5  A    between atoms: C_13  and  C_14
REMARK    6  A    between atoms: C_15  and  C_16
REMARK    7  A    between atoms: C_28  and  C_29
REMARK    8  A    between atoms: C_29  and  O_30
REMARK                            x       y       z     vdW  Elec       q    Type
REMARK                         _______ _______ _______ _____ _____    ______ ____
ROOT
ATOM      1  O   LIG A   1      -1.662   3.489 126.773  0.00  0.00    -0.288 OA
ATOM      2  C   LIG A   1      -2.812   3.899 126.808  0.00  0.00    +0.203 C 
ATOM      3  C   LIG A   1      -3.816   3.483 125.829  0.00  0.00    +0.096 C 
ATOM      4  C   LIG A   1      -4.864   4.179 126.261  0.00  0.00    +0.131 C 
ATOM      5  O   LIG A   1      -4.628   5.189 127.197  0.00  0.00    -0.478 OA
ATOM      6  C   LIG A   1      -3.431   4.794 127.880  0.00  0.00    +0.172 C 
ATOM      7  C   LIG A   1      -2.493   5.974 128.115  0.00  0.00    +0.064 C 
ATOM      8  C   LIG A   1      -3.795   4.052 129.199  0.00  0.00    +0.101 C 
ATOM      9  C   LIG A   1      -5.197   4.252 129.901  0.00  0.00    +0.192 C 
ATOM     10  C   LIG A   1      -6.166   3.034 129.687  0.00  0.00    +0.111 C 
ATOM     11  C   LIG A   1      -7.132   3.083 128.495  0.00  0.00    +0.211 C 
ATOM     12  O   LIG A   1      -8.107   2.069 128.727  0.00  0.00    -0.453 OA
ATOM     13  C   LIG A   1      -8.286   1.949 130.073  0.00  0.00    +0.336 C 
ATOM     14  C   LIG A   1      -7.189   2.710 130.736  0.00  0.00    +0.040 C 
ATOM     15  C   LIG A   1      -7.230   2.966 132.048  0.00  0.00    +0.020 C 
ATOM     16  O   LIG A   1      -9.148   1.299 130.617  0.00  0.00    -0.245 OA
ATOM     17  C   LIG A   1      -6.437   2.770 127.197  0.00  0.00    +0.027 C 
ATOM     18  C   LIG A   1      -6.249   3.737 126.269  0.00  0.00    +0.019 C 
ENDROOT
BRANCH   9  19
ATOM     19  O   LIG A   1      -5.860   5.500 129.580  0.00  0.00    -0.457 OA
BRANCH  19  20
ATOM     20  C   LIG A   1      -5.661   6.571 130.399  0.00  0.00    +0.335 C 
ATOM     21  O   LIG A   1      -5.011   7.563 130.098  0.00  0.00    -0.245 OA
BRANCH  20  22
ATOM     22  C   LIG A   1      -6.407   6.457 131.698  0.00  0.00    +0.029 C 
ATOM     23  C   LIG A   1      -5.549   6.115 132.891  0.00  0.00    +0.051 C 
ATOM     24  C   LIG A   1      -7.740   6.565 131.867  0.00  0.00    -0.020 C 
ATOM     25  C   LIG A   1      -8.817   6.714 130.848  0.00  0.00    +0.035 C 
ENDBRANCH  20  22
ENDBRANCH  19  20
ENDBRANCH   9  19
BRANCH  18  26
ATOM     26  C   LIG A   1      -7.269   4.766 125.829  0.00  0.00    +0.194 C 
BRANCH  26  27
ATOM     27  O   LIG A   1      -6.700   5.825 125.066  0.00  0.00    -0.390 OA
ATOM     28  H   LIG A   1      -6.886   6.661 125.529  0.00  0.00    +0.210 HD
ENDBRANCH  26  27
ENDBRANCH  18  26
TORSDOF 5
ENDMDL
MODEL 4
REMARK VINA RESULT:      -7.0      2.221      3.999
REMARK  Name = NuBBE_650
REMARK  8 active torsions:
REMARK  status: ('A' for Active; 'I' for Inactive)
REMARK    1  A    between atoms: C_6  and  C_7
REMARK    2  A    between atoms: C_9  and  O_11
REMARK    3  A    between atoms: O_11  and  C_12
REMARK    4  A    between atoms: C_12  and  C_13
REMARK    5  A    between atoms: C_13  and  C_14
REMARK    6  A    between atoms: C_15  and  C_16
REMARK    7  A    between atoms: C_28  and  C_29
REMARK    8  A    between atoms: C_29  and  O_30
REMARK                            x       y       z     vdW  Elec       q    Type
REMARK                         _______ _______ _______ _____ _____    ______ ____
ROOT
ATOM      1  O   LIG A   1      -9.013   4.572 125.473  0.00  0.00    -0.288 OA
ATOM      2  C   LIG A   1      -8.049   3.839 125.637  0.00  0.00    +0.203 C 
ATOM      3  C   LIG A   1      -7.027   4.114 126.646  0.00  0.00    +0.096 C 
ATOM      4  C   LIG A   1      -6.213   3.082 126.439  0.00  0.00    +0.131 C 
ATOM      5  O   LIG A   1      -6.400   2.335 125.274  0.00  0.00    -0.478 OA
ATOM      6  C   LIG A   1      -7.783   2.508 124.937  0.00  0.00    +0.172 C 
ATOM      7  C   LIG A   1      -7.984   2.710 123.438  0.00  0.00    +0.064 C 
ATOM      8  C   LIG A   1      -8.616   1.317 125.493  0.00  0.00    +0.101 C 
ATOM      9  C   LIG A   1      -7.948  -0.076 125.827  0.00  0.00    +0.192 C 
ATOM     10  C   LIG A   1      -7.756  -0.308 127.369  0.00  0.00    +0.111 C 
ATOM     11  C   LIG A   1      -6.419   0.105 127.998  0.00  0.00    +0.211 C 
ATOM     12  O   LIG A   1      -6.369  -0.517 129.280  0.00  0.00    -0.453 OA
ATOM     13  C   LIG A   1      -7.044  -1.699 129.207  0.00  0.00    +0.336 C 
ATOM     14  C   LIG A   1      -7.790  -1.705 127.916  0.00  0.00    +0.040 C 
ATOM     15  C   LIG A   1      -8.359  -2.826 127.460  0.00  0.00    +0.020 C 
ATOM     16  O   LIG A   1      -7.068  -2.554 130.060  0.00  0.00    -0.245 OA
ATOM     17  C   LIG A   1      -6.331   1.595 128.202  0.00  0.00    +0.027 C 
ATOM     18  C   LIG A   1      -5.485   2.341 127.455  0.00  0.00    +0.019 C 
ENDROOT
BRANCH   9  19
ATOM     19  O   LIG A   1      -6.718  -0.342 125.109  0.00  0.00    -0.457 OA
BRANCH  19  20
ATOM     20  C   LIG A   1      -6.789  -0.997 123.916  0.00  0.00    +0.335 C 
ATOM     21  O   LIG A   1      -6.762  -0.451 122.822  0.00  0.00    -0.245 OA
BRANCH  20  22
ATOM     22  C   LIG A   1      -6.811  -2.491 124.074  0.00  0.00    +0.029 C 
ATOM     23  C   LIG A   1      -5.459  -3.123 124.296  0.00  0.00    +0.051 C 
ATOM     24  C   LIG A   1      -7.892  -3.291 123.972  0.00  0.00    -0.020 C 
ATOM     25  C   LIG A   1      -9.289  -2.951 123.583  0.00  0.00    +0.035 C 
ENDBRANCH  20  22
ENDBRANCH  19  20
ENDBRANCH   9  19
BRANCH  18  26
ATOM     26  C   LIG A   1      -4.050   1.995 127.115  0.00  0.00    +0.194 C 
BRANCH  26  27
ATOM     27  O   LIG A   1      -3.449   2.926 126.221  0.00  0.00    -0.390 OA
ATOM     28  H   LIG A   1      -2.521   2.660 126.092  0.00  0.00    +0.210 HD
ENDBRANCH  26  27
ENDBRANCH  18  26
TORSDOF 5
ENDMDL
MODEL 5
REMARK VINA RESULT:      -6.8      2.033      5.813
REMARK  Name = NuBBE_650
REMARK  8 active torsions:
REMARK  status: ('A' for Active; 'I' for Inactive)
REMARK    1  A    between atoms: C_6  and  C_7
REMARK    2  A    between atoms: C_9  and  O_11
REMARK    3  A    between atoms: O_11  and  C_12
REMARK    4  A    between atoms: C_12  and  C_13
REMARK    5  A    between atoms: C_13  and  C_14
REMARK    6  A    between atoms: C_15  and  C_16
REMARK    7  A    between atoms: C_28  and  C_29
REMARK    8  A    between atoms: C_29  and  O_30
REMARK                            x       y       z     vdW  Elec       q    Type
REMARK                         _______ _______ _______ _____ _____    ______ ____
ROOT
ATOM      1  O   LIG A   1      -8.100  -1.717 130.127  0.00  0.00    -0.288 OA
ATOM      2  C   LIG A   1      -7.628  -1.752 129.000  0.00  0.00    +0.203 C 
ATOM      3  C   LIG A   1      -7.774  -2.922 128.134  0.00  0.00    +0.096 C 
ATOM      4  C   LIG A   1      -7.108  -2.501 127.062  0.00  0.00    +0.131 C 
ATOM      5  O   LIG A   1      -6.322  -1.355 127.198  0.00  0.00    -0.478 OA
ATOM      6  C   LIG A   1      -6.924  -0.613 128.267  0.00  0.00    +0.172 C 
ATOM      7  C   LIG A   1      -5.880  -0.016 129.206  0.00  0.00    +0.064 C 
ATOM      8  C   LIG A   1      -7.886   0.464 127.687  0.00  0.00    +0.101 C 
ATOM      9  C   LIG A   1      -7.735   0.997 126.206  0.00  0.00    +0.192 C 
ATOM     10  C   LIG A   1      -8.819   0.409 125.232  0.00  0.00    +0.111 C 
ATOM     11  C   LIG A   1      -8.470  -0.865 124.452  0.00  0.00    +0.211 C 
ATOM     12  O   LIG A   1      -9.442  -0.981 123.416  0.00  0.00    -0.453 OA
ATOM     13  C   LIG A   1      -9.814   0.275 123.038  0.00  0.00    +0.336 C 
ATOM     14  C   LIG A   1      -9.275   1.222 124.057  0.00  0.00    +0.040 C 
ATOM     15  C   LIG A   1      -9.282   2.541 123.834  0.00  0.00    +0.020 C 
ATOM     16  O   LIG A   1     -10.499   0.553 122.083  0.00  0.00    -0.245 OA
ATOM     17  C   LIG A   1      -8.565  -2.095 125.316  0.00  0.00    +0.027 C 
ATOM     18  C   LIG A   1      -7.449  -2.770 125.674  0.00  0.00    +0.019 C 
ENDROOT
BRANCH   9  19
ATOM     19  O   LIG A   1      -6.407   0.854 125.646  0.00  0.00    -0.457 OA
BRANCH  19  20
ATOM     20  C   LIG A   1      -5.475   1.808 125.928  0.00  0.00    +0.335 C 
ATOM     21  O   LIG A   1      -4.346   1.575 126.336  0.00  0.00    -0.245 OA
BRANCH  20  22
ATOM     22  C   LIG A   1      -5.945   3.196 125.596  0.00  0.00    +0.029 C 
ATOM     23  C   LIG A   1      -5.808   3.578 124.143  0.00  0.00    +0.051 C 
ATOM     24  C   LIG A   1      -6.402   4.116 126.469  0.00  0.00    -0.020 C 
ATOM     25  C   LIG A   1      -6.465   4.062 127.957  0.00  0.00    +0.035 C 
ENDBRANCH  20  22
ENDBRANCH  19  20
ENDBRANCH   9  19
BRANCH  18  26
ATOM     26  C   LIG A   1      -6.287  -3.123 124.769  0.00  0.00    +0.194 C 
BRANCH  26  27
ATOM     27  O   LIG A   1      -5.326  -2.078 124.662  0.00  0.00    -0.390 OA
ATOM     28  H   LIG A   1      -5.207  -1.878 123.716  0.00  0.00    +0.210 HD
ENDBRANCH  26  27
ENDBRANCH  18  26
TORSDOF 5
ENDMDL
MODEL 6
REMARK VINA RESULT:      -6.6      5.698      9.460
REMARK  Name = NuBBE_650
REMARK  8 active torsions:
REMARK  status: ('A' for Active; 'I' for Inactive)
REMARK    1  A    between atoms: C_6  and  C_7
REMARK    2  A    between atoms: C_9  and  O_11
REMARK    3  A    between atoms: O_11  and  C_12
REMARK    4  A    between atoms: C_12  and  C_13
REMARK    5  A    between atoms: C_13  and  C_14
REMARK    6  A    between atoms: C_15  and  C_16
REMARK    7  A    between atoms: C_28  and  C_29
REMARK    8  A    between atoms: C_29  and  O_30
REMARK                            x       y       z     vdW  Elec       q    Type
REMARK                         _______ _______ _______ _____ _____    ______ ____
ROOT
ATOM      1  O   LIG A   1      -1.632   6.527 134.580  0.00  0.00    -0.288 OA
ATOM      2  C   LIG A   1      -2.321   6.725 133.591  0.00  0.00    +0.203 C 
ATOM      3  C   LIG A   1      -1.855   7.544 132.471  0.00  0.00    +0.096 C 
ATOM      4  C   LIG A   1      -2.919   7.474 131.675  0.00  0.00    +0.131 C 
ATOM      5  O   LIG A   1      -4.102   6.971 132.220  0.00  0.00    -0.478 OA
ATOM      6  C   LIG A   1      -3.685   6.110 133.288  0.00  0.00    +0.172 C 
ATOM      7  C   LIG A   1      -4.564   6.270 134.525  0.00  0.00    +0.064 C 
ATOM      8  C   LIG A   1      -3.625   4.638 132.789  0.00  0.00    +0.101 C 
ATOM      9  C   LIG A   1      -4.447   4.157 131.526  0.00  0.00    +0.192 C 
ATOM     10  C   LIG A   1      -3.550   3.966 130.250  0.00  0.00    +0.111 C 
ATOM     11  C   LIG A   1      -3.406   5.151 129.287  0.00  0.00    +0.211 C 
ATOM     12  O   LIG A   1      -2.860   4.624 128.080  0.00  0.00    -0.453 OA
ATOM     13  C   LIG A   1      -3.310   3.346 127.931  0.00  0.00    +0.336 C 
ATOM     14  C   LIG A   1      -3.936   2.943 129.223  0.00  0.00    +0.040 C 
ATOM     15  C   LIG A   1      -4.669   1.828 129.308  0.00  0.00    +0.020 C 
ATOM     16  O   LIG A   1      -3.173   2.659 126.947  0.00  0.00    -0.245 OA
ATOM     17  C   LIG A   1      -2.451   6.189 129.814  0.00  0.00    +0.027 C 
ATOM     18  C   LIG A   1      -2.906   7.396 130.224  0.00  0.00    +0.019 C 
ENDROOT
BRANCH   9  19
ATOM     19  O   LIG A   1      -5.611   4.964 131.222  0.00  0.00    -0.457 OA
BRANCH  19  20
ATOM     20  C   LIG A   1      -6.843   4.472 131.531  0.00  0.00    +0.335 C 
ATOM     21  O   LIG A   1      -7.189   3.312 131.362  0.00  0.00    -0.245 OA
BRANCH  20  22
ATOM     22  C   LIG A   1      -7.724   5.490 132.199  0.00  0.00    +0.029 C 
ATOM     23  C   LIG A   1      -8.061   6.689 131.346  0.00  0.00    +0.051 C 
ATOM     24  C   LIG A   1      -8.168   5.453 133.471  0.00  0.00    -0.020 C 
ATOM     25  C   LIG A   1      -7.838   4.494 134.563  0.00  0.00    +0.035 C 
ENDBRANCH  20  22
ENDBRANCH  19  20
ENDBRANCH   9  19
BRANCH  18  26
ATOM     26  C   LIG A   1      -3.927   8.257 129.510  0.00  0.00    +0.194 C 
BRANCH  26  27
ATOM     27  O   LIG A   1      -5.266   7.983 129.912  0.00  0.00    -0.390 OA
ATOM     28  H   LIG A   1      -5.442   7.041 129.741  0.00  0.00    +0.210 HD
ENDBRANCH  26  27
ENDBRANCH  18  26
TORSDOF 5
ENDMDL
MODEL 7
REMARK VINA RESULT:      -6.6      3.806      7.349
REMARK  Name = NuBBE_650
REMARK  8 active torsions:
REMARK  status: ('A' for Active; 'I' for Inactive)
REMARK    1  A    between atoms: C_6  and  C_7
REMARK    2  A    between atoms: C_9  and  O_11
REMARK    3  A    between atoms: O_11  and  C_12
REMARK    4  A    between atoms: C_12  and  C_13
REMARK    5  A    between atoms: C_13  and  C_14
REMARK    6  A    between atoms: C_15  and  C_16
REMARK    7  A    between atoms: C_28  and  C_29
REMARK    8  A    between atoms: C_29  and  O_30
REMARK                            x       y       z     vdW  Elec       q    Type
REMARK                         _______ _______ _______ _____ _____    ______ ____
ROOT
ATOM      1  O   LIG A   1     -12.452   6.388 131.599  0.00  0.00    -0.288 OA
ATOM      2  C   LIG A   1     -11.254   6.148 131.615  0.00  0.00    +0.203 C 
ATOM      3  C   LIG A   1     -10.433   6.374 132.804  0.00  0.00    +0.096 C 
ATOM      4  C   LIG A   1      -9.245   5.989 132.343  0.00  0.00    +0.131 C 
ATOM      5  O   LIG A   1      -9.115   5.811 130.964  0.00  0.00    -0.478 OA
ATOM      6  C   LIG A   1     -10.436   5.500 130.500  0.00  0.00    +0.172 C 
ATOM      7  C   LIG A   1     -10.764   6.214 129.192  0.00  0.00    +0.064 C 
ATOM      8  C   LIG A   1     -10.609   3.958 130.394  0.00  0.00    +0.101 C 
ATOM      9  C   LIG A   1      -9.365   2.992 130.254  0.00  0.00    +0.192 C 
ATOM     10  C   LIG A   1      -9.030   2.231 131.587  0.00  0.00    +0.111 C 
ATOM     11  C   LIG A   1      -8.006   2.865 132.539  0.00  0.00    +0.211 C 
ATOM     12  O   LIG A   1      -7.628   1.844 133.460  0.00  0.00    -0.453 OA
ATOM     13  C   LIG A   1      -7.690   0.644 132.815  0.00  0.00    +0.336 C 
ATOM     14  C   LIG A   1      -8.400   0.871 131.523  0.00  0.00    +0.040 C 
ATOM     15  C   LIG A   1      -8.409  -0.071 130.574  0.00  0.00    +0.020 C 
ATOM     16  O   LIG A   1      -7.287  -0.411 133.244  0.00  0.00    -0.245 OA
ATOM     17  C   LIG A   1      -8.602   4.002 133.327  0.00  0.00    +0.027 C 
ATOM     18  C   LIG A   1      -8.220   5.277 133.087  0.00  0.00    +0.019 C 
ENDROOT
BRANCH   9  19
ATOM     19  O   LIG A   1      -8.178   3.613 129.702  0.00  0.00    -0.457 OA
BRANCH  19  20
ATOM     20  C   LIG A   1      -8.003   3.597 128.351  0.00  0.00    +0.335 C 
ATOM     21  O   LIG A   1      -8.152   4.565 127.620  0.00  0.00    -0.245 OA
BRANCH  20  22
ATOM     22  C   LIG A   1      -7.511   2.270 127.846  0.00  0.00    +0.029 C 
ATOM     23  C   LIG A   1      -8.534   1.467 127.081  0.00  0.00    +0.051 C 
ATOM     24  C   LIG A   1      -6.295   1.730 128.067  0.00  0.00    -0.020 C 
ATOM     25  C   LIG A   1      -5.183   2.221 128.928  0.00  0.00    +0.035 C 
ENDBRANCH  20  22
ENDBRANCH  19  20
ENDBRANCH   9  19
BRANCH  18  26
ATOM     26  C   LIG A   1      -6.800   5.762 132.878  0.00  0.00    +0.194 C 
BRANCH  26  27
ATOM     27  O   LIG A   1      -6.370   5.663 131.525  0.00  0.00    -0.390 OA
ATOM     28  H   LIG A   1      -6.036   4.760 131.382  0.00  0.00    +0.210 HD
ENDBRANCH  26  27
ENDBRANCH  18  26
TORSDOF 5
ENDMDL
MODEL 8
REMARK VINA RESULT:      -6.6      4.754      8.307
REMARK  Name = NuBBE_650
REMARK  8 active torsions:
REMARK  status: ('A' for Active; 'I' for Inactive)
REMARK    1  A    between atoms: C_6  and  C_7
REMARK    2  A    between atoms: C_9  and  O_11
REMARK    3  A    between atoms: O_11  and  C_12
REMARK    4  A    between atoms: C_12  and  C_13
REMARK    5  A    between atoms: C_13  and  C_14
REMARK    6  A    between atoms: C_15  and  C_16
REMARK    7  A    between atoms: C_28  and  C_29
REMARK    8  A    between atoms: C_29  and  O_30
REMARK                            x       y       z     vdW  Elec       q    Type
REMARK                         _______ _______ _______ _____ _____    ______ ____
ROOT
ATOM      1  O   LIG A   1      -4.310   5.880 134.344  0.00  0.00    -0.288 OA
ATOM      2  C   LIG A   1      -4.403   6.223 133.175  0.00  0.00    +0.203 C 
ATOM      3  C   LIG A   1      -3.407   7.083 132.536  0.00  0.00    +0.096 C 
ATOM      4  C   LIG A   1      -3.931   7.180 131.317  0.00  0.00    +0.131 C 
ATOM      5  O   LIG A   1      -5.248   6.747 131.144  0.00  0.00    -0.478 OA
ATOM      6  C   LIG A   1      -5.457   5.766 132.169  0.00  0.00    +0.172 C 
ATOM      7  C   LIG A   1      -6.829   5.906 132.820  0.00  0.00    +0.064 C 
ATOM      8  C   LIG A   1      -5.214   4.341 131.593  0.00  0.00    +0.101 C 
ATOM      9  C   LIG A   1      -5.314   4.046 130.043  0.00  0.00    +0.192 C 
ATOM     10  C   LIG A   1      -3.908   3.876 129.362  0.00  0.00    +0.111 C 
ATOM     11  C   LIG A   1      -3.253   5.119 128.743  0.00  0.00    +0.211 C 
ATOM     12  O   LIG A   1      -2.199   4.643 127.910  0.00  0.00    -0.453 OA
ATOM     13  C   LIG A   1      -2.565   3.430 127.408  0.00  0.00    +0.336 C 
ATOM     14  C   LIG A   1      -3.769   2.983 128.165  0.00  0.00    +0.040 C 
ATOM     15  C   LIG A   1      -4.491   1.938 127.745  0.00  0.00    +0.020 C 
ATOM     16  O   LIG A   1      -1.983   2.816 126.545  0.00  0.00    -0.245 OA
ATOM     17  C   LIG A   1      -2.648   6.015 129.791  0.00  0.00    +0.027 C 
ATOM     18  C   LIG A   1      -3.197   7.221 130.063  0.00  0.00    +0.019 C 
ENDROOT
BRANCH   9  19
ATOM     19  O   LIG A   1      -6.135   4.981 129.302  0.00  0.00    -0.457 OA
BRANCH  19  20
ATOM     20  C   LIG A   1      -7.127   4.490 128.508  0.00  0.00    +0.335 C 
ATOM     21  O   LIG A   1      -7.057   4.389 127.292  0.00  0.00    -0.245 OA
BRANCH  20  22
ATOM     22  C   LIG A   1      -8.305   3.987 129.294  0.00  0.00    +0.029 C 
ATOM     23  C   LIG A   1      -9.113   5.063 129.978  0.00  0.00    +0.051 C 
ATOM     24  C   LIG A   1      -8.649   2.698 129.485  0.00  0.00    -0.020 C 
ATOM     25  C   LIG A   1      -7.932   1.456 129.082  0.00  0.00    +0.035 C 
ENDBRANCH  20  22
ENDBRANCH  19  20
ENDBRANCH   9  19
BRANCH  18  26
ATOM     26  C   LIG A   1      -3.689   8.230 129.047  0.00  0.00    +0.194 C 
BRANCH  26  27
ATOM     27  O   LIG A   1      -4.313   9.363 129.642  0.00  0.00    -0.390 OA
ATOM     28  H   LIG A   1      -4.066  10.148 129.121  0.00  0.00    +0.210 HD
ENDBRANCH  26  27
ENDBRANCH  18  26
TORSDOF 5
ENDMDL
MODEL 9
REMARK VINA RESULT:      -6.6      1.935      6.244
REMARK  Name = NuBBE_650
REMARK  8 active torsions:
REMARK  status: ('A' for Active; 'I' for Inactive)
REMARK    1  A    between atoms: C_6  and  C_7
REMARK    2  A    between atoms: C_9  and  O_11
REMARK    3  A    between atoms: O_11  and  C_12
REMARK    4  A    between atoms: C_12  and  C_13
REMARK    5  A    between atoms: C_13  and  C_14
REMARK    6  A    between atoms: C_15  and  C_16
REMARK    7  A    between atoms: C_28  and  C_29
REMARK    8  A    between atoms: C_29  and  O_30
REMARK                            x       y       z     vdW  Elec       q    Type
REMARK                         _______ _______ _______ _____ _____    ______ ____
ROOT
ATOM      1  O   LIG A   1      -8.983   1.383 130.772  0.00  0.00    -0.288 OA
ATOM      2  C   LIG A   1      -8.202   0.831 130.011  0.00  0.00    +0.203 C 
ATOM      3  C   LIG A   1      -7.774  -0.554 130.207  0.00  0.00    +0.096 C 
ATOM      4  C   LIG A   1      -6.950  -0.691 129.172  0.00  0.00    +0.131 C 
ATOM      5  O   LIG A   1      -6.564   0.468 128.496  0.00  0.00    -0.478 OA
ATOM      6  C   LIG A   1      -7.629   1.403 128.716  0.00  0.00    +0.172 C 
ATOM      7  C   LIG A   1      -7.105   2.806 129.005  0.00  0.00    +0.064 C 
ATOM      8  C   LIG A   1      -8.615   1.373 127.513  0.00  0.00    +0.101 C 
ATOM      9  C   LIG A   1      -8.170   0.848 126.089  0.00  0.00    +0.192 C 
ATOM     10  C   LIG A   1      -8.721  -0.587 125.768  0.00  0.00    +0.111 C 
ATOM     11  C   LIG A   1      -7.838  -1.793 126.117  0.00  0.00    +0.211 C 
ATOM     12  O   LIG A   1      -8.390  -2.909 125.423  0.00  0.00    -0.453 OA
ATOM     13  C   LIG A   1      -8.942  -2.459 124.261  0.00  0.00    +0.336 C 
ATOM     14  C   LIG A   1      -8.997  -0.971 124.343  0.00  0.00    +0.040 C 
ATOM     15  C   LIG A   1      -9.276  -0.237 123.261  0.00  0.00    +0.020 C 
ATOM     16  O   LIG A   1      -9.356  -3.150 123.360  0.00  0.00    -0.245 OA
ATOM     17  C   LIG A   1      -7.868  -2.102 127.590  0.00  0.00    +0.027 C 
ATOM     18  C   LIG A   1      -6.777  -1.884 128.360  0.00  0.00    +0.019 C 
ENDROOT
BRANCH   9  19
ATOM     19  O   LIG A   1      -6.745   0.921 125.839  0.00  0.00    -0.457 OA
BRANCH  19  20
ATOM     20  C   LIG A   1      -6.280   1.892 125.004  0.00  0.00    +0.335 C 
ATOM     21  O   LIG A   1      -6.683   2.080 123.865  0.00  0.00    -0.245 OA
BRANCH  20  22
ATOM     22  C   LIG A   1      -5.268   2.788 125.661  0.00  0.00    +0.029 C 
ATOM     23  C   LIG A   1      -4.201   2.065 126.446  0.00  0.00    +0.051 C 
ATOM     24  C   LIG A   1      -5.272   4.136 125.661  0.00  0.00    -0.020 C 
ATOM     25  C   LIG A   1      -6.294   5.081 125.128  0.00  0.00    +0.035 C 
ENDBRANCH  20  22
ENDBRANCH  19  20
ENDBRANCH   9  19
BRANCH  18  26
ATOM     26  C   LIG A   1      -5.347  -2.234 128.004  0.00  0.00    +0.194 C 
BRANCH  26  27
ATOM     27  O   LIG A   1      -4.388  -1.458 128.715  0.00  0.00    -0.390 OA
ATOM     28  H   LIG A   1      -4.704  -0.537 128.734  0.00  0.00    +0.210 HD
ENDBRANCH  26  27
ENDBRANCH  18  26
TORSDOF 5
ENDMDL
