MODEL 1
REMARK VINA RESULT:      -7.0      0.000      0.000
REMARK  Name = NuBBE_149
REMARK  4 active torsions:
REMARK  status: ('A' for Active; 'I' for Inactive)
REMARK    1  A    between atoms: O_1  and  C_2
REMARK    2  A    between atoms: C_2  and  C_3
REMARK    3  A    between atoms: C_8  and  C_9
REMARK    4  A    between atoms: C_8  and  C_14
REMARK                            x       y       z     vdW  Elec       q    Type
REMARK                         _______ _______ _______ _____ _____    ______ ____
ROOT
ATOM      1  C   LIG A   1      -9.295   6.349 131.633  0.00  0.00    +0.060 A 
ATOM      2  C   LIG A   1     -10.526   6.201 132.280  0.00  0.00    +0.018 A 
ATOM      3  C   LIG A   1     -11.690   6.658 131.658  0.00  0.00    +0.047 A 
ATOM      4  C   LIG A   1     -11.623   7.269 130.404  0.00  0.00    +0.129 A 
ATOM      5  O   LIG A   1     -12.816   7.679 129.880  0.00  0.00    -0.482 OA
ATOM      6  C   LIG A   1     -12.831   8.306 128.581  0.00  0.00    +0.123 C 
ATOM      7  C   LIG A   1     -13.712   7.426 127.685  0.00  0.00    +0.060 C 
ATOM      8  C   LIG A   1     -11.484   8.496 127.922  0.00  0.00    +0.020 C 
ATOM      9  C   LIG A   1     -10.333   8.093 128.470  0.00  0.00    +0.011 C 
ATOM     10  C   LIG A   1     -10.392   7.440 129.766  0.00  0.00    +0.017 A 
ATOM     11  C   LIG A   1      -9.225   6.982 130.386  0.00  0.00    +0.026 A 
ATOM     12  C   LIG A   1     -13.496   9.675 128.773  0.00  0.00    +0.060 C 
ENDROOT
BRANCH   1  13
ATOM     13  C   LIG A   1      -8.037   5.876 132.252  0.00  0.00    +0.337 C 
ATOM     14  O   LIG A   1      -7.993   4.955 133.048  0.00  0.00    -0.245 OA
BRANCH  13  15
ATOM     15  O   LIG A   1      -6.962   6.605 131.887  0.00  0.00    -0.477 OA
ATOM     16  H   LIG A   1      -7.100   7.172 131.106  0.00  0.00    +0.295 HD
ENDBRANCH  13  15
ENDBRANCH   1  13
TORSDOF 2
ENDMDL
MODEL 2
REMARK VINA RESULT:      -6.7      1.348      2.504
REMARK  Name = NuBBE_149
REMARK  4 active torsions:
REMARK  status: ('A' for Active; 'I' for Inactive)
REMARK    1  A    between atoms: O_1  and  C_2
REMARK    2  A    between atoms: C_2  and  C_3
REMARK    3  A    between atoms: C_8  and  C_9
REMARK    4  A    between atoms: C_8  and  C_14
REMARK                            x       y       z     vdW  Elec       q    Type
REMARK                         _______ _______ _______ _____ _____    ______ ____
ROOT
ATOM      1  C   LIG A   1      -8.841   6.066 132.528  0.00  0.00    +0.060 A 
ATOM      2  C   LIG A   1      -8.133   6.578 131.435  0.00  0.00    +0.018 A 
ATOM      3  C   LIG A   1      -8.833   7.126 130.358  0.00  0.00    +0.047 A 
ATOM      4  C   LIG A   1     -10.229   7.152 130.366  0.00  0.00    +0.129 A 
ATOM      5  O   LIG A   1     -10.819   7.710 129.269  0.00  0.00    -0.482 OA
ATOM      6  C   LIG A   1     -12.258   7.787 129.209  0.00  0.00    +0.123 C 
ATOM      7  C   LIG A   1     -12.609   9.276 129.099  0.00  0.00    +0.060 C 
ATOM      8  C   LIG A   1     -13.001   7.186 130.381  0.00  0.00    +0.020 C 
ATOM      9  C   LIG A   1     -12.392   6.635 131.435  0.00  0.00    +0.011 C 
ATOM     10  C   LIG A   1     -10.939   6.619 131.446  0.00  0.00    +0.017 A 
ATOM     11  C   LIG A   1     -10.241   6.071 132.527  0.00  0.00    +0.026 A 
ATOM     12  C   LIG A   1     -12.674   7.063 127.923  0.00  0.00    +0.060 C 
ENDROOT
BRANCH   1  13
ATOM     13  C   LIG A   1      -8.142   5.480 133.692  0.00  0.00    +0.337 C 
ATOM     14  O   LIG A   1      -6.964   5.679 133.931  0.00  0.00    -0.245 OA
BRANCH  13  15
ATOM     15  O   LIG A   1      -8.927   4.661 134.424  0.00  0.00    -0.477 OA
ATOM     16  H   LIG A   1      -9.315   5.073 135.219  0.00  0.00    +0.295 HD
ENDBRANCH  13  15
ENDBRANCH   1  13
TORSDOF 2
ENDMDL
MODEL 3
REMARK VINA RESULT:      -6.6      1.523      5.418
REMARK  Name = NuBBE_149
REMARK  4 active torsions:
REMARK  status: ('A' for Active; 'I' for Inactive)
REMARK    1  A    between atoms: O_1  and  C_2
REMARK    2  A    between atoms: C_2  and  C_3
REMARK    3  A    between atoms: C_8  and  C_9
REMARK    4  A    between atoms: C_8  and  C_14
REMARK                            x       y       z     vdW  Elec       q    Type
REMARK                         _______ _______ _______ _____ _____    ______ ____
ROOT
ATOM      1  C   LIG A   1     -11.402   7.849 129.638  0.00  0.00    +0.060 A 
ATOM      2  C   LIG A   1     -12.279   7.264 130.557  0.00  0.00    +0.018 A 
ATOM      3  C   LIG A   1     -11.767   6.498 131.606  0.00  0.00    +0.047 A 
ATOM      4  C   LIG A   1     -10.389   6.307 131.729  0.00  0.00    +0.129 A 
ATOM      5  O   LIG A   1      -9.988   5.544 132.789  0.00  0.00    -0.482 OA
ATOM      6  C   LIG A   1      -8.578   5.312 132.992  0.00  0.00    +0.123 C 
ATOM      7  C   LIG A   1      -8.239   5.888 134.372  0.00  0.00    +0.060 C 
ATOM      8  C   LIG A   1      -7.654   5.915 131.958  0.00  0.00    +0.020 C 
ATOM      9  C   LIG A   1      -8.081   6.647 130.926  0.00  0.00    +0.011 C 
ATOM     10  C   LIG A   1      -9.512   6.869 130.798  0.00  0.00    +0.017 A 
ATOM     11  C   LIG A   1     -10.022   7.638 129.747  0.00  0.00    +0.026 A 
ATOM     12  C   LIG A   1      -8.393   3.790 133.009  0.00  0.00    +0.060 C 
ENDROOT
BRANCH   1  13
ATOM     13  C   LIG A   1     -11.899   8.672 128.514  0.00  0.00    +0.337 C 
ATOM     14  O   LIG A   1     -13.027   9.131 128.474  0.00  0.00    -0.245 OA
BRANCH  13  15
ATOM     15  O   LIG A   1     -10.997   8.810 127.520  0.00  0.00    -0.477 OA
ATOM     16  H   LIG A   1     -10.113   9.104 127.810  0.00  0.00    +0.295 HD
ENDBRANCH  13  15
ENDBRANCH   1  13
TORSDOF 2
ENDMDL
MODEL 4
REMARK VINA RESULT:      -6.3     10.568     12.176
REMARK  Name = NuBBE_149
REMARK  4 active torsions:
REMARK  status: ('A' for Active; 'I' for Inactive)
REMARK    1  A    between atoms: O_1  and  C_2
REMARK    2  A    between atoms: C_2  and  C_3
REMARK    3  A    between atoms: C_8  and  C_9
REMARK    4  A    between atoms: C_8  and  C_14
REMARK                            x       y       z     vdW  Elec       q    Type
REMARK                         _______ _______ _______ _____ _____    ______ ____
ROOT
ATOM      1  C   LIG A   1      -8.298  -2.565 124.618  0.00  0.00    +0.060 A 
ATOM      2  C   LIG A   1      -7.162  -1.769 124.801  0.00  0.00    +0.018 A 
ATOM      3  C   LIG A   1      -6.598  -1.657 126.073  0.00  0.00    +0.047 A 
ATOM      4  C   LIG A   1      -7.172  -2.325 127.158  0.00  0.00    +0.129 A 
ATOM      5  O   LIG A   1      -6.546  -2.153 128.359  0.00  0.00    -0.482 OA
ATOM      6  C   LIG A   1      -7.070  -2.821 129.525  0.00  0.00    +0.123 C 
ATOM      7  C   LIG A   1      -5.952  -3.738 130.038  0.00  0.00    +0.060 C 
ATOM      8  C   LIG A   1      -8.324  -3.638 129.310  0.00  0.00    +0.020 C 
ATOM      9  C   LIG A   1      -8.919  -3.775 128.122  0.00  0.00    +0.011 C 
ATOM     10  C   LIG A   1      -8.321  -3.100 126.982  0.00  0.00    +0.017 A 
ATOM     11  C   LIG A   1      -8.887  -3.216 125.709  0.00  0.00    +0.026 A 
ATOM     12  C   LIG A   1      -7.352  -1.724 130.558  0.00  0.00    +0.060 C 
ENDROOT
BRANCH   1  13
ATOM     13  C   LIG A   1      -8.926  -2.717 123.287  0.00  0.00    +0.337 C 
ATOM     14  O   LIG A   1      -8.443  -2.259 122.267  0.00  0.00    -0.245 OA
BRANCH  13  15
ATOM     15  O   LIG A   1     -10.111  -3.362 123.332  0.00  0.00    -0.477 OA
ATOM     16  H   LIG A   1     -10.162  -4.158 122.770  0.00  0.00    +0.295 HD
ENDBRANCH  13  15
ENDBRANCH   1  13
TORSDOF 2
ENDMDL
MODEL 5
REMARK VINA RESULT:      -6.3      9.563     11.113
REMARK  Name = NuBBE_149
REMARK  4 active torsions:
REMARK  status: ('A' for Active; 'I' for Inactive)
REMARK    1  A    between atoms: O_1  and  C_2
REMARK    2  A    between atoms: C_2  and  C_3
REMARK    3  A    between atoms: C_8  and  C_9
REMARK    4  A    between atoms: C_8  and  C_14
REMARK                            x       y       z     vdW  Elec       q    Type
REMARK                         _______ _______ _______ _____ _____    ______ ____
ROOT
ATOM      1  C   LIG A   1      -6.518   4.407 119.974  0.00  0.00    +0.060 A 
ATOM      2  C   LIG A   1      -5.329   4.591 120.688  0.00  0.00    +0.018 A 
ATOM      3  C   LIG A   1      -5.245   4.150 122.010  0.00  0.00    +0.047 A 
ATOM      4  C   LIG A   1      -6.344   3.540 122.620  0.00  0.00    +0.129 A 
ATOM      5  O   LIG A   1      -6.161   3.143 123.913  0.00  0.00    -0.482 OA
ATOM      6  C   LIG A   1      -7.246   2.492 124.607  0.00  0.00    +0.123 C 
ATOM      7  C   LIG A   1      -6.735   1.102 125.003  0.00  0.00    +0.060 C 
ATOM      8  C   LIG A   1      -8.535   2.347 123.829  0.00  0.00    +0.020 C 
ATOM      9  C   LIG A   1      -8.684   2.759 122.567  0.00  0.00    +0.011 C 
ATOM     10  C   LIG A   1      -7.541   3.378 121.916  0.00  0.00    +0.017 A 
ATOM     11  C   LIG A   1      -7.628   3.817 120.592  0.00  0.00    +0.026 A 
ATOM     12  C   LIG A   1      -7.509   3.324 125.868  0.00  0.00    +0.060 C 
ENDROOT
BRANCH   1  13
ATOM     13  C   LIG A   1      -6.651   4.854 118.571  0.00  0.00    +0.337 C 
ATOM     14  O   LIG A   1      -7.448   4.367 117.790  0.00  0.00    -0.245 OA
BRANCH  13  15
ATOM     15  O   LIG A   1      -5.762   5.812 118.234  0.00  0.00    -0.477 OA
ATOM     16  H   LIG A   1      -5.462   5.781 117.306  0.00  0.00    +0.295 HD
ENDBRANCH  13  15
ENDBRANCH   1  13
TORSDOF 2
ENDMDL
MODEL 6
REMARK VINA RESULT:      -6.2     10.004     10.930
REMARK  Name = NuBBE_149
REMARK  4 active torsions:
REMARK  status: ('A' for Active; 'I' for Inactive)
REMARK    1  A    between atoms: O_1  and  C_2
REMARK    2  A    between atoms: C_2  and  C_3
REMARK    3  A    between atoms: C_8  and  C_9
REMARK    4  A    between atoms: C_8  and  C_14
REMARK                            x       y       z     vdW  Elec       q    Type
REMARK                         _______ _______ _______ _____ _____    ______ ____
ROOT
ATOM      1  C   LIG A   1      -7.513   2.356 122.876  0.00  0.00    +0.060 A 
ATOM      2  C   LIG A   1      -8.908   2.363 122.981  0.00  0.00    +0.018 A 
ATOM      3  C   LIG A   1      -9.574   1.204 123.383  0.00  0.00    +0.047 A 
ATOM      4  C   LIG A   1      -8.854   0.041 123.665  0.00  0.00    +0.129 A 
ATOM      5  O   LIG A   1      -9.596  -1.038 124.051  0.00  0.00    -0.482 OA
ATOM      6  C   LIG A   1      -8.923  -2.273 124.374  0.00  0.00    +0.123 C 
ATOM      7  C   LIG A   1      -9.269  -2.585 125.835  0.00  0.00    +0.060 C 
ATOM      8  C   LIG A   1      -7.420  -2.269 124.208  0.00  0.00    +0.020 C 
ATOM      9  C   LIG A   1      -6.725  -1.197 123.815  0.00  0.00    +0.011 C 
ATOM     10  C   LIG A   1      -7.462   0.024 123.536  0.00  0.00    +0.017 A 
ATOM     11  C   LIG A   1      -6.792   1.184 123.136  0.00  0.00    +0.026 A 
ATOM     12  C   LIG A   1      -9.530  -3.344 123.460  0.00  0.00    +0.060 C 
ENDROOT
BRANCH   1  13
ATOM     13  C   LIG A   1      -6.765   3.562 122.458  0.00  0.00    +0.337 C 
ATOM     14  O   LIG A   1      -6.494   3.807 121.296  0.00  0.00    -0.245 OA
BRANCH  13  15
ATOM     15  O   LIG A   1      -6.370   4.325 123.498  0.00  0.00    -0.477 OA
ATOM     16  H   LIG A   1      -5.420   4.550 123.500  0.00  0.00    +0.295 HD
ENDBRANCH  13  15
ENDBRANCH   1  13
TORSDOF 2
ENDMDL
MODEL 7
REMARK VINA RESULT:      -5.8      1.964      5.216
REMARK  Name = NuBBE_149
REMARK  4 active torsions:
REMARK  status: ('A' for Active; 'I' for Inactive)
REMARK    1  A    between atoms: O_1  and  C_2
REMARK    2  A    between atoms: C_2  and  C_3
REMARK    3  A    between atoms: C_8  and  C_9
REMARK    4  A    between atoms: C_8  and  C_14
REMARK                            x       y       z     vdW  Elec       q    Type
REMARK                         _______ _______ _______ _____ _____    ______ ____
ROOT
ATOM      1  C   LIG A   1     -12.557   8.590 129.807  0.00  0.00    +0.060 A 
ATOM      2  C   LIG A   1     -13.060   7.997 130.969  0.00  0.00    +0.018 A 
ATOM      3  C   LIG A   1     -12.407   6.890 131.515  0.00  0.00    +0.047 A 
ATOM      4  C   LIG A   1     -11.267   6.370 130.896  0.00  0.00    +0.129 A 
ATOM      5  O   LIG A   1     -10.700   5.289 131.507  0.00  0.00    -0.482 OA
ATOM      6  C   LIG A   1      -9.512   4.704 130.936  0.00  0.00    +0.123 C 
ATOM      7  C   LIG A   1      -8.419   4.810 132.007  0.00  0.00    +0.060 C 
ATOM      8  C   LIG A   1      -9.016   5.334 129.654  0.00  0.00    +0.020 C 
ATOM      9  C   LIG A   1      -9.602   6.386 129.076  0.00  0.00    +0.011 C 
ATOM     10  C   LIG A   1     -10.778   6.946 129.720  0.00  0.00    +0.017 A 
ATOM     11  C   LIG A   1     -11.428   8.056 129.173  0.00  0.00    +0.026 A 
ATOM     12  C   LIG A   1      -9.841   3.228 130.679  0.00  0.00    +0.060 C 
ENDROOT
BRANCH   1  13
ATOM     13  C   LIG A   1     -13.213   9.767 129.197  0.00  0.00    +0.337 C 
ATOM     14  O   LIG A   1     -13.887   9.703 128.184  0.00  0.00    -0.245 OA
BRANCH  13  15
ATOM     15  O   LIG A   1     -12.940  10.920 129.843  0.00  0.00    -0.477 OA
ATOM     16  H   LIG A   1     -13.360  11.004 130.720  0.00  0.00    +0.295 HD
ENDBRANCH  13  15
ENDBRANCH   1  13
TORSDOF 2
ENDMDL
MODEL 8
REMARK VINA RESULT:      -5.8      9.555     10.300
REMARK  Name = NuBBE_149
REMARK  4 active torsions:
REMARK  status: ('A' for Active; 'I' for Inactive)
REMARK    1  A    between atoms: O_1  and  C_2
REMARK    2  A    between atoms: C_2  and  C_3
REMARK    3  A    between atoms: C_8  and  C_9
REMARK    4  A    between atoms: C_8  and  C_14
REMARK                            x       y       z     vdW  Elec       q    Type
REMARK                         _______ _______ _______ _____ _____    ______ ____
ROOT
ATOM      1  C   LIG A   1      -8.015   2.124 125.141  0.00  0.00    +0.060 A 
ATOM      2  C   LIG A   1      -8.995   1.612 125.998  0.00  0.00    +0.018 A 
ATOM      3  C   LIG A   1      -9.359   0.268 125.902  0.00  0.00    +0.047 A 
ATOM      4  C   LIG A   1      -8.758  -0.558 124.948  0.00  0.00    +0.129 A 
ATOM      5  O   LIG A   1      -9.181  -1.856 124.935  0.00  0.00    -0.482 OA
ATOM      6  C   LIG A   1      -8.597  -2.774 123.988  0.00  0.00    +0.123 C 
ATOM      7  C   LIG A   1      -7.941  -3.888 124.812  0.00  0.00    +0.060 C 
ATOM      8  C   LIG A   1      -7.575  -2.185 123.042  0.00  0.00    +0.020 C 
ATOM      9  C   LIG A   1      -7.192  -0.906 123.074  0.00  0.00    +0.011 C 
ATOM     10  C   LIG A   1      -7.797  -0.042 124.074  0.00  0.00    +0.017 A 
ATOM     11  C   LIG A   1      -7.429   1.304 124.169  0.00  0.00    +0.026 A 
ATOM     12  C   LIG A   1      -9.763  -3.351 123.176  0.00  0.00    +0.060 C 
ENDROOT
BRANCH   1  13
ATOM     13  C   LIG A   1      -7.594   3.540 125.210  0.00  0.00    +0.337 C 
ATOM     14  O   LIG A   1      -6.449   3.884 125.440  0.00  0.00    -0.245 OA
BRANCH  13  15
ATOM     15  O   LIG A   1      -8.618   4.405 125.049  0.00  0.00    -0.477 OA
ATOM     16  H   LIG A   1      -9.496   4.043 125.274  0.00  0.00    +0.295 HD
ENDBRANCH  13  15
ENDBRANCH   1  13
TORSDOF 2
ENDMDL
MODEL 9
REMARK VINA RESULT:      -5.7     10.702     12.100
REMARK  Name = NuBBE_149
REMARK  4 active torsions:
REMARK  status: ('A' for Active; 'I' for Inactive)
REMARK    1  A    between atoms: O_1  and  C_2
REMARK    2  A    between atoms: C_2  and  C_3
REMARK    3  A    between atoms: C_8  and  C_9
REMARK    4  A    between atoms: C_8  and  C_14
REMARK                            x       y       z     vdW  Elec       q    Type
REMARK                         _______ _______ _______ _____ _____    ______ ____
ROOT
ATOM      1  C   LIG A   1      -8.352  -2.515 125.104  0.00  0.00    +0.060 A 
ATOM      2  C   LIG A   1      -9.317  -3.218 125.833  0.00  0.00    +0.018 A 
ATOM      3  C   LIG A   1      -9.080  -3.519 127.175  0.00  0.00    +0.047 A 
ATOM      4  C   LIG A   1      -7.883  -3.134 127.783  0.00  0.00    +0.129 A 
ATOM      5  O   LIG A   1      -7.748  -3.474 129.098  0.00  0.00    -0.482 OA
ATOM      6  C   LIG A   1      -6.545  -3.098 129.800  0.00  0.00    +0.123 C 
ATOM      7  C   LIG A   1      -6.983  -2.194 130.959  0.00  0.00    +0.060 C 
ATOM      8  C   LIG A   1      -5.498  -2.381 128.977  0.00  0.00    +0.020 C 
ATOM      9  C   LIG A   1      -5.657  -2.074 127.687  0.00  0.00    +0.011 C 
ATOM     10  C   LIG A   1      -6.907  -2.454 127.049  0.00  0.00    +0.017 A 
ATOM     11  C   LIG A   1      -7.141  -2.148 125.705  0.00  0.00    +0.026 A 
ATOM     12  C   LIG A   1      -5.948  -4.397 130.355  0.00  0.00    +0.060 C 
ENDROOT
BRANCH   1  13
ATOM     13  C   LIG A   1      -8.561  -2.170 123.681  0.00  0.00    +0.337 C 
ATOM     14  O   LIG A   1      -7.667  -1.780 122.952  0.00  0.00    -0.245 OA
BRANCH  13  15
ATOM     15  O   LIG A   1      -9.850  -2.276 123.295  0.00  0.00    -0.477 OA
ATOM     16  H   LIG A   1     -10.407  -1.507 123.517  0.00  0.00    +0.295 HD
ENDBRANCH  13  15
ENDBRANCH   1  13
TORSDOF 2
ENDMDL
