MODEL 1
REMARK VINA RESULT:      -8.6      0.000      0.000
REMARK  Name = NuBBE_1989
REMARK  12 active torsions:
REMARK  status: ('A' for Active; 'I' for Inactive)
REMARK    1  A    between atoms: C_1  and  C_2
REMARK    2  A    between atoms: C_9  and  C_12
REMARK    3  A    between atoms: C_13  and  C_17
REMARK    4  A    between atoms: C_17  and  C_19
REMARK    5  A    between atoms: C_17  and  C_26
REMARK    6  A    between atoms: C_19  and  C_20
REMARK    7  A    between atoms: C_20  and  C_21
REMARK    8  A    between atoms: C_21  and  C_23
REMARK    9  A    between atoms: C_23  and  C_24
REMARK   10  A    between atoms: C_23  and  C_25
REMARK   11  A    between atoms: C_31  and  C_33
REMARK   12  A    between atoms: C_34  and  O_38
REMARK                            x       y       z     vdW  Elec       q    Type
REMARK                         _______ _______ _______ _____ _____    ______ ____
ROOT
ATOM      1  C   LIG A   1      -6.600   1.376 133.500  0.00  0.00    +0.012 C 
ATOM      2  C   LIG A   1      -7.252   1.820 132.146  0.00  0.00    -0.026 C 
ATOM      3  C   LIG A   1      -6.623   0.925 131.004  0.00  0.00    -0.001 C 
ATOM      4  C   LIG A   1      -6.943  -0.579 131.203  0.00  0.00    -0.004 C 
ATOM      5  C   LIG A   1      -6.329  -1.490 130.087  0.00  0.00    -0.001 C 
ATOM      6  C   LIG A   1      -6.435  -1.000 128.613  0.00  0.00    -0.026 C 
ATOM      7  C   LIG A   1      -6.209   0.520 128.534  0.00  0.00    +0.007 C 
ATOM      8  C   LIG A   1      -6.964   1.351 129.565  0.00  0.00    +0.005 C 
ATOM      9  C   LIG A   1      -5.324  -1.673 127.763  0.00  0.00    +0.012 C 
ATOM     10  C   LIG A   1      -7.850  -1.520 128.198  0.00  0.00    -0.002 C 
ATOM     11  C   LIG A   1      -7.936  -2.902 128.900  0.00  0.00    +0.004 C 
ATOM     12  C   LIG A   1      -6.916  -2.904 130.042  0.00  0.00    +0.004 C 
ATOM     13  C   LIG A   1      -8.409  -0.835 131.623  0.00  0.00    +0.004 C 
ATOM     14  C   LIG A   1      -9.337   0.372 131.567  0.00  0.00    +0.005 C 
ATOM     15  C   LIG A   1      -8.799   1.623 132.283  0.00  0.00    +0.001 C 
ATOM     16  C   LIG A   1      -9.666   2.883 131.988  0.00  0.00    +0.018 C 
ATOM     17  C   LIG A   1      -9.824   3.256 130.509  0.00  0.00    +0.010 C 
ATOM     18  C   LIG A   1      -9.178   4.096 132.805  0.00  0.00    +0.118 C 
ATOM     19  C   LIG A   1      -7.658   4.258 132.893  0.00  0.00    +0.032 C 
ATOM     20  C   LIG A   1      -6.875   3.320 131.975  0.00  0.00    +0.009 C 
ENDROOT
BRANCH  10  21
ATOM     21  C   LIG A   1      -8.215  -1.659 126.685  0.00  0.00    -0.010 C 
ATOM     22  C   LIG A   1      -9.027  -0.492 126.122  0.00  0.00    +0.008 C 
BRANCH  21  23
ATOM     23  C   LIG A   1      -8.935  -3.004 126.364  0.00  0.00    +0.008 C 
BRANCH  23  24
ATOM     24  C   LIG A   1      -8.252  -3.870 125.292  0.00  0.00    +0.030 C 
BRANCH  24  25
ATOM     25  C   LIG A   1      -8.187  -3.177 123.941  0.00  0.00    -0.074 C 
ATOM     26  C   LIG A   1      -9.319  -2.982 123.231  0.00  0.00    +0.008 C 
BRANCH  25  27
ATOM     27  C   LIG A   1      -6.806  -2.748 123.460  0.00  0.00    +0.008 C 
ATOM     28  C   LIG A   1      -6.738  -1.234 123.234  0.00  0.00    +0.012 C 
ATOM     29  C   LIG A   1      -5.659  -3.179 124.382  0.00  0.00    +0.012 C 
ENDBRANCH  25  27
ENDBRANCH  24  25
ENDBRANCH  23  24
ENDBRANCH  21  23
ENDBRANCH  10  21
BRANCH  18  30
ATOM     30  O   LIG A   1      -9.672   3.985 134.145  0.00  0.00    -0.392 OA
ATOM     31  H   LIG A   1      -9.427   3.103 134.473  0.00  0.00    +0.210 HD
ENDBRANCH  18  30
TORSDOF 6
ENDMDL
MODEL 2
REMARK VINA RESULT:      -7.9      3.646      6.204
REMARK  Name = NuBBE_1989
REMARK  12 active torsions:
REMARK  status: ('A' for Active; 'I' for Inactive)
REMARK    1  A    between atoms: C_1  and  C_2
REMARK    2  A    between atoms: C_9  and  C_12
REMARK    3  A    between atoms: C_13  and  C_17
REMARK    4  A    between atoms: C_17  and  C_19
REMARK    5  A    between atoms: C_17  and  C_26
REMARK    6  A    between atoms: C_19  and  C_20
REMARK    7  A    between atoms: C_20  and  C_21
REMARK    8  A    between atoms: C_21  and  C_23
REMARK    9  A    between atoms: C_23  and  C_24
REMARK   10  A    between atoms: C_23  and  C_25
REMARK   11  A    between atoms: C_31  and  C_33
REMARK   12  A    between atoms: C_34  and  O_38
REMARK                            x       y       z     vdW  Elec       q    Type
REMARK                         _______ _______ _______ _____ _____    ______ ____
ROOT
ATOM      1  C   LIG A   1      -7.766  -3.507 129.239  0.00  0.00    +0.012 C 
ATOM      2  C   LIG A   1      -6.549  -2.550 129.000  0.00  0.00    -0.026 C 
ATOM      3  C   LIG A   1      -6.614  -2.070 127.494  0.00  0.00    -0.001 C 
ATOM      4  C   LIG A   1      -7.905  -1.263 127.197  0.00  0.00    -0.004 C 
ATOM      5  C   LIG A   1      -7.997  -0.778 125.712  0.00  0.00    -0.001 C 
ATOM      6  C   LIG A   1      -6.710  -0.193 125.060  0.00  0.00    -0.026 C 
ATOM      7  C   LIG A   1      -5.473  -0.994 125.500  0.00  0.00    +0.007 C 
ATOM      8  C   LIG A   1      -5.382  -1.297 126.991  0.00  0.00    +0.005 C 
ATOM      9  C   LIG A   1      -6.810  -0.316 123.516  0.00  0.00    +0.012 C 
ATOM     10  C   LIG A   1      -6.770   1.304 125.507  0.00  0.00    -0.002 C 
ATOM     11  C   LIG A   1      -8.285   1.635 125.425  0.00  0.00    +0.004 C 
ATOM     12  C   LIG A   1      -9.050   0.309 125.474  0.00  0.00    +0.004 C 
ATOM     13  C   LIG A   1      -8.257  -0.252 128.314  0.00  0.00    +0.004 C 
ATOM     14  C   LIG A   1      -7.198  -0.059 129.393  0.00  0.00    +0.005 C 
ATOM     15  C   LIG A   1      -6.677  -1.365 130.015  0.00  0.00    +0.001 C 
ATOM     16  C   LIG A   1      -5.436  -1.124 130.926  0.00  0.00    +0.018 C 
ATOM     17  C   LIG A   1      -4.235  -0.445 130.256  0.00  0.00    +0.010 C 
ATOM     18  C   LIG A   1      -5.003  -2.426 131.630  0.00  0.00    +0.118 C 
ATOM     19  C   LIG A   1      -5.037  -3.683 130.758  0.00  0.00    +0.032 C 
ATOM     20  C   LIG A   1      -5.283  -3.410 129.275  0.00  0.00    +0.009 C 
ENDROOT
BRANCH  10  21
ATOM     21  C   LIG A   1      -5.941   2.380 124.736  0.00  0.00    -0.010 C 
ATOM     22  C   LIG A   1      -5.016   3.218 125.621  0.00  0.00    +0.008 C 
BRANCH  21  23
ATOM     23  C   LIG A   1      -6.834   3.320 123.872  0.00  0.00    +0.008 C 
BRANCH  23  24
ATOM     24  C   LIG A   1      -6.824   3.026 122.362  0.00  0.00    +0.030 C 
BRANCH  24  25
ATOM     25  C   LIG A   1      -5.902   3.958 121.596  0.00  0.00    -0.074 C 
ATOM     26  C   LIG A   1      -4.906   4.600 122.243  0.00  0.00    +0.008 C 
BRANCH  25  27
ATOM     27  C   LIG A   1      -6.182   4.121 120.106  0.00  0.00    +0.008 C 
ATOM     28  C   LIG A   1      -7.688   4.170 119.822  0.00  0.00    +0.012 C 
ATOM     29  C   LIG A   1      -5.503   5.340 119.471  0.00  0.00    +0.012 C 
ENDBRANCH  25  27
ENDBRANCH  24  25
ENDBRANCH  23  24
ENDBRANCH  21  23
ENDBRANCH  10  21
BRANCH  18  30
ATOM     30  O   LIG A   1      -5.865  -2.660 132.749  0.00  0.00    -0.392 OA
ATOM     31  H   LIG A   1      -6.736  -2.912 132.398  0.00  0.00    +0.210 HD
ENDBRANCH  18  30
TORSDOF 6
ENDMDL
MODEL 3
REMARK VINA RESULT:      -7.8      3.565      5.255
REMARK  Name = NuBBE_1989
REMARK  12 active torsions:
REMARK  status: ('A' for Active; 'I' for Inactive)
REMARK    1  A    between atoms: C_1  and  C_2
REMARK    2  A    between atoms: C_9  and  C_12
REMARK    3  A    between atoms: C_13  and  C_17
REMARK    4  A    between atoms: C_17  and  C_19
REMARK    5  A    between atoms: C_17  and  C_26
REMARK    6  A    between atoms: C_19  and  C_20
REMARK    7  A    between atoms: C_20  and  C_21
REMARK    8  A    between atoms: C_21  and  C_23
REMARK    9  A    between atoms: C_23  and  C_24
REMARK   10  A    between atoms: C_23  and  C_25
REMARK   11  A    between atoms: C_31  and  C_33
REMARK   12  A    between atoms: C_34  and  O_38
REMARK                            x       y       z     vdW  Elec       q    Type
REMARK                         _______ _______ _______ _____ _____    ______ ____
ROOT
ATOM      1  C   LIG A   1      -3.129  -1.208 132.071  0.00  0.00    +0.012 C 
ATOM      2  C   LIG A   1      -4.393  -2.130 131.986  0.00  0.00    -0.026 C 
ATOM      3  C   LIG A   1      -5.380  -1.481 130.935  0.00  0.00    -0.001 C 
ATOM      4  C   LIG A   1      -4.757  -1.415 129.516  0.00  0.00    -0.004 C 
ATOM      5  C   LIG A   1      -5.713  -0.774 128.456  0.00  0.00    -0.001 C 
ATOM      6  C   LIG A   1      -7.211  -1.198 128.479  0.00  0.00    -0.026 C 
ATOM      7  C   LIG A   1      -7.705  -1.342 129.929  0.00  0.00    +0.007 C 
ATOM      8  C   LIG A   1      -6.783  -2.113 130.865  0.00  0.00    +0.005 C 
ATOM      9  C   LIG A   1      -8.072  -0.095 127.809  0.00  0.00    +0.012 C 
ATOM     10  C   LIG A   1      -7.194  -2.500 127.614  0.00  0.00    -0.002 C 
ATOM     11  C   LIG A   1      -6.170  -2.164 126.496  0.00  0.00    +0.004 C 
ATOM     12  C   LIG A   1      -5.290  -1.019 127.004  0.00  0.00    +0.004 C 
ATOM     13  C   LIG A   1      -4.003  -2.708 129.126  0.00  0.00    +0.004 C 
ATOM     14  C   LIG A   1      -4.169  -3.887 130.077  0.00  0.00    +0.005 C 
ATOM     15  C   LIG A   1      -3.906  -3.555 131.555  0.00  0.00    +0.001 C 
ATOM     16  C   LIG A   1      -4.324  -4.721 132.500  0.00  0.00    +0.018 C 
ATOM     17  C   LIG A   1      -5.788  -5.170 132.402  0.00  0.00    +0.010 C 
ATOM     18  C   LIG A   1      -3.946  -4.415 133.963  0.00  0.00    +0.118 C 
ATOM     19  C   LIG A   1      -4.205  -2.976 134.418  0.00  0.00    +0.032 C 
ATOM     20  C   LIG A   1      -5.000  -2.137 133.418  0.00  0.00    +0.009 C 
ENDROOT
BRANCH  10  21
ATOM     21  C   LIG A   1      -8.522  -3.034 126.987  0.00  0.00    -0.010 C 
ATOM     22  C   LIG A   1      -9.233  -4.096 127.827  0.00  0.00    +0.008 C 
BRANCH  21  23
ATOM     23  C   LIG A   1      -8.329  -3.558 125.532  0.00  0.00    +0.008 C 
BRANCH  23  24
ATOM     24  C   LIG A   1      -9.213  -2.881 124.471  0.00  0.00    +0.030 C 
BRANCH  24  25
ATOM     25  C   LIG A   1      -8.461  -1.826 123.677  0.00  0.00    -0.074 C 
ATOM     26  C   LIG A   1      -7.578  -2.202 122.728  0.00  0.00    +0.008 C 
BRANCH  25  27
ATOM     27  C   LIG A   1      -8.754  -0.371 124.028  0.00  0.00    +0.008 C 
ATOM     28  C   LIG A   1      -7.460   0.427 124.225  0.00  0.00    +0.012 C 
ATOM     29  C   LIG A   1      -9.649   0.350 123.013  0.00  0.00    +0.012 C 
ENDBRANCH  25  27
ENDBRANCH  24  25
ENDBRANCH  23  24
ENDBRANCH  21  23
ENDBRANCH  10  21
BRANCH  18  30
ATOM     30  O   LIG A   1      -2.549  -4.674 134.146  0.00  0.00    -0.392 OA
ATOM     31  H   LIG A   1      -2.303  -4.335 135.024  0.00  0.00    +0.210 HD
ENDBRANCH  18  30
TORSDOF 6
ENDMDL
MODEL 4
REMARK VINA RESULT:      -7.7      4.029      8.589
REMARK  Name = NuBBE_1989
REMARK  12 active torsions:
REMARK  status: ('A' for Active; 'I' for Inactive)
REMARK    1  A    between atoms: C_1  and  C_2
REMARK    2  A    between atoms: C_9  and  C_12
REMARK    3  A    between atoms: C_13  and  C_17
REMARK    4  A    between atoms: C_17  and  C_19
REMARK    5  A    between atoms: C_17  and  C_26
REMARK    6  A    between atoms: C_19  and  C_20
REMARK    7  A    between atoms: C_20  and  C_21
REMARK    8  A    between atoms: C_21  and  C_23
REMARK    9  A    between atoms: C_23  and  C_24
REMARK   10  A    between atoms: C_23  and  C_25
REMARK   11  A    between atoms: C_31  and  C_33
REMARK   12  A    between atoms: C_34  and  O_38
REMARK                            x       y       z     vdW  Elec       q    Type
REMARK                         _______ _______ _______ _____ _____    ______ ____
ROOT
ATOM      1  C   LIG A   1      -8.469   0.202 123.607  0.00  0.00    +0.012 C 
ATOM      2  C   LIG A   1      -7.584  -0.354 124.775  0.00  0.00    -0.026 C 
ATOM      3  C   LIG A   1      -6.494   0.743 125.104  0.00  0.00    -0.001 C 
ATOM      4  C   LIG A   1      -7.134   2.068 125.596  0.00  0.00    -0.004 C 
ATOM      5  C   LIG A   1      -6.076   3.174 125.927  0.00  0.00    -0.001 C 
ATOM      6  C   LIG A   1      -4.802   2.746 126.713  0.00  0.00    -0.026 C 
ATOM      7  C   LIG A   1      -4.308   1.372 126.227  0.00  0.00    +0.007 C 
ATOM      8  C   LIG A   1      -5.383   0.303 126.074  0.00  0.00    +0.005 C 
ATOM      9  C   LIG A   1      -3.662   3.764 126.444  0.00  0.00    +0.012 C 
ATOM     10  C   LIG A   1      -5.290   2.830 128.195  0.00  0.00    -0.002 C 
ATOM     11  C   LIG A   1      -6.204   4.086 128.193  0.00  0.00    +0.004 C 
ATOM     12  C   LIG A   1      -6.631   4.343 126.746  0.00  0.00    +0.004 C 
ATOM     13  C   LIG A   1      -8.290   1.846 126.599  0.00  0.00    +0.004 C 
ATOM     14  C   LIG A   1      -8.471   0.417 127.098  0.00  0.00    +0.005 C 
ATOM     15  C   LIG A   1      -8.534  -0.643 125.986  0.00  0.00    +0.001 C 
ATOM     16  C   LIG A   1      -8.474  -2.092 126.556  0.00  0.00    +0.018 C 
ATOM     17  C   LIG A   1      -7.246  -2.424 127.413  0.00  0.00    +0.010 C 
ATOM     18  C   LIG A   1      -8.654  -3.137 125.437  0.00  0.00    +0.118 C 
ATOM     19  C   LIG A   1      -7.914  -2.833 124.132  0.00  0.00    +0.032 C 
ATOM     20  C   LIG A   1      -6.940  -1.658 124.224  0.00  0.00    +0.009 C 
ENDROOT
BRANCH  10  21
ATOM     21  C   LIG A   1      -4.247   2.924 129.354  0.00  0.00    -0.010 C 
ATOM     22  C   LIG A   1      -4.146   1.664 130.216  0.00  0.00    +0.008 C 
BRANCH  21  23
ATOM     23  C   LIG A   1      -4.474   4.167 130.266  0.00  0.00    +0.008 C 
BRANCH  23  24
ATOM     24  C   LIG A   1      -3.248   4.609 131.084  0.00  0.00    +0.030 C 
BRANCH  24  25
ATOM     25  C   LIG A   1      -2.633   5.895 130.559  0.00  0.00    -0.074 C 
ATOM     26  C   LIG A   1      -1.558   6.427 131.178  0.00  0.00    +0.008 C 
BRANCH  25  27
ATOM     27  C   LIG A   1      -3.300   6.521 129.339  0.00  0.00    +0.008 C 
ATOM     28  C   LIG A   1      -3.960   7.860 129.689  0.00  0.00    +0.012 C 
ATOM     29  C   LIG A   1      -2.362   6.712 128.141  0.00  0.00    +0.012 C 
ENDBRANCH  25  27
ENDBRANCH  24  25
ENDBRANCH  23  24
ENDBRANCH  21  23
ENDBRANCH  10  21
BRANCH  18  30
ATOM     30  O   LIG A   1     -10.047  -3.244 125.120  0.00  0.00    -0.392 OA
ATOM     31  H   LIG A   1     -10.118  -3.736 124.284  0.00  0.00    +0.210 HD
ENDBRANCH  18  30
TORSDOF 6
ENDMDL
MODEL 5
REMARK VINA RESULT:      -7.7      3.750      7.934
REMARK  Name = NuBBE_1989
REMARK  12 active torsions:
REMARK  status: ('A' for Active; 'I' for Inactive)
REMARK    1  A    between atoms: C_1  and  C_2
REMARK    2  A    between atoms: C_9  and  C_12
REMARK    3  A    between atoms: C_13  and  C_17
REMARK    4  A    between atoms: C_17  and  C_19
REMARK    5  A    between atoms: C_17  and  C_26
REMARK    6  A    between atoms: C_19  and  C_20
REMARK    7  A    between atoms: C_20  and  C_21
REMARK    8  A    between atoms: C_21  and  C_23
REMARK    9  A    between atoms: C_23  and  C_24
REMARK   10  A    between atoms: C_23  and  C_25
REMARK   11  A    between atoms: C_31  and  C_33
REMARK   12  A    between atoms: C_34  and  O_38
REMARK                            x       y       z     vdW  Elec       q    Type
REMARK                         _______ _______ _______ _____ _____    ______ ____
ROOT
ATOM      1  C   LIG A   1      -8.949  -0.100 125.377  0.00  0.00    +0.012 C 
ATOM      2  C   LIG A   1      -7.546  -0.792 125.469  0.00  0.00    -0.026 C 
ATOM      3  C   LIG A   1      -7.054  -0.662 126.967  0.00  0.00    -0.001 C 
ATOM      4  C   LIG A   1      -8.000  -1.395 127.954  0.00  0.00    -0.004 C 
ATOM      5  C   LIG A   1      -7.538  -1.280 129.445  0.00  0.00    -0.001 C 
ATOM      6  C   LIG A   1      -6.022  -1.466 129.750  0.00  0.00    -0.026 C 
ATOM      7  C   LIG A   1      -5.169  -0.798 128.659  0.00  0.00    +0.007 C 
ATOM      8  C   LIG A   1      -5.596  -1.083 127.224  0.00  0.00    +0.005 C 
ATOM      9  C   LIG A   1      -5.675  -0.769 131.093  0.00  0.00    +0.012 C 
ATOM     10  C   LIG A   1      -5.904  -3.019 129.879  0.00  0.00    -0.002 C 
ATOM     11  C   LIG A   1      -7.221  -3.413 130.600  0.00  0.00    +0.004 C 
ATOM     12  C   LIG A   1      -8.221  -2.274 130.390  0.00  0.00    +0.004 C 
ATOM     13  C   LIG A   1      -8.455  -2.781 127.440  0.00  0.00    +0.004 C 
ATOM     14  C   LIG A   1      -7.755  -3.287 126.185  0.00  0.00    +0.005 C 
ATOM     15  C   LIG A   1      -7.728  -2.281 125.022  0.00  0.00    +0.001 C 
ATOM     16  C   LIG A   1      -6.798  -2.753 123.864  0.00  0.00    +0.018 C 
ATOM     17  C   LIG A   1      -5.338  -3.025 124.247  0.00  0.00    +0.010 C 
ATOM     18  C   LIG A   1      -6.875  -1.790 122.662  0.00  0.00    +0.118 C 
ATOM     19  C   LIG A   1      -6.903  -0.301 123.018  0.00  0.00    +0.032 C 
ATOM     20  C   LIG A   1      -6.628  -0.004 124.492  0.00  0.00    +0.009 C 
ENDROOT
BRANCH  10  21
ATOM     21  C   LIG A   1      -4.677  -3.648 130.614  0.00  0.00    -0.010 C 
ATOM     22  C   LIG A   1      -3.459  -3.886 129.719  0.00  0.00    +0.008 C 
BRANCH  21  23
ATOM     23  C   LIG A   1      -5.040  -4.964 131.367  0.00  0.00    +0.008 C 
BRANCH  23  24
ATOM     24  C   LIG A   1      -4.597  -5.016 132.839  0.00  0.00    +0.030 C 
BRANCH  24  25
ATOM     25  C   LIG A   1      -5.419  -4.095 133.725  0.00  0.00    -0.074 C 
ATOM     26  C   LIG A   1      -4.876  -2.950 134.190  0.00  0.00    +0.008 C 
BRANCH  25  27
ATOM     27  C   LIG A   1      -6.838  -4.548 134.049  0.00  0.00    +0.008 C 
ATOM     28  C   LIG A   1      -6.861  -5.499 135.250  0.00  0.00    +0.012 C 
ATOM     29  C   LIG A   1      -7.823  -3.398 134.289  0.00  0.00    +0.012 C 
ENDBRANCH  25  27
ENDBRANCH  24  25
ENDBRANCH  23  24
ENDBRANCH  21  23
ENDBRANCH  10  21
BRANCH  18  30
ATOM     30  O   LIG A   1      -8.063  -2.071 121.915  0.00  0.00    -0.392 OA
ATOM     31  H   LIG A   1      -8.789  -2.181 122.553  0.00  0.00    +0.210 HD
ENDBRANCH  18  30
TORSDOF 6
ENDMDL
MODEL 6
REMARK VINA RESULT:      -7.6      3.196      7.933
REMARK  Name = NuBBE_1989
REMARK  12 active torsions:
REMARK  status: ('A' for Active; 'I' for Inactive)
REMARK    1  A    between atoms: C_1  and  C_2
REMARK    2  A    between atoms: C_9  and  C_12
REMARK    3  A    between atoms: C_13  and  C_17
REMARK    4  A    between atoms: C_17  and  C_19
REMARK    5  A    between atoms: C_17  and  C_26
REMARK    6  A    between atoms: C_19  and  C_20
REMARK    7  A    between atoms: C_20  and  C_21
REMARK    8  A    between atoms: C_21  and  C_23
REMARK    9  A    between atoms: C_23  and  C_24
REMARK   10  A    between atoms: C_23  and  C_25
REMARK   11  A    between atoms: C_31  and  C_33
REMARK   12  A    between atoms: C_34  and  O_38
REMARK                            x       y       z     vdW  Elec       q    Type
REMARK                         _______ _______ _______ _____ _____    ______ ____
ROOT
ATOM      1  C   LIG A   1      -8.158  -0.158 123.148  0.00  0.00    +0.012 C 
ATOM      2  C   LIG A   1      -7.502  -0.585 124.505  0.00  0.00    -0.026 C 
ATOM      3  C   LIG A   1      -6.467   0.542 124.904  0.00  0.00    -0.001 C 
ATOM      4  C   LIG A   1      -7.158   1.912 125.133  0.00  0.00    -0.004 C 
ATOM      5  C   LIG A   1      -6.156   3.047 125.527  0.00  0.00    -0.001 C 
ATOM      6  C   LIG A   1      -5.047   2.706 126.566  0.00  0.00    -0.026 C 
ATOM      7  C   LIG A   1      -4.501   1.289 126.323  0.00  0.00    +0.007 C 
ATOM      8  C   LIG A   1      -5.551   0.209 126.096  0.00  0.00    +0.005 C 
ATOM      9  C   LIG A   1      -3.859   3.691 126.396  0.00  0.00    +0.012 C 
ATOM     10  C   LIG A   1      -5.786   2.948 127.922  0.00  0.00    -0.002 C 
ATOM     11  C   LIG A   1      -6.662   4.196 127.626  0.00  0.00    +0.004 C 
ATOM     12  C   LIG A   1      -6.823   4.297 126.107  0.00  0.00    +0.004 C 
ATOM     13  C   LIG A   1      -8.477   1.797 125.934  0.00  0.00    +0.004 C 
ATOM     14  C   LIG A   1      -8.769   0.431 126.541  0.00  0.00    +0.005 C 
ATOM     15  C   LIG A   1      -8.654  -0.743 125.554  0.00  0.00    +0.001 C 
ATOM     16  C   LIG A   1      -8.722  -2.122 126.275  0.00  0.00    +0.018 C 
ATOM     17  C   LIG A   1      -7.670  -2.360 127.365  0.00  0.00    +0.010 C 
ATOM     18  C   LIG A   1      -8.723  -3.281 125.258  0.00  0.00    +0.118 C 
ATOM     19  C   LIG A   1      -7.759  -3.118 124.080  0.00  0.00    +0.032 C 
ATOM     20  C   LIG A   1      -6.795  -1.940 124.218  0.00  0.00    +0.009 C 
ENDROOT
BRANCH  10  21
ATOM     21  C   LIG A   1      -4.960   3.167 129.230  0.00  0.00    -0.010 C 
ATOM     22  C   LIG A   1      -4.405   1.882 129.846  0.00  0.00    +0.008 C 
BRANCH  21  23
ATOM     23  C   LIG A   1      -5.748   3.969 130.309  0.00  0.00    +0.008 C 
BRANCH  23  24
ATOM     24  C   LIG A   1      -6.651   3.122 131.222  0.00  0.00    +0.030 C 
BRANCH  24  25
ATOM     25  C   LIG A   1      -8.125   3.277 130.885  0.00  0.00    -0.074 C 
ATOM     26  C   LIG A   1      -8.671   4.509 130.811  0.00  0.00    +0.008 C 
BRANCH  25  27
ATOM     27  C   LIG A   1      -8.912   1.990 130.660  0.00  0.00    +0.008 C 
ATOM     28  C   LIG A   1      -8.013   0.873 130.117  0.00  0.00    +0.012 C 
ATOM     29  C   LIG A   1      -9.658   1.487 131.902  0.00  0.00    +0.012 C 
ENDBRANCH  25  27
ENDBRANCH  24  25
ENDBRANCH  23  24
ENDBRANCH  21  23
ENDBRANCH  10  21
BRANCH  18  30
ATOM     30  O   LIG A   1     -10.040  -3.423 124.714  0.00  0.00    -0.392 OA
ATOM     31  H   LIG A   1      -9.964  -3.952 123.901  0.00  0.00    +0.210 HD
ENDBRANCH  18  30
TORSDOF 6
ENDMDL
MODEL 7
REMARK VINA RESULT:      -7.5      3.418      5.346
REMARK  Name = NuBBE_1989
REMARK  12 active torsions:
REMARK  status: ('A' for Active; 'I' for Inactive)
REMARK    1  A    between atoms: C_1  and  C_2
REMARK    2  A    between atoms: C_9  and  C_12
REMARK    3  A    between atoms: C_13  and  C_17
REMARK    4  A    between atoms: C_17  and  C_19
REMARK    5  A    between atoms: C_17  and  C_26
REMARK    6  A    between atoms: C_19  and  C_20
REMARK    7  A    between atoms: C_20  and  C_21
REMARK    8  A    between atoms: C_21  and  C_23
REMARK    9  A    between atoms: C_23  and  C_24
REMARK   10  A    between atoms: C_23  and  C_25
REMARK   11  A    between atoms: C_31  and  C_33
REMARK   12  A    between atoms: C_34  and  O_38
REMARK                            x       y       z     vdW  Elec       q    Type
REMARK                         _______ _______ _______ _____ _____    ______ ____
ROOT
ATOM      1  C   LIG A   1     -10.860   3.751 130.358  0.00  0.00    +0.012 C 
ATOM      2  C   LIG A   1      -9.483   3.948 131.081  0.00  0.00    -0.026 C 
ATOM      3  C   LIG A   1      -9.017   2.529 131.601  0.00  0.00    -0.001 C 
ATOM      4  C   LIG A   1      -8.792   1.529 130.437  0.00  0.00    -0.004 C 
ATOM      5  C   LIG A   1      -8.332   0.114 130.924  0.00  0.00    -0.001 C 
ATOM      6  C   LIG A   1      -7.253   0.049 132.044  0.00  0.00    -0.026 C 
ATOM      7  C   LIG A   1      -7.499   1.147 133.093  0.00  0.00    +0.007 C 
ATOM      8  C   LIG A   1      -7.793   2.535 132.535  0.00  0.00    +0.005 C 
ATOM      9  C   LIG A   1      -7.350  -1.315 132.778  0.00  0.00    +0.012 C 
ATOM     10  C   LIG A   1      -5.926   0.150 131.224  0.00  0.00    -0.002 C 
ATOM     11  C   LIG A   1      -6.234  -0.686 129.952  0.00  0.00    +0.004 C 
ATOM     12  C   LIG A   1      -7.756  -0.772 129.815  0.00  0.00    +0.004 C 
ATOM     13  C   LIG A   1      -8.051   2.159 129.234  0.00  0.00    +0.004 C 
ATOM     14  C   LIG A   1      -7.485   3.555 129.459  0.00  0.00    +0.005 C 
ATOM     15  C   LIG A   1      -8.490   4.564 130.040  0.00  0.00    +0.001 C 
ATOM     16  C   LIG A   1      -7.800   5.892 130.474  0.00  0.00    +0.018 C 
ATOM     17  C   LIG A   1      -6.670   5.754 131.501  0.00  0.00    +0.010 C 
ATOM     18  C   LIG A   1      -8.839   6.930 130.944  0.00  0.00    +0.118 C 
ATOM     19  C   LIG A   1      -9.970   6.375 131.813  0.00  0.00    +0.032 C 
ATOM     20  C   LIG A   1      -9.767   4.927 132.256  0.00  0.00    +0.009 C 
ENDROOT
BRANCH  10  21
ATOM     21  C   LIG A   1      -4.579  -0.317 131.863  0.00  0.00    -0.010 C 
ATOM     22  C   LIG A   1      -3.720   0.818 132.424  0.00  0.00    +0.008 C 
BRANCH  21  23
ATOM     23  C   LIG A   1      -3.727  -1.190 130.894  0.00  0.00    +0.008 C 
BRANCH  23  24
ATOM     24  C   LIG A   1      -3.508  -2.644 131.346  0.00  0.00    +0.030 C 
BRANCH  24  25
ATOM     25  C   LIG A   1      -4.007  -3.651 130.324  0.00  0.00    -0.074 C 
ATOM     26  C   LIG A   1      -3.419  -3.724 129.111  0.00  0.00    +0.008 C 
BRANCH  25  27
ATOM     27  C   LIG A   1      -5.182  -4.526 130.745  0.00  0.00    +0.008 C 
ATOM     28  C   LIG A   1      -5.377  -4.506 132.265  0.00  0.00    +0.012 C 
ATOM     29  C   LIG A   1      -6.505  -4.173 130.056  0.00  0.00    +0.012 C 
ENDBRANCH  25  27
ENDBRANCH  24  25
ENDBRANCH  23  24
ENDBRANCH  21  23
ENDBRANCH  10  21
BRANCH  18  30
ATOM     30  O   LIG A   1      -9.443   7.537 129.797  0.00  0.00    -0.392 OA
ATOM     31  H   LIG A   1      -8.736   7.978 129.295  0.00  0.00    +0.210 HD
ENDBRANCH  18  30
TORSDOF 6
ENDMDL
MODEL 8
REMARK VINA RESULT:      -7.5      3.097      5.091
REMARK  Name = NuBBE_1989
REMARK  12 active torsions:
REMARK  status: ('A' for Active; 'I' for Inactive)
REMARK    1  A    between atoms: C_1  and  C_2
REMARK    2  A    between atoms: C_9  and  C_12
REMARK    3  A    between atoms: C_13  and  C_17
REMARK    4  A    between atoms: C_17  and  C_19
REMARK    5  A    between atoms: C_17  and  C_26
REMARK    6  A    between atoms: C_19  and  C_20
REMARK    7  A    between atoms: C_20  and  C_21
REMARK    8  A    between atoms: C_21  and  C_23
REMARK    9  A    between atoms: C_23  and  C_24
REMARK   10  A    between atoms: C_23  and  C_25
REMARK   11  A    between atoms: C_31  and  C_33
REMARK   12  A    between atoms: C_34  and  O_38
REMARK                            x       y       z     vdW  Elec       q    Type
REMARK                         _______ _______ _______ _____ _____    ______ ____
ROOT
ATOM      1  C   LIG A   1      -5.229  -4.682 130.647  0.00  0.00    +0.012 C 
ATOM      2  C   LIG A   1      -5.684  -3.213 130.944  0.00  0.00    -0.026 C 
ATOM      3  C   LIG A   1      -5.430  -2.367 129.633  0.00  0.00    -0.001 C 
ATOM      4  C   LIG A   1      -6.272  -2.882 128.437  0.00  0.00    -0.004 C 
ATOM      5  C   LIG A   1      -6.038  -2.063 127.123  0.00  0.00    -0.001 C 
ATOM      6  C   LIG A   1      -5.969  -0.512 127.239  0.00  0.00    -0.026 C 
ATOM      7  C   LIG A   1      -5.208  -0.101 128.512  0.00  0.00    +0.007 C 
ATOM      8  C   LIG A   1      -5.603  -0.844 129.782  0.00  0.00    +0.005 C 
ATOM      9  C   LIG A   1      -5.183   0.064 126.030  0.00  0.00    +0.012 C 
ATOM     10  C   LIG A   1      -7.478  -0.112 127.167  0.00  0.00    -0.002 C 
ATOM     11  C   LIG A   1      -8.055  -1.106 126.123  0.00  0.00    +0.004 C 
ATOM     12  C   LIG A   1      -7.097  -2.298 126.042  0.00  0.00    +0.004 C 
ATOM     13  C   LIG A   1      -7.729  -3.226 128.827  0.00  0.00    +0.004 C 
ATOM     14  C   LIG A   1      -8.156  -2.814 130.230  0.00  0.00    +0.005 C 
ATOM     15  C   LIG A   1      -7.197  -3.262 131.345  0.00  0.00    +0.001 C 
ATOM     16  C   LIG A   1      -7.550  -2.611 132.716  0.00  0.00    +0.018 C 
ATOM     17  C   LIG A   1      -7.572  -1.078 132.743  0.00  0.00    +0.010 C 
ATOM     18  C   LIG A   1      -6.650  -3.162 133.841  0.00  0.00    +0.118 C 
ATOM     19  C   LIG A   1      -5.175  -3.337 133.472  0.00  0.00    +0.032 C 
ATOM     20  C   LIG A   1      -4.791  -2.730 132.123  0.00  0.00    +0.009 C 
ENDROOT
BRANCH  10  21
ATOM     21  C   LIG A   1      -7.879   1.352 126.797  0.00  0.00    -0.010 C 
ATOM     22  C   LIG A   1      -8.304   2.210 127.989  0.00  0.00    +0.008 C 
BRANCH  21  23
ATOM     23  C   LIG A   1      -8.975   1.411 125.690  0.00  0.00    +0.008 C 
BRANCH  23  24
ATOM     24  C   LIG A   1      -8.791   2.529 124.648  0.00  0.00    +0.030 C 
BRANCH  24  25
ATOM     25  C   LIG A   1      -7.493   2.388 123.871  0.00  0.00    -0.074 C 
ATOM     26  C   LIG A   1      -7.199   1.221 123.259  0.00  0.00    +0.008 C 
BRANCH  25  27
ATOM     27  C   LIG A   1      -6.578   3.607 123.846  0.00  0.00    +0.008 C 
ATOM     28  C   LIG A   1      -5.528   3.540 124.961  0.00  0.00    +0.012 C 
ATOM     29  C   LIG A   1      -5.880   3.839 122.500  0.00  0.00    +0.012 C 
ENDBRANCH  25  27
ENDBRANCH  24  25
ENDBRANCH  23  24
ENDBRANCH  21  23
ENDBRANCH  10  21
BRANCH  18  30
ATOM     30  O   LIG A   1      -7.142  -4.445 134.244  0.00  0.00    -0.392 OA
ATOM     31  H   LIG A   1      -8.111  -4.382 134.298  0.00  0.00    +0.210 HD
ENDBRANCH  18  30
TORSDOF 6
ENDMDL
MODEL 9
REMARK VINA RESULT:      -7.5      3.421      4.778
REMARK  Name = NuBBE_1989
REMARK  12 active torsions:
REMARK  status: ('A' for Active; 'I' for Inactive)
REMARK    1  A    between atoms: C_1  and  C_2
REMARK    2  A    between atoms: C_9  and  C_12
REMARK    3  A    between atoms: C_13  and  C_17
REMARK    4  A    between atoms: C_17  and  C_19
REMARK    5  A    between atoms: C_17  and  C_26
REMARK    6  A    between atoms: C_19  and  C_20
REMARK    7  A    between atoms: C_20  and  C_21
REMARK    8  A    between atoms: C_21  and  C_23
REMARK    9  A    between atoms: C_23  and  C_24
REMARK   10  A    between atoms: C_23  and  C_25
REMARK   11  A    between atoms: C_31  and  C_33
REMARK   12  A    between atoms: C_34  and  O_38
REMARK                            x       y       z     vdW  Elec       q    Type
REMARK                         _______ _______ _______ _____ _____    ______ ____
ROOT
ATOM      1  C   LIG A   1      -5.511   5.847 130.331  0.00  0.00    +0.012 C 
ATOM      2  C   LIG A   1      -4.685   4.675 129.699  0.00  0.00    -0.026 C 
ATOM      3  C   LIG A   1      -5.487   3.338 129.960  0.00  0.00    -0.001 C 
ATOM      4  C   LIG A   1      -6.877   3.351 129.272  0.00  0.00    -0.004 C 
ATOM      5  C   LIG A   1      -7.695   2.038 129.516  0.00  0.00    -0.001 C 
ATOM      6  C   LIG A   1      -6.938   0.682 129.408  0.00  0.00    -0.026 C 
ATOM      7  C   LIG A   1      -5.532   0.801 130.021  0.00  0.00    +0.007 C 
ATOM      8  C   LIG A   1      -4.740   2.037 129.612  0.00  0.00    +0.005 C 
ATOM      9  C   LIG A   1      -7.700  -0.402 130.218  0.00  0.00    +0.012 C 
ATOM     10  C   LIG A   1      -7.011   0.390 127.875  0.00  0.00    -0.002 C 
ATOM     11  C   LIG A   1      -8.432   0.882 127.490  0.00  0.00    +0.004 C 
ATOM     12  C   LIG A   1      -8.890   1.862 128.574  0.00  0.00    +0.004 C 
ATOM     13  C   LIG A   1      -6.836   3.923 127.835  0.00  0.00    +0.004 C 
ATOM     14  C   LIG A   1      -5.447   4.174 127.260  0.00  0.00    +0.005 C 
ATOM     15  C   LIG A   1      -4.517   4.989 128.174  0.00  0.00    +0.001 C 
ATOM     16  C   LIG A   1      -3.050   5.006 127.649  0.00  0.00    +0.018 C 
ATOM     17  C   LIG A   1      -2.391   3.634 127.459  0.00  0.00    +0.010 C 
ATOM     18  C   LIG A   1      -2.161   5.921 128.514  0.00  0.00    +0.118 C 
ATOM     19  C   LIG A   1      -2.397   5.825 130.023  0.00  0.00    +0.032 C 
ATOM     20  C   LIG A   1      -3.318   4.680 130.442  0.00  0.00    +0.009 C 
ENDROOT
BRANCH  10  21
ATOM     21  C   LIG A   1      -6.783  -1.063 127.348  0.00  0.00    -0.010 C 
ATOM     22  C   LIG A   1      -5.403  -1.302 126.733  0.00  0.00    +0.008 C 
BRANCH  21  23
ATOM     23  C   LIG A   1      -7.889  -1.519 126.349  0.00  0.00    +0.008 C 
BRANCH  23  24
ATOM     24  C   LIG A   1      -7.597  -2.835 125.607  0.00  0.00    +0.030 C 
BRANCH  24  25
ATOM     25  C   LIG A   1      -7.965  -2.765 124.135  0.00  0.00    -0.074 C 
ATOM     26  C   LIG A   1      -9.211  -3.101 123.737  0.00  0.00    +0.008 C 
BRANCH  25  27
ATOM     27  C   LIG A   1      -6.866  -2.320 123.177  0.00  0.00    +0.008 C 
ATOM     28  C   LIG A   1      -6.784  -0.791 123.092  0.00  0.00    +0.012 C 
ATOM     29  C   LIG A   1      -5.480  -2.887 123.507  0.00  0.00    +0.012 C 
ENDBRANCH  25  27
ENDBRANCH  24  25
ENDBRANCH  23  24
ENDBRANCH  21  23
ENDBRANCH  10  21
BRANCH  18  30
ATOM     30  O   LIG A   1      -2.386   7.284 128.134  0.00  0.00    -0.392 OA
ATOM     31  H   LIG A   1      -2.304   7.827 128.936  0.00  0.00    +0.210 HD
ENDBRANCH  18  30
TORSDOF 6
ENDMDL
