MODEL 1
REMARK VINA RESULT:      -3.7      0.000      0.000
REMARK  Name = NuBBE_398
REMARK  7 active torsions:
REMARK  status: ('A' for Active; 'I' for Inactive)
REMARK    1  A    between atoms: C_1  and  C_2
REMARK    2  A    between atoms: C_2  and  C_3
REMARK    3  A    between atoms: C_3  and  S_4
REMARK    4  A    between atoms: S_4  and  S_5
REMARK    5  A    between atoms: S_5  and  C_6
REMARK    6  A    between atoms: C_6  and  C_7
REMARK    7  A    between atoms: C_7  and  C_8
REMARK                            x       y       z     vdW  Elec       q    Type
REMARK                         _______ _______ _______ _____ _____    ______ ____
ROOT
ATOM      1  S   LIG A   1      -8.580  -2.834 123.644  0.00  0.00    -0.093 S 
ENDROOT
BRANCH   1   2
ATOM      2  C   LIG A   1      -8.178  -3.608 125.251  0.00  0.00    +0.080 C 
BRANCH   2   4
ATOM      3  C   LIG A   1      -8.857  -3.926 127.700  0.00  0.00    +0.004 C 
ATOM      4  C   LIG A   1      -8.988  -3.084 126.438  0.00  0.00    +0.008 C 
ENDBRANCH   2   4
ENDBRANCH   1   2
BRANCH   1   5
ATOM      5  S   LIG A   1      -6.901  -1.725 123.220  0.00  0.00    -0.093 S 
BRANCH   5   6
ATOM      6  C   LIG A   1      -5.628  -2.539 124.238  0.00  0.00    +0.080 C 
BRANCH   6   7
ATOM      7  C   LIG A   1      -4.641  -3.355 123.398  0.00  0.00    +0.008 C 
ATOM      8  C   LIG A   1      -4.590  -4.835 123.750  0.00  0.00    +0.004 C 
ENDBRANCH   6   7
ENDBRANCH   5   6
ENDBRANCH   1   5
TORSDOF 5
ENDMDL
MODEL 2
REMARK VINA RESULT:      -3.7      1.438      4.092
REMARK  Name = NuBBE_398
REMARK  7 active torsions:
REMARK  status: ('A' for Active; 'I' for Inactive)
REMARK    1  A    between atoms: C_1  and  C_2
REMARK    2  A    between atoms: C_2  and  C_3
REMARK    3  A    between atoms: C_3  and  S_4
REMARK    4  A    between atoms: S_4  and  S_5
REMARK    5  A    between atoms: S_5  and  C_6
REMARK    6  A    between atoms: C_6  and  C_7
REMARK    7  A    between atoms: C_7  and  C_8
REMARK                            x       y       z     vdW  Elec       q    Type
REMARK                         _______ _______ _______ _____ _____    ______ ____
ROOT
ATOM      1  S   LIG A   1      -6.704  -0.648 123.960  0.00  0.00    -0.093 S 
ENDROOT
BRANCH   1   2
ATOM      2  C   LIG A   1      -5.507  -1.950 124.426  0.00  0.00    +0.080 C 
BRANCH   2   4
ATOM      3  C   LIG A   1      -4.586  -4.254 123.792  0.00  0.00    +0.004 C 
ATOM      4  C   LIG A   1      -5.151  -2.927 123.304  0.00  0.00    +0.008 C 
ENDBRANCH   2   4
ENDBRANCH   1   2
BRANCH   1   5
ATOM      5  S   LIG A   1      -8.361  -1.102 125.091  0.00  0.00    -0.093 S 
BRANCH   5   6
ATOM      6  C   LIG A   1      -8.007  -2.805 125.635  0.00  0.00    +0.080 C 
BRANCH   6   7
ATOM      7  C   LIG A   1      -8.562  -3.854 124.668  0.00  0.00    +0.008 C 
ATOM      8  C   LIG A   1      -9.429  -3.285 123.554  0.00  0.00    +0.004 C 
ENDBRANCH   6   7
ENDBRANCH   5   6
ENDBRANCH   1   5
TORSDOF 5
ENDMDL
MODEL 3
REMARK VINA RESULT:      -3.6      2.027      2.474
REMARK  Name = NuBBE_398
REMARK  7 active torsions:
REMARK  status: ('A' for Active; 'I' for Inactive)
REMARK    1  A    between atoms: C_1  and  C_2
REMARK    2  A    between atoms: C_2  and  C_3
REMARK    3  A    between atoms: C_3  and  S_4
REMARK    4  A    between atoms: S_4  and  S_5
REMARK    5  A    between atoms: S_5  and  C_6
REMARK    6  A    between atoms: C_6  and  C_7
REMARK    7  A    between atoms: C_7  and  C_8
REMARK                            x       y       z     vdW  Elec       q    Type
REMARK                         _______ _______ _______ _____ _____    ______ ____
ROOT
ATOM      1  S   LIG A   1      -6.888  -0.568 123.332  0.00  0.00    -0.093 S 
ENDROOT
BRANCH   1   2
ATOM      2  C   LIG A   1      -8.631  -1.030 123.632  0.00  0.00    +0.080 C 
BRANCH   2   4
ATOM      3  C   LIG A   1      -9.357  -3.449 124.053  0.00  0.00    +0.004 C 
ATOM      4  C   LIG A   1      -9.056  -2.368 123.025  0.00  0.00    +0.008 C 
ENDBRANCH   2   4
ENDBRANCH   1   2
BRANCH   1   5
ATOM      5  S   LIG A   1      -5.937  -1.167 125.054  0.00  0.00    -0.093 S 
BRANCH   5   6
ATOM      6  C   LIG A   1      -5.732  -2.958 124.784  0.00  0.00    +0.080 C 
BRANCH   6   7
ATOM      7  C   LIG A   1      -4.965  -3.271 123.497  0.00  0.00    +0.008 C 
ATOM      8  C   LIG A   1      -4.220  -4.599 123.516  0.00  0.00    +0.004 C 
ENDBRANCH   6   7
ENDBRANCH   5   6
ENDBRANCH   1   5
TORSDOF 5
ENDMDL
MODEL 4
REMARK VINA RESULT:      -3.6      1.012      4.474
REMARK  Name = NuBBE_398
REMARK  7 active torsions:
REMARK  status: ('A' for Active; 'I' for Inactive)
REMARK    1  A    between atoms: C_1  and  C_2
REMARK    2  A    between atoms: C_2  and  C_3
REMARK    3  A    between atoms: C_3  and  S_4
REMARK    4  A    between atoms: S_4  and  S_5
REMARK    5  A    between atoms: S_5  and  C_6
REMARK    6  A    between atoms: C_6  and  C_7
REMARK    7  A    between atoms: C_7  and  C_8
REMARK                            x       y       z     vdW  Elec       q    Type
REMARK                         _______ _______ _______ _____ _____    ______ ____
ROOT
ATOM      1  S   LIG A   1      -6.773  -1.538 123.562  0.00  0.00    -0.093 S 
ENDROOT
BRANCH   1   2
ATOM      2  C   LIG A   1      -5.818  -2.930 124.266  0.00  0.00    +0.080 C 
BRANCH   2   4
ATOM      3  C   LIG A   1      -4.255  -4.819 123.527  0.00  0.00    +0.004 C 
ATOM      4  C   LIG A   1      -4.582  -3.334 123.460  0.00  0.00    +0.008 C 
ENDBRANCH   2   4
ENDBRANCH   1   2
BRANCH   1   5
ATOM      5  S   LIG A   1      -8.149  -1.118 125.031  0.00  0.00    -0.093 S 
BRANCH   5   6
ATOM      6  C   LIG A   1      -7.772  -2.379 126.292  0.00  0.00    +0.080 C 
BRANCH   6   7
ATOM      7  C   LIG A   1      -8.975  -3.273 126.602  0.00  0.00    +0.008 C 
ATOM      8  C   LIG A   1      -8.923  -3.944 127.968  0.00  0.00    +0.004 C 
ENDBRANCH   6   7
ENDBRANCH   5   6
ENDBRANCH   1   5
TORSDOF 5
ENDMDL
MODEL 5
REMARK VINA RESULT:      -3.6     11.762     12.983
REMARK  Name = NuBBE_398
REMARK  7 active torsions:
REMARK  status: ('A' for Active; 'I' for Inactive)
REMARK    1  A    between atoms: C_1  and  C_2
REMARK    2  A    between atoms: C_2  and  C_3
REMARK    3  A    between atoms: C_3  and  S_4
REMARK    4  A    between atoms: S_4  and  S_5
REMARK    5  A    between atoms: S_5  and  C_6
REMARK    6  A    between atoms: C_6  and  C_7
REMARK    7  A    between atoms: C_7  and  C_8
REMARK                            x       y       z     vdW  Elec       q    Type
REMARK                         _______ _______ _______ _____ _____    ______ ____
ROOT
ATOM      1  S   LIG A   1     -10.176   6.721 128.966  0.00  0.00    -0.093 S 
ENDROOT
BRANCH   1   2
ATOM      2  C   LIG A   1     -11.599   6.069 129.910  0.00  0.00    +0.080 C 
BRANCH   2   4
ATOM      3  C   LIG A   1     -12.933   7.535 131.532  0.00  0.00    +0.004 C 
ATOM      4  C   LIG A   1     -11.734   6.619 131.331  0.00  0.00    +0.008 C 
ENDBRANCH   2   4
ENDBRANCH   1   2
BRANCH   1   5
ATOM      5  S   LIG A   1     -11.060   7.889 127.522  0.00  0.00    -0.093 S 
BRANCH   5   6
ATOM      6  C   LIG A   1     -12.683   7.087 127.312  0.00  0.00    +0.080 C 
BRANCH   6   7
ATOM      7  C   LIG A   1     -13.839   7.982 127.765  0.00  0.00    +0.008 C 
ATOM      8  C   LIG A   1     -13.405   9.269 128.454  0.00  0.00    +0.004 C 
ENDBRANCH   6   7
ENDBRANCH   5   6
ENDBRANCH   1   5
TORSDOF 5
ENDMDL
MODEL 6
REMARK VINA RESULT:      -3.6     12.143     12.924
REMARK  Name = NuBBE_398
REMARK  7 active torsions:
REMARK  status: ('A' for Active; 'I' for Inactive)
REMARK    1  A    between atoms: C_1  and  C_2
REMARK    2  A    between atoms: C_2  and  C_3
REMARK    3  A    between atoms: C_3  and  S_4
REMARK    4  A    between atoms: S_4  and  S_5
REMARK    5  A    between atoms: S_5  and  C_6
REMARK    6  A    between atoms: C_6  and  C_7
REMARK    7  A    between atoms: C_7  and  C_8
REMARK                            x       y       z     vdW  Elec       q    Type
REMARK                         _______ _______ _______ _____ _____    ______ ____
ROOT
ATOM      1  S   LIG A   1     -12.995   7.039 129.199  0.00  0.00    -0.093 S 
ENDROOT
BRANCH   1   2
ATOM      2  C   LIG A   1     -12.334   8.548 128.407  0.00  0.00    +0.080 C 
BRANCH   2   4
ATOM      3  C   LIG A   1     -10.947   7.628 126.460  0.00  0.00    +0.004 C 
ATOM      4  C   LIG A   1     -10.948   8.390 127.778  0.00  0.00    +0.008 C 
ENDBRANCH   2   4
ENDBRANCH   1   2
BRANCH   1   5
ATOM      5  S   LIG A   1     -12.720   7.398 131.206  0.00  0.00    -0.093 S 
BRANCH   5   6
ATOM      6  C   LIG A   1     -11.342   6.278 131.617  0.00  0.00    +0.080 C 
BRANCH   6   7
ATOM      7  C   LIG A   1     -10.050   6.649 130.885  0.00  0.00    +0.008 C 
ATOM      8  C   LIG A   1      -8.778   6.363 131.672  0.00  0.00    +0.004 C 
ENDBRANCH   6   7
ENDBRANCH   5   6
ENDBRANCH   1   5
TORSDOF 5
ENDMDL
MODEL 7
REMARK VINA RESULT:      -3.5     12.369     13.797
REMARK  Name = NuBBE_398
REMARK  7 active torsions:
REMARK  status: ('A' for Active; 'I' for Inactive)
REMARK    1  A    between atoms: C_1  and  C_2
REMARK    2  A    between atoms: C_2  and  C_3
REMARK    3  A    between atoms: C_3  and  S_4
REMARK    4  A    between atoms: S_4  and  S_5
REMARK    5  A    between atoms: S_5  and  C_6
REMARK    6  A    between atoms: C_6  and  C_7
REMARK    7  A    between atoms: C_7  and  C_8
REMARK                            x       y       z     vdW  Elec       q    Type
REMARK                         _______ _______ _______ _____ _____    ______ ____
ROOT
ATOM      1  S   LIG A   1     -12.013   6.942 130.538  0.00  0.00    -0.093 S 
ENDROOT
BRANCH   1   2
ATOM      2  C   LIG A   1     -10.372   6.265 130.101  0.00  0.00    +0.080 C 
BRANCH   2   4
ATOM      3  C   LIG A   1      -8.132   6.641 131.284  0.00  0.00    +0.004 C 
ATOM      4  C   LIG A   1      -9.198   7.210 130.358  0.00  0.00    +0.008 C 
ENDBRANCH   2   4
ENDBRANCH   1   2
BRANCH   1   5
ATOM      5  S   LIG A   1     -12.981   7.043 128.726  0.00  0.00    -0.093 S 
BRANCH   5   6
ATOM      6  C   LIG A   1     -13.225   8.837 128.514  0.00  0.00    +0.080 C 
BRANCH   6   7
ATOM      7  C   LIG A   1     -12.913   9.624 129.790  0.00  0.00    +0.008 C 
ATOM      8  C   LIG A   1     -13.559  11.001 129.851  0.00  0.00    +0.004 C 
ENDBRANCH   6   7
ENDBRANCH   5   6
ENDBRANCH   1   5
TORSDOF 5
ENDMDL
MODEL 8
REMARK VINA RESULT:      -3.4     12.106     13.656
REMARK  Name = NuBBE_398
REMARK  7 active torsions:
REMARK  status: ('A' for Active; 'I' for Inactive)
REMARK    1  A    between atoms: C_1  and  C_2
REMARK    2  A    between atoms: C_2  and  C_3
REMARK    3  A    between atoms: C_3  and  S_4
REMARK    4  A    between atoms: S_4  and  S_5
REMARK    5  A    between atoms: S_5  and  C_6
REMARK    6  A    between atoms: C_6  and  C_7
REMARK    7  A    between atoms: C_7  and  C_8
REMARK                            x       y       z     vdW  Elec       q    Type
REMARK                         _______ _______ _______ _____ _____    ______ ____
ROOT
ATOM      1  S   LIG A   1     -10.207   7.534 129.503  0.00  0.00    -0.093 S 
ENDROOT
BRANCH   1   2
ATOM      2  C   LIG A   1     -10.281   6.899 127.790  0.00  0.00    +0.080 C 
BRANCH   2   4
ATOM      3  C   LIG A   1     -12.455   7.102 126.451  0.00  0.00    +0.004 C 
ATOM      4  C   LIG A   1     -11.125   7.739 126.829  0.00  0.00    +0.008 C 
ENDBRANCH   2   4
ENDBRANCH   1   2
BRANCH   1   5
ATOM      5  S   LIG A   1     -11.815   6.630 130.412  0.00  0.00    -0.093 S 
BRANCH   5   6
ATOM      6  C   LIG A   1     -12.912   8.044 130.760  0.00  0.00    +0.080 C 
BRANCH   6   7
ATOM      7  C   LIG A   1     -12.799   9.144 129.703  0.00  0.00    +0.008 C 
ATOM      8  C   LIG A   1     -13.318  10.503 130.152  0.00  0.00    +0.004 C 
ENDBRANCH   6   7
ENDBRANCH   5   6
ENDBRANCH   1   5
TORSDOF 5
ENDMDL
MODEL 9
REMARK VINA RESULT:      -3.4     11.371     12.451
REMARK  Name = NuBBE_398
REMARK  7 active torsions:
REMARK  status: ('A' for Active; 'I' for Inactive)
REMARK    1  A    between atoms: C_1  and  C_2
REMARK    2  A    between atoms: C_2  and  C_3
REMARK    3  A    between atoms: C_3  and  S_4
REMARK    4  A    between atoms: S_4  and  S_5
REMARK    5  A    between atoms: S_5  and  C_6
REMARK    6  A    between atoms: C_6  and  C_7
REMARK    7  A    between atoms: C_7  and  C_8
REMARK                            x       y       z     vdW  Elec       q    Type
REMARK                         _______ _______ _______ _____ _____    ______ ____
ROOT
ATOM      1  S   LIG A   1     -11.993   6.817 131.039  0.00  0.00    -0.093 S 
ENDROOT
BRANCH   1   2
ATOM      2  C   LIG A   1     -12.751   7.407 129.483  0.00  0.00    +0.080 C 
BRANCH   2   4
ATOM      3  C   LIG A   1     -10.832   8.462 128.154  0.00  0.00    +0.004 C 
ATOM      4  C   LIG A   1     -12.134   8.685 128.911  0.00  0.00    +0.008 C 
ENDBRANCH   2   4
ENDBRANCH   1   2
BRANCH   1   5
ATOM      5  S   LIG A   1     -11.024   5.094 130.470  0.00  0.00    -0.093 S 
BRANCH   5   6
ATOM      6  C   LIG A   1      -9.356   5.703 130.058  0.00  0.00    +0.080 C 
BRANCH   6   7
ATOM      7  C   LIG A   1      -8.842   6.729 131.071  0.00  0.00    +0.008 C 
ATOM      8  C   LIG A   1      -7.326   6.867 131.109  0.00  0.00    +0.004 C 
ENDBRANCH   6   7
ENDBRANCH   5   6
ENDBRANCH   1   5
TORSDOF 5
ENDMDL
