MODEL 1
REMARK VINA RESULT:      -7.9      0.000      0.000
REMARK  Name = NuBBE_202
REMARK  8 active torsions:
REMARK  status: ('A' for Active; 'I' for Inactive)
REMARK    1  A    between atoms: C_1  and  C_2
REMARK    2  A    between atoms: C_3  and  C_4
REMARK    3  A    between atoms: C_4  and  O_5
REMARK    4  A    between atoms: C_12  and  C_18
REMARK    5  A    between atoms: C_12  and  C_25
REMARK    6  A    between atoms: C_13  and  C_15
REMARK    7  A    between atoms: C_18  and  C_19
REMARK    8  A    between atoms: C_19  and  C_20
REMARK                            x       y       z     vdW  Elec       q    Type
REMARK                         _______ _______ _______ _____ _____    ______ ____
ROOT
ATOM      1  C   LIG A   1      -8.718  -0.073 126.012  0.00  0.00    +0.016 C 
ATOM      2  C   LIG A   1      -7.804  -0.200 124.770  0.00  0.00    +0.003 C 
ATOM      3  C   LIG A   1      -8.116  -1.588 124.160  0.00  0.00    +0.039 C 
ATOM      4  C   LIG A   1      -8.994  -1.738 123.143  0.00  0.00    -0.016 C 
ATOM      5  C   LIG A   1      -9.744  -0.619 122.486  0.00  0.00    +0.028 C 
ATOM      6  C   LIG A   1      -9.517   0.747 123.131  0.00  0.00    +0.009 C 
ATOM      7  C   LIG A   1      -8.063   0.874 123.638  0.00  0.00    +0.006 C 
ATOM      8  C   LIG A   1      -7.579   2.365 123.863  0.00  0.00    -0.026 C 
ATOM      9  C   LIG A   1      -6.159   2.391 124.542  0.00  0.00    -0.008 C 
ATOM     10  C   LIG A   1      -5.735   3.770 125.075  0.00  0.00    +0.008 C 
ATOM     11  C   LIG A   1      -5.990   1.365 125.668  0.00  0.00    +0.004 C 
ATOM     12  C   LIG A   1      -6.330  -0.051 125.211  0.00  0.00    +0.012 C 
ATOM     13  C   LIG A   1      -8.600   3.164 124.712  0.00  0.00    +0.012 C 
ENDROOT
BRANCH   3  14
ATOM     14  C   LIG A   1      -7.484  -2.812 124.720  0.00  0.00    +0.333 C 
ATOM     15  O   LIG A   1      -7.759  -3.351 125.779  0.00  0.00    -0.245 OA
BRANCH  14  16
ATOM     16  O   LIG A   1      -6.508  -3.313 123.942  0.00  0.00    -0.477 OA
ATOM     17  H   LIG A   1      -6.882  -4.154 123.609  0.00  0.00    +0.295 HD
ENDBRANCH  14  16
ENDBRANCH   3  14
BRANCH   8  18
ATOM     18  C   LIG A   1      -7.495   3.117 122.457  0.00  0.00    +0.012 C 
BRANCH  18  19
ATOM     19  C   LIG A   1      -6.167   2.985 121.680  0.00  0.00    +0.039 C 
BRANCH  19  20
ATOM     20  C   LIG A   1      -5.776   4.203 120.903  0.00  0.00    -0.010 A 
ATOM     21  C   LIG A   1      -4.801   5.123 121.234  0.00  0.00    +0.198 A 
ATOM     22  O   LIG A   1      -4.651   6.047 120.251  0.00  0.00    -0.471 OA
ATOM     23  C   LIG A   1      -5.532   5.725 119.271  0.00  0.00    +0.195 A 
ATOM     24  C   LIG A   1      -6.252   4.607 119.623  0.00  0.00    +0.044 A 
ENDBRANCH  19  20
ENDBRANCH  18  19
ENDBRANCH   8  18
TORSDOF 5
ENDMDL
MODEL 2
REMARK VINA RESULT:      -7.3      3.411      6.796
REMARK  Name = NuBBE_202
REMARK  8 active torsions:
REMARK  status: ('A' for Active; 'I' for Inactive)
REMARK    1  A    between atoms: C_1  and  C_2
REMARK    2  A    between atoms: C_3  and  C_4
REMARK    3  A    between atoms: C_4  and  O_5
REMARK    4  A    between atoms: C_12  and  C_18
REMARK    5  A    between atoms: C_12  and  C_25
REMARK    6  A    between atoms: C_13  and  C_15
REMARK    7  A    between atoms: C_18  and  C_19
REMARK    8  A    between atoms: C_19  and  C_20
REMARK                            x       y       z     vdW  Elec       q    Type
REMARK                         _______ _______ _______ _____ _____    ______ ____
ROOT
ATOM      1  C   LIG A   1      -6.360   2.310 126.766  0.00  0.00    +0.016 C 
ATOM      2  C   LIG A   1      -7.474   1.268 126.512  0.00  0.00    +0.003 C 
ATOM      3  C   LIG A   1      -7.967   1.522 125.067  0.00  0.00    +0.039 C 
ATOM      4  C   LIG A   1      -7.494   0.811 124.019  0.00  0.00    -0.016 C 
ATOM      5  C   LIG A   1      -6.479  -0.288 124.115  0.00  0.00    +0.028 C 
ATOM      6  C   LIG A   1      -5.916  -0.494 125.520  0.00  0.00    +0.009 C 
ATOM      7  C   LIG A   1      -7.006  -0.241 126.585  0.00  0.00    +0.006 C 
ATOM      8  C   LIG A   1      -6.700  -0.888 127.998  0.00  0.00    -0.026 C 
ATOM      9  C   LIG A   1      -7.769  -0.434 129.060  0.00  0.00    -0.008 C 
ATOM     10  C   LIG A   1      -7.394  -0.757 130.517  0.00  0.00    +0.008 C 
ATOM     11  C   LIG A   1      -8.138   1.051 128.973  0.00  0.00    +0.004 C 
ATOM     12  C   LIG A   1      -8.586   1.451 127.570  0.00  0.00    +0.012 C 
ATOM     13  C   LIG A   1      -5.271  -0.528 128.481  0.00  0.00    +0.012 C 
ENDROOT
BRANCH   3  14
ATOM     14  C   LIG A   1      -8.949   2.603 124.789  0.00  0.00    +0.333 C 
ATOM     15  O   LIG A   1      -8.763   3.802 124.920  0.00  0.00    -0.245 OA
BRANCH  14  16
ATOM     16  O   LIG A   1     -10.144   2.147 124.374  0.00  0.00    -0.477 OA
ATOM     17  H   LIG A   1     -10.624   2.957 124.111  0.00  0.00    +0.295 HD
ENDBRANCH  14  16
ENDBRANCH   3  14
BRANCH   8  18
ATOM     18  C   LIG A   1      -6.733  -2.480 127.876  0.00  0.00    +0.012 C 
BRANCH  18  19
ATOM     19  C   LIG A   1      -8.117  -3.128 127.657  0.00  0.00    +0.039 C 
BRANCH  19  20
ATOM     20  C   LIG A   1      -8.554  -3.194 126.227  0.00  0.00    -0.010 A 
ATOM     21  C   LIG A   1      -9.730  -2.705 125.693  0.00  0.00    +0.198 A 
ATOM     22  O   LIG A   1      -9.750  -2.854 124.345  0.00  0.00    -0.471 OA
ATOM     23  C   LIG A   1      -8.579  -3.441 123.996  0.00  0.00    +0.195 A 
ATOM     24  C   LIG A   1      -7.811  -3.677 125.112  0.00  0.00    +0.044 A 
ENDBRANCH  19  20
ENDBRANCH  18  19
ENDBRANCH   8  18
TORSDOF 5
ENDMDL
MODEL 3
REMARK VINA RESULT:      -7.1      2.838      4.034
REMARK  Name = NuBBE_202
REMARK  8 active torsions:
REMARK  status: ('A' for Active; 'I' for Inactive)
REMARK    1  A    between atoms: C_1  and  C_2
REMARK    2  A    between atoms: C_3  and  C_4
REMARK    3  A    between atoms: C_4  and  O_5
REMARK    4  A    between atoms: C_12  and  C_18
REMARK    5  A    between atoms: C_12  and  C_25
REMARK    6  A    between atoms: C_13  and  C_15
REMARK    7  A    between atoms: C_18  and  C_19
REMARK    8  A    between atoms: C_19  and  C_20
REMARK                            x       y       z     vdW  Elec       q    Type
REMARK                         _______ _______ _______ _____ _____    ______ ____
ROOT
ATOM      1  C   LIG A   1      -5.560  -2.524 127.045  0.00  0.00    +0.016 C 
ATOM      2  C   LIG A   1      -6.223  -1.810 125.843  0.00  0.00    +0.003 C 
ATOM      3  C   LIG A   1      -6.470  -2.912 124.785  0.00  0.00    +0.039 C 
ATOM      4  C   LIG A   1      -7.663  -3.537 124.672  0.00  0.00    -0.016 C 
ATOM      5  C   LIG A   1      -8.866  -3.247 125.518  0.00  0.00    +0.028 C 
ATOM      6  C   LIG A   1      -8.617  -2.225 126.626  0.00  0.00    +0.009 C 
ATOM      7  C   LIG A   1      -7.623  -1.142 126.153  0.00  0.00    +0.006 C 
ATOM      8  C   LIG A   1      -7.669   0.198 126.996  0.00  0.00    -0.026 C 
ATOM      9  C   LIG A   1      -6.510   1.169 126.559  0.00  0.00    -0.008 C 
ATOM     10  C   LIG A   1      -6.282   2.356 127.511  0.00  0.00    +0.008 C 
ATOM     11  C   LIG A   1      -5.167   0.469 126.329  0.00  0.00    +0.004 C 
ATOM     12  C   LIG A   1      -5.285  -0.689 125.342  0.00  0.00    +0.012 C 
ATOM     13  C   LIG A   1      -7.587  -0.093 128.517  0.00  0.00    +0.012 C 
ENDROOT
BRANCH   3  14
ATOM     14  C   LIG A   1      -5.368  -3.348 123.886  0.00  0.00    +0.333 C 
ATOM     15  O   LIG A   1      -4.499  -4.163 124.149  0.00  0.00    -0.245 OA
BRANCH  14  16
ATOM     16  O   LIG A   1      -5.378  -2.733 122.691  0.00  0.00    -0.477 OA
ATOM     17  H   LIG A   1      -6.298  -2.412 122.601  0.00  0.00    +0.295 HD
ENDBRANCH  14  16
ENDBRANCH   3  14
BRANCH   8  18
ATOM     18  C   LIG A   1      -9.072   0.927 126.765  0.00  0.00    +0.012 C 
BRANCH  18  19
ATOM     19  C   LIG A   1      -9.735   0.729 125.384  0.00  0.00    +0.039 C 
BRANCH  19  20
ATOM     20  C   LIG A   1      -9.329   1.729 124.349  0.00  0.00    -0.010 A 
ATOM     21  C   LIG A   1      -8.727   2.953 124.566  0.00  0.00    +0.198 A 
ATOM     22  O   LIG A   1      -8.413   3.555 123.391  0.00  0.00    -0.471 OA
ATOM     23  C   LIG A   1      -8.810   2.718 122.401  0.00  0.00    +0.195 A 
ATOM     24  C   LIG A   1      -9.384   1.586 122.933  0.00  0.00    +0.044 A 
ENDBRANCH  19  20
ENDBRANCH  18  19
ENDBRANCH   8  18
TORSDOF 5
ENDMDL
MODEL 4
REMARK VINA RESULT:      -7.0      3.939      7.854
REMARK  Name = NuBBE_202
REMARK  8 active torsions:
REMARK  status: ('A' for Active; 'I' for Inactive)
REMARK    1  A    between atoms: C_1  and  C_2
REMARK    2  A    between atoms: C_3  and  C_4
REMARK    3  A    between atoms: C_4  and  O_5
REMARK    4  A    between atoms: C_12  and  C_18
REMARK    5  A    between atoms: C_12  and  C_25
REMARK    6  A    between atoms: C_13  and  C_15
REMARK    7  A    between atoms: C_18  and  C_19
REMARK    8  A    between atoms: C_19  and  C_20
REMARK                            x       y       z     vdW  Elec       q    Type
REMARK                         _______ _______ _______ _____ _____    ______ ____
ROOT
ATOM      1  C   LIG A   1      -7.241   0.191 124.110  0.00  0.00    +0.016 C 
ATOM      2  C   LIG A   1      -7.812  -0.948 124.987  0.00  0.00    +0.003 C 
ATOM      3  C   LIG A   1      -8.163  -2.095 124.009  0.00  0.00    +0.039 C 
ATOM      4  C   LIG A   1      -7.312  -3.120 123.777  0.00  0.00    -0.016 C 
ATOM      5  C   LIG A   1      -5.970  -3.283 124.425  0.00  0.00    +0.028 C 
ATOM      6  C   LIG A   1      -5.568  -2.118 125.326  0.00  0.00    +0.009 C 
ATOM      7  C   LIG A   1      -6.803  -1.540 126.053  0.00  0.00    +0.006 C 
ATOM      8  C   LIG A   1      -6.462  -0.693 127.346  0.00  0.00    -0.026 C 
ATOM      9  C   LIG A   1      -7.757  -0.002 127.915  0.00  0.00    -0.008 C 
ATOM     10  C   LIG A   1      -7.487   1.076 128.979  0.00  0.00    +0.008 C 
ATOM     11  C   LIG A   1      -8.664   0.600 126.836  0.00  0.00    +0.004 C 
ATOM     12  C   LIG A   1      -9.038  -0.421 125.765  0.00  0.00    +0.012 C 
ATOM     13  C   LIG A   1      -5.369   0.366 127.051  0.00  0.00    +0.012 C 
ENDROOT
BRANCH   3  14
ATOM     14  C   LIG A   1      -9.443  -2.069 123.252  0.00  0.00    +0.333 C 
ATOM     15  O   LIG A   1      -9.888  -1.131 122.612  0.00  0.00    -0.245 OA
BRANCH  14  16
ATOM     16  O   LIG A   1     -10.139  -3.217 123.339  0.00  0.00    -0.477 OA
ATOM     17  H   LIG A   1      -9.604  -3.853 122.823  0.00  0.00    +0.295 HD
ENDBRANCH  14  16
ENDBRANCH   3  14
BRANCH   8  18
ATOM     18  C   LIG A   1      -5.851  -1.652 128.468  0.00  0.00    +0.012 C 
BRANCH  18  19
ATOM     19  C   LIG A   1      -6.758  -2.796 128.968  0.00  0.00    +0.039 C 
BRANCH  19  20
ATOM     20  C   LIG A   1      -6.319  -3.423 130.254  0.00  0.00    -0.010 A 
ATOM     21  C   LIG A   1      -6.849  -3.203 131.510  0.00  0.00    +0.198 A 
ATOM     22  O   LIG A   1      -6.268  -4.013 132.430  0.00  0.00    -0.471 OA
ATOM     23  C   LIG A   1      -5.356  -4.769 131.771  0.00  0.00    +0.195 A 
ATOM     24  C   LIG A   1      -5.341  -4.443 130.434  0.00  0.00    +0.044 A 
ENDBRANCH  19  20
ENDBRANCH  18  19
ENDBRANCH   8  18
TORSDOF 5
ENDMDL
MODEL 5
REMARK VINA RESULT:      -6.9      5.811      8.822
REMARK  Name = NuBBE_202
REMARK  8 active torsions:
REMARK  status: ('A' for Active; 'I' for Inactive)
REMARK    1  A    between atoms: C_1  and  C_2
REMARK    2  A    between atoms: C_3  and  C_4
REMARK    3  A    between atoms: C_4  and  O_5
REMARK    4  A    between atoms: C_12  and  C_18
REMARK    5  A    between atoms: C_12  and  C_25
REMARK    6  A    between atoms: C_13  and  C_15
REMARK    7  A    between atoms: C_18  and  C_19
REMARK    8  A    between atoms: C_19  and  C_20
REMARK                            x       y       z     vdW  Elec       q    Type
REMARK                         _______ _______ _______ _____ _____    ______ ____
ROOT
ATOM      1  C   LIG A   1      -4.132   3.081 127.567  0.00  0.00    +0.016 C 
ATOM      2  C   LIG A   1      -4.835   4.448 127.741  0.00  0.00    +0.003 C 
ATOM      3  C   LIG A   1      -6.056   4.417 126.789  0.00  0.00    +0.039 C 
ATOM      4  C   LIG A   1      -7.290   4.077 127.225  0.00  0.00    -0.016 C 
ATOM      5  C   LIG A   1      -7.630   3.714 128.639  0.00  0.00    +0.028 C 
ATOM      6  C   LIG A   1      -6.424   3.653 129.574  0.00  0.00    +0.009 C 
ATOM      7  C   LIG A   1      -5.387   4.734 129.195  0.00  0.00    +0.006 C 
ATOM      8  C   LIG A   1      -4.367   5.092 130.352  0.00  0.00    -0.026 C 
ATOM      9  C   LIG A   1      -3.248   6.065 129.824  0.00  0.00    -0.008 C 
ATOM     10  C   LIG A   1      -2.050   6.231 130.775  0.00  0.00    +0.008 C 
ATOM     11  C   LIG A   1      -2.715   5.701 128.434  0.00  0.00    +0.004 C 
ATOM     12  C   LIG A   1      -3.834   5.576 127.404  0.00  0.00    +0.012 C 
ATOM     13  C   LIG A   1      -3.732   3.813 130.956  0.00  0.00    +0.012 C 
ENDROOT
BRANCH   3  14
ATOM     14  C   LIG A   1      -5.886   4.716 125.343  0.00  0.00    +0.333 C 
ATOM     15  O   LIG A   1      -5.290   4.033 124.526  0.00  0.00    -0.245 OA
BRANCH  14  16
ATOM     16  O   LIG A   1      -6.452   5.876 124.967  0.00  0.00    -0.477 OA
ATOM     17  H   LIG A   1      -7.401   5.749 125.168  0.00  0.00    +0.295 HD
ENDBRANCH  14  16
ENDBRANCH   3  14
BRANCH   8  18
ATOM     18  C   LIG A   1      -5.147   5.802 131.552  0.00  0.00    +0.012 C 
BRANCH  18  19
ATOM     19  C   LIG A   1      -6.143   6.917 131.165  0.00  0.00    +0.039 C 
BRANCH  19  20
ATOM     20  C   LIG A   1      -7.578   6.590 131.432  0.00  0.00    -0.010 A 
ATOM     21  C   LIG A   1      -8.092   5.947 132.540  0.00  0.00    +0.198 A 
ATOM     22  O   LIG A   1      -9.448   5.905 132.492  0.00  0.00    -0.471 OA
ATOM     23  C   LIG A   1      -9.821   6.527 131.346  0.00  0.00    +0.195 A 
ATOM     24  C   LIG A   1      -8.713   6.961 130.655  0.00  0.00    +0.044 A 
ENDBRANCH  19  20
ENDBRANCH  18  19
ENDBRANCH   8  18
TORSDOF 5
ENDMDL
MODEL 6
REMARK VINA RESULT:      -6.8      3.243      7.673
REMARK  Name = NuBBE_202
REMARK  8 active torsions:
REMARK  status: ('A' for Active; 'I' for Inactive)
REMARK    1  A    between atoms: C_1  and  C_2
REMARK    2  A    between atoms: C_3  and  C_4
REMARK    3  A    between atoms: C_4  and  O_5
REMARK    4  A    between atoms: C_12  and  C_18
REMARK    5  A    between atoms: C_12  and  C_25
REMARK    6  A    between atoms: C_13  and  C_15
REMARK    7  A    between atoms: C_18  and  C_19
REMARK    8  A    between atoms: C_19  and  C_20
REMARK                            x       y       z     vdW  Elec       q    Type
REMARK                         _______ _______ _______ _____ _____    ______ ____
ROOT
ATOM      1  C   LIG A   1      -9.210  -0.734 122.838  0.00  0.00    +0.016 C 
ATOM      2  C   LIG A   1      -8.084  -0.106 123.692  0.00  0.00    +0.003 C 
ATOM      3  C   LIG A   1      -8.496   1.370 123.912  0.00  0.00    +0.039 C 
ATOM      4  C   LIG A   1      -9.142   1.770 125.030  0.00  0.00    -0.016 C 
ATOM      5  C   LIG A   1      -9.518   0.873 126.170  0.00  0.00    +0.028 C 
ATOM      6  C   LIG A   1      -9.199  -0.601 125.935  0.00  0.00    +0.009 C 
ATOM      7  C   LIG A   1      -7.893  -0.753 125.123  0.00  0.00    +0.006 C 
ATOM      8  C   LIG A   1      -7.212  -2.177 125.243  0.00  0.00    -0.026 C 
ATOM      9  C   LIG A   1      -5.995  -2.296 124.253  0.00  0.00    -0.008 C 
ATOM     10  C   LIG A   1      -5.459  -3.726 124.072  0.00  0.00    +0.008 C 
ATOM     11  C   LIG A   1      -6.262  -1.701 122.866  0.00  0.00    +0.004 C 
ATOM     12  C   LIG A   1      -6.740  -0.254 122.944  0.00  0.00    +0.012 C 
ATOM     13  C   LIG A   1      -8.236  -3.312 124.980  0.00  0.00    +0.012 C 
ENDROOT
BRANCH   3  14
ATOM     14  C   LIG A   1      -8.230   2.386 122.860  0.00  0.00    +0.333 C 
ATOM     15  O   LIG A   1      -8.949   2.653 121.911  0.00  0.00    -0.245 OA
BRANCH  14  16
ATOM     16  O   LIG A   1      -7.056   3.024 123.017  0.00  0.00    -0.477 OA
ATOM     17  H   LIG A   1      -6.466   2.592 122.367  0.00  0.00    +0.295 HD
ENDBRANCH  14  16
ENDBRANCH   3  14
BRANCH   8  18
ATOM     18  C   LIG A   1      -6.689  -2.397 126.736  0.00  0.00    +0.012 C 
BRANCH  18  19
ATOM     19  C   LIG A   1      -7.687  -3.027 127.732  0.00  0.00    +0.039 C 
BRANCH  19  20
ATOM     20  C   LIG A   1      -7.240  -3.003 129.160  0.00  0.00    -0.010 A 
ATOM     21  C   LIG A   1      -7.887  -2.405 130.223  0.00  0.00    +0.198 A 
ATOM     22  O   LIG A   1      -7.245  -2.664 131.391  0.00  0.00    -0.471 OA
ATOM     23  C   LIG A   1      -6.174  -3.439 131.087  0.00  0.00    +0.195 A 
ATOM     24  C   LIG A   1      -6.120  -3.671 129.732  0.00  0.00    +0.044 A 
ENDBRANCH  19  20
ENDBRANCH  18  19
ENDBRANCH   8  18
TORSDOF 5
ENDMDL
MODEL 7
REMARK VINA RESULT:      -6.8      5.391      8.221
REMARK  Name = NuBBE_202
REMARK  8 active torsions:
REMARK  status: ('A' for Active; 'I' for Inactive)
REMARK    1  A    between atoms: C_1  and  C_2
REMARK    2  A    between atoms: C_3  and  C_4
REMARK    3  A    between atoms: C_4  and  O_5
REMARK    4  A    between atoms: C_12  and  C_18
REMARK    5  A    between atoms: C_12  and  C_25
REMARK    6  A    between atoms: C_13  and  C_15
REMARK    7  A    between atoms: C_18  and  C_19
REMARK    8  A    between atoms: C_19  and  C_20
REMARK                            x       y       z     vdW  Elec       q    Type
REMARK                         _______ _______ _______ _____ _____    ______ ____
ROOT
ATOM      1  C   LIG A   1      -6.010   0.446 131.550  0.00  0.00    +0.016 C 
ATOM      2  C   LIG A   1      -7.309  -0.151 130.959  0.00  0.00    +0.003 C 
ATOM      3  C   LIG A   1      -8.313   1.024 130.880  0.00  0.00    +0.039 C 
ATOM      4  C   LIG A   1      -8.491   1.734 129.743  0.00  0.00    -0.016 C 
ATOM      5  C   LIG A   1      -7.775   1.477 128.451  0.00  0.00    +0.028 C 
ATOM      6  C   LIG A   1      -6.717   0.379 128.532  0.00  0.00    +0.009 C 
ATOM      7  C   LIG A   1      -7.167  -0.740 129.497  0.00  0.00    +0.006 C 
ATOM      8  C   LIG A   1      -6.419  -2.120 129.290  0.00  0.00    -0.026 C 
ATOM      9  C   LIG A   1      -6.812  -3.140 130.422  0.00  0.00    -0.008 C 
ATOM     10  C   LIG A   1      -5.920  -4.392 130.487  0.00  0.00    +0.008 C 
ATOM     11  C   LIG A   1      -6.877  -2.520 131.822  0.00  0.00    +0.004 C 
ATOM     12  C   LIG A   1      -7.795  -1.302 131.868  0.00  0.00    +0.012 C 
ATOM     13  C   LIG A   1      -4.881  -1.923 129.248  0.00  0.00    +0.012 C 
ENDROOT
BRANCH   3  14
ATOM     14  C   LIG A   1      -9.081   1.436 132.085  0.00  0.00    +0.333 C 
ATOM     15  O   LIG A   1      -8.626   1.953 133.092  0.00  0.00    -0.245 OA
BRANCH  14  16
ATOM     16  O   LIG A   1     -10.396   1.168 131.999  0.00  0.00    -0.477 OA
ATOM     17  H   LIG A   1     -10.692   1.151 132.931  0.00  0.00    +0.295 HD
ENDBRANCH  14  16
ENDBRANCH   3  14
BRANCH   8  18
ATOM     18  C   LIG A   1      -6.819  -2.738 127.873  0.00  0.00    +0.012 C 
BRANCH  18  19
ATOM     19  C   LIG A   1      -8.326  -2.959 127.615  0.00  0.00    +0.039 C 
BRANCH  19  20
ATOM     20  C   LIG A   1      -8.759  -2.711 126.205  0.00  0.00    -0.010 A 
ATOM     21  C   LIG A   1      -9.162  -1.508 125.658  0.00  0.00    +0.198 A 
ATOM     22  O   LIG A   1      -9.392  -1.634 124.326  0.00  0.00    -0.471 OA
ATOM     23  C   LIG A   1      -9.134  -2.924 124.002  0.00  0.00    +0.195 A 
ATOM     24  C   LIG A   1      -8.749  -3.631 125.118  0.00  0.00    +0.044 A 
ENDBRANCH  19  20
ENDBRANCH  18  19
ENDBRANCH   8  18
TORSDOF 5
ENDMDL
MODEL 8
REMARK VINA RESULT:      -6.8      3.464      5.639
REMARK  Name = NuBBE_202
REMARK  8 active torsions:
REMARK  status: ('A' for Active; 'I' for Inactive)
REMARK    1  A    between atoms: C_1  and  C_2
REMARK    2  A    between atoms: C_3  and  C_4
REMARK    3  A    between atoms: C_4  and  O_5
REMARK    4  A    between atoms: C_12  and  C_18
REMARK    5  A    between atoms: C_12  and  C_25
REMARK    6  A    between atoms: C_13  and  C_15
REMARK    7  A    between atoms: C_18  and  C_19
REMARK    8  A    between atoms: C_19  and  C_20
REMARK                            x       y       z     vdW  Elec       q    Type
REMARK                         _______ _______ _______ _____ _____    ______ ____
ROOT
ATOM      1  C   LIG A   1      -5.520  -2.201 128.069  0.00  0.00    +0.016 C 
ATOM      2  C   LIG A   1      -6.631  -1.261 127.547  0.00  0.00    +0.003 C 
ATOM      3  C   LIG A   1      -6.512   0.036 128.384  0.00  0.00    +0.039 C 
ATOM      4  C   LIG A   1      -5.824   1.111 127.939  0.00  0.00    -0.016 C 
ATOM      5  C   LIG A   1      -5.122   1.192 126.617  0.00  0.00    +0.028 C 
ATOM      6  C   LIG A   1      -5.153  -0.107 125.814  0.00  0.00    +0.009 C 
ATOM      7  C   LIG A   1      -6.493  -0.846 126.026  0.00  0.00    +0.006 C 
ATOM      8  C   LIG A   1      -6.838  -1.906 124.902  0.00  0.00    -0.026 C 
ATOM      9  C   LIG A   1      -8.123  -2.729 125.290  0.00  0.00    -0.008 C 
ATOM     10  C   LIG A   1      -8.365  -3.975 124.422  0.00  0.00    +0.008 C 
ATOM     11  C   LIG A   1      -8.169  -3.148 126.764  0.00  0.00    +0.004 C 
ATOM     12  C   LIG A   1      -8.000  -1.960 127.705  0.00  0.00    +0.012 C 
ATOM     13  C   LIG A   1      -5.642  -2.859 124.644  0.00  0.00    +0.012 C 
ENDROOT
BRANCH   3  14
ATOM     14  C   LIG A   1      -7.120   0.111 129.739  0.00  0.00    +0.333 C 
ATOM     15  O   LIG A   1      -6.706  -0.431 130.750  0.00  0.00    -0.245 OA
BRANCH  14  16
ATOM     16  O   LIG A   1      -8.244   0.848 129.780  0.00  0.00    -0.477 OA
ATOM     17  H   LIG A   1      -7.939   1.752 129.561  0.00  0.00    +0.295 HD
ENDBRANCH  14  16
ENDBRANCH   3  14
BRANCH   8  18
ATOM     18  C   LIG A   1      -7.103  -1.152 123.519  0.00  0.00    +0.012 C 
BRANCH  18  19
ATOM     19  C   LIG A   1      -8.479  -0.469 123.357  0.00  0.00    +0.039 C 
BRANCH  19  20
ATOM     20  C   LIG A   1      -8.539   0.937 123.865  0.00  0.00    -0.010 A 
ATOM     21  C   LIG A   1      -9.529   1.495 124.650  0.00  0.00    +0.198 A 
ATOM     22  O   LIG A   1      -9.209   2.766 125.002  0.00  0.00    -0.471 OA
ATOM     23  C   LIG A   1      -8.002   3.038 124.447  0.00  0.00    +0.195 A 
ATOM     24  C   LIG A   1      -7.549   1.952 123.733  0.00  0.00    +0.044 A 
ENDBRANCH  19  20
ENDBRANCH  18  19
ENDBRANCH   8  18
TORSDOF 5
ENDMDL
MODEL 9
REMARK VINA RESULT:      -6.8      5.076      8.091
REMARK  Name = NuBBE_202
REMARK  8 active torsions:
REMARK  status: ('A' for Active; 'I' for Inactive)
REMARK    1  A    between atoms: C_1  and  C_2
REMARK    2  A    between atoms: C_3  and  C_4
REMARK    3  A    between atoms: C_4  and  O_5
REMARK    4  A    between atoms: C_12  and  C_18
REMARK    5  A    between atoms: C_12  and  C_25
REMARK    6  A    between atoms: C_13  and  C_15
REMARK    7  A    between atoms: C_18  and  C_19
REMARK    8  A    between atoms: C_19  and  C_20
REMARK                            x       y       z     vdW  Elec       q    Type
REMARK                         _______ _______ _______ _____ _____    ______ ____
ROOT
ATOM      1  C   LIG A   1      -6.220  -1.619 127.028  0.00  0.00    +0.016 C 
ATOM      2  C   LIG A   1      -7.711  -1.442 127.397  0.00  0.00    +0.003 C 
ATOM      3  C   LIG A   1      -8.397  -2.780 127.029  0.00  0.00    +0.039 C 
ATOM      4  C   LIG A   1      -8.606  -3.750 127.948  0.00  0.00    -0.016 C 
ATOM      5  C   LIG A   1      -8.229  -3.655 129.396  0.00  0.00    +0.028 C 
ATOM      6  C   LIG A   1      -7.473  -2.379 129.760  0.00  0.00    +0.009 C 
ATOM      7  C   LIG A   1      -7.993  -1.183 128.932  0.00  0.00    +0.006 C 
ATOM      8  C   LIG A   1      -7.654   0.235 129.551  0.00  0.00    -0.026 C 
ATOM      9  C   LIG A   1      -8.065   1.386 128.559  0.00  0.00    -0.008 C 
ATOM     10  C   LIG A   1      -7.508   2.771 128.928  0.00  0.00    +0.008 C 
ATOM     11  C   LIG A   1      -7.715   1.098 127.095  0.00  0.00    +0.004 C 
ATOM     12  C   LIG A   1      -8.284  -0.236 126.620  0.00  0.00    +0.012 C 
ATOM     13  C   LIG A   1      -6.151   0.343 129.914  0.00  0.00    +0.012 C 
ENDROOT
BRANCH   3  14
ATOM     14  C   LIG A   1      -8.802  -3.053 125.625  0.00  0.00    +0.333 C 
ATOM     15  O   LIG A   1      -8.063  -3.355 124.703  0.00  0.00    -0.245 OA
BRANCH  14  16
ATOM     16  O   LIG A   1     -10.124  -2.918 125.414  0.00  0.00    -0.477 OA
ATOM     17  H   LIG A   1     -10.506  -2.932 126.315  0.00  0.00    +0.295 HD
ENDBRANCH  14  16
ENDBRANCH   3  14
BRANCH   8  18
ATOM     18  C   LIG A   1      -8.450   0.424 130.923  0.00  0.00    +0.012 C 
BRANCH  18  19
ATOM     19  C   LIG A   1      -7.601   0.698 132.183  0.00  0.00    +0.039 C 
BRANCH  19  20
ATOM     20  C   LIG A   1      -8.021   1.901 132.967  0.00  0.00    -0.010 A 
ATOM     21  C   LIG A   1      -7.241   2.645 133.830  0.00  0.00    +0.198 A 
ATOM     22  O   LIG A   1      -7.922   3.723 134.293  0.00  0.00    -0.471 OA
ATOM     23  C   LIG A   1      -9.153   3.685 133.726  0.00  0.00    +0.195 A 
ATOM     24  C   LIG A   1      -9.269   2.584 132.909  0.00  0.00    +0.044 A 
ENDBRANCH  19  20
ENDBRANCH  18  19
ENDBRANCH   8  18
TORSDOF 5
ENDMDL
