MODEL 1
REMARK VINA RESULT:      -6.3      0.000      0.000
REMARK  Name = NuBBE_353
REMARK  9 active torsions:
REMARK  status: ('A' for Active; 'I' for Inactive)
REMARK    1  A    between atoms: C_2  and  O_3
REMARK    2  A    between atoms: C_2  and  C_5
REMARK    3  A    between atoms: O_3  and  C_4
REMARK    4  A    between atoms: C_8  and  O_9
REMARK    5  A    between atoms: C_10  and  C_11
REMARK    6  A    between atoms: C_11  and  C_12
REMARK    7  A    between atoms: C_12  and  O_13
REMARK    8  A    between atoms: C_12  and  C_14
REMARK    9  A    between atoms: C_14  and  C_15
REMARK                            x       y       z     vdW  Elec       q    Type
REMARK                         _______ _______ _______ _____ _____    ______ ____
ROOT
ATOM      1  C   LIG A   1      -7.976   6.509 131.515  0.00  0.00    +0.059 A 
ATOM      2  C   LIG A   1      -8.580   6.105 132.711  0.00  0.00    +0.018 A 
ATOM      3  C   LIG A   1      -9.964   5.923 132.765  0.00  0.00    +0.046 A 
ATOM      4  C   LIG A   1     -10.741   6.153 131.627  0.00  0.00    +0.120 A 
ATOM      5  C   LIG A   1     -10.164   6.594 130.433  0.00  0.00    -0.002 A 
ATOM      6  C   LIG A   1      -8.774   6.756 130.386  0.00  0.00    +0.022 A 
ENDROOT
BRANCH   1   8
ATOM      7  O   LIG A   1      -5.723   5.892 132.087  0.00  0.00    -0.245 OA
ATOM      8  C   LIG A   1      -6.493   6.594 131.438  0.00  0.00    +0.339 C 
BRANCH   8   9
ATOM      9  O   LIG A   1      -6.158   7.500 130.493  0.00  0.00    -0.465 OA
ATOM     10  C   LIG A   1      -4.759   7.681 130.289  0.00  0.00    +0.280 C 
ENDBRANCH   8   9
ENDBRANCH   1   8
BRANCH   4  11
ATOM     11  O   LIG A   1     -12.092   5.946 131.663  0.00  0.00    -0.506 OA
ATOM     12  H   LIG A   1     -12.372   5.925 132.594  0.00  0.00    +0.292 HD
ENDBRANCH   4  11
BRANCH   5  13
ATOM     13  C   LIG A   1     -10.986   6.923 129.210  0.00  0.00    +0.074 C 
BRANCH  13  14
ATOM     14  C   LIG A   1     -11.235   8.427 128.977  0.00  0.00    +0.144 C 
BRANCH  14  15
ATOM     15  C   LIG A   1     -12.714   8.722 128.791  0.00  0.00    -0.051 C 
ATOM     16  C   LIG A   1     -13.559   7.620 128.207  0.00  0.00    +0.041 C 
ATOM     17  C   LIG A   1     -13.268   9.902 129.122  0.00  0.00    +0.010 C 
ENDBRANCH  14  15
BRANCH  14  18
ATOM     18  O   LIG A   1     -10.563   8.909 127.815  0.00  0.00    -0.387 OA
ATOM     19  H   LIG A   1     -10.817   8.326 127.077  0.00  0.00    +0.210 HD
ENDBRANCH  14  18
ENDBRANCH  13  14
ENDBRANCH   5  13
TORSDOF 7
ENDMDL
MODEL 2
REMARK VINA RESULT:      -6.1      1.958      5.542
REMARK  Name = NuBBE_353
REMARK  9 active torsions:
REMARK  status: ('A' for Active; 'I' for Inactive)
REMARK    1  A    between atoms: C_2  and  O_3
REMARK    2  A    between atoms: C_2  and  C_5
REMARK    3  A    between atoms: O_3  and  C_4
REMARK    4  A    between atoms: C_8  and  O_9
REMARK    5  A    between atoms: C_10  and  C_11
REMARK    6  A    between atoms: C_11  and  C_12
REMARK    7  A    between atoms: C_12  and  O_13
REMARK    8  A    between atoms: C_12  and  C_14
REMARK    9  A    between atoms: C_14  and  C_15
REMARK                            x       y       z     vdW  Elec       q    Type
REMARK                         _______ _______ _______ _____ _____    ______ ____
ROOT
ATOM      1  C   LIG A   1     -11.742   7.769 129.569  0.00  0.00    +0.059 A 
ATOM      2  C   LIG A   1     -12.663   7.315 130.520  0.00  0.00    +0.018 A 
ATOM      3  C   LIG A   1     -12.216   6.624 131.649  0.00  0.00    +0.046 A 
ATOM      4  C   LIG A   1     -10.851   6.383 131.821  0.00  0.00    +0.120 A 
ATOM      5  C   LIG A   1      -9.917   6.793 130.866  0.00  0.00    -0.002 A 
ATOM      6  C   LIG A   1     -10.374   7.498 129.747  0.00  0.00    +0.022 A 
ENDROOT
BRANCH   1   8
ATOM      7  O   LIG A   1     -13.083   9.461 128.512  0.00  0.00    -0.245 OA
ATOM      8  C   LIG A   1     -12.216   8.595 128.428  0.00  0.00    +0.339 C 
BRANCH   8   9
ATOM      9  O   LIG A   1     -11.486   8.287 127.334  0.00  0.00    -0.465 OA
ATOM     10  C   LIG A   1     -12.004   7.229 126.532  0.00  0.00    +0.280 C 
ENDBRANCH   8   9
ENDBRANCH   1   8
BRANCH   4  11
ATOM     11  O   LIG A   1     -10.402   5.736 132.939  0.00  0.00    -0.506 OA
ATOM     12  H   LIG A   1     -11.087   5.807 133.627  0.00  0.00    +0.292 HD
ENDBRANCH   4  11
BRANCH   5  13
ATOM     13  C   LIG A   1      -8.444   6.479 130.988  0.00  0.00    +0.074 C 
BRANCH  13  14
ATOM     14  C   LIG A   1      -7.945   5.332 130.087  0.00  0.00    +0.144 C 
BRANCH  14  15
ATOM     15  C   LIG A   1      -8.217   3.975 130.716  0.00  0.00    -0.051 C 
ATOM     16  C   LIG A   1      -9.397   3.203 130.186  0.00  0.00    +0.041 C 
ATOM     17  C   LIG A   1      -7.456   3.465 131.701  0.00  0.00    +0.010 C 
ENDBRANCH  14  15
BRANCH  14  18
ATOM     18  O   LIG A   1      -6.541   5.408 129.849  0.00  0.00    -0.387 OA
ATOM     19  H   LIG A   1      -6.423   5.673 128.919  0.00  0.00    +0.210 HD
ENDBRANCH  14  18
ENDBRANCH  13  14
ENDBRANCH   5  13
TORSDOF 7
ENDMDL
MODEL 3
REMARK VINA RESULT:      -6.1      9.456     10.318
REMARK  Name = NuBBE_353
REMARK  9 active torsions:
REMARK  status: ('A' for Active; 'I' for Inactive)
REMARK    1  A    between atoms: C_2  and  O_3
REMARK    2  A    between atoms: C_2  and  C_5
REMARK    3  A    between atoms: O_3  and  C_4
REMARK    4  A    between atoms: C_8  and  O_9
REMARK    5  A    between atoms: C_10  and  C_11
REMARK    6  A    between atoms: C_11  and  C_12
REMARK    7  A    between atoms: C_12  and  O_13
REMARK    8  A    between atoms: C_12  and  C_14
REMARK    9  A    between atoms: C_14  and  C_15
REMARK                            x       y       z     vdW  Elec       q    Type
REMARK                         _______ _______ _______ _____ _____    ______ ____
ROOT
ATOM      1  C   LIG A   1      -7.955  -0.553 124.436  0.00  0.00    +0.059 A 
ATOM      2  C   LIG A   1      -8.975  -0.201 125.327  0.00  0.00    +0.018 A 
ATOM      3  C   LIG A   1      -9.358   1.137 125.454  0.00  0.00    +0.046 A 
ATOM      4  C   LIG A   1      -8.716   2.119 124.695  0.00  0.00    +0.120 A 
ATOM      5  C   LIG A   1      -7.668   1.795 123.829  0.00  0.00    -0.002 A 
ATOM      6  C   LIG A   1      -7.305   0.450 123.698  0.00  0.00    +0.022 A 
ENDROOT
BRANCH   1   8
ATOM      7  O   LIG A   1      -6.910  -2.651 124.974  0.00  0.00    -0.245 OA
ATOM      8  C   LIG A   1      -7.629  -1.989 124.230  0.00  0.00    +0.339 C 
BRANCH   8   9
ATOM      9  O   LIG A   1      -8.312  -2.440 123.155  0.00  0.00    -0.465 OA
ATOM     10  C   LIG A   1      -9.422  -3.284 123.447  0.00  0.00    +0.280 C 
ENDBRANCH   8   9
ENDBRANCH   1   8
BRANCH   4  11
ATOM     11  O   LIG A   1      -9.107   3.425 124.789  0.00  0.00    -0.506 OA
ATOM     12  H   LIG A   1      -8.455   3.900 125.334  0.00  0.00    +0.292 HD
ENDBRANCH   4  11
BRANCH   5  13
ATOM     13  C   LIG A   1      -6.906   2.843 123.054  0.00  0.00    +0.074 C 
BRANCH  13  14
ATOM     14  C   LIG A   1      -7.462   3.147 121.648  0.00  0.00    +0.144 C 
BRANCH  14  15
ATOM     15  C   LIG A   1      -6.454   3.912 120.807  0.00  0.00    -0.051 C 
ATOM     16  C   LIG A   1      -6.909   4.365 119.444  0.00  0.00    +0.041 C 
ATOM     17  C   LIG A   1      -5.208   4.185 121.235  0.00  0.00    +0.010 C 
ENDBRANCH  14  15
BRANCH  14  18
ATOM     18  O   LIG A   1      -8.649   3.937 121.698  0.00  0.00    -0.387 OA
ATOM     19  H   LIG A   1      -9.343   3.383 122.100  0.00  0.00    +0.210 HD
ENDBRANCH  14  18
ENDBRANCH  13  14
ENDBRANCH   5  13
TORSDOF 7
ENDMDL
MODEL 4
REMARK VINA RESULT:      -6.0      1.683      2.198
REMARK  Name = NuBBE_353
REMARK  9 active torsions:
REMARK  status: ('A' for Active; 'I' for Inactive)
REMARK    1  A    between atoms: C_2  and  O_3
REMARK    2  A    between atoms: C_2  and  C_5
REMARK    3  A    between atoms: O_3  and  C_4
REMARK    4  A    between atoms: C_8  and  O_9
REMARK    5  A    between atoms: C_10  and  C_11
REMARK    6  A    between atoms: C_11  and  C_12
REMARK    7  A    between atoms: C_12  and  O_13
REMARK    8  A    between atoms: C_12  and  C_14
REMARK    9  A    between atoms: C_14  and  C_15
REMARK                            x       y       z     vdW  Elec       q    Type
REMARK                         _______ _______ _______ _____ _____    ______ ____
ROOT
ATOM      1  C   LIG A   1      -6.735   6.642 131.494  0.00  0.00    +0.059 A 
ATOM      2  C   LIG A   1      -6.774   5.897 132.677  0.00  0.00    +0.018 A 
ATOM      3  C   LIG A   1      -8.001   5.479 133.198  0.00  0.00    +0.046 A 
ATOM      4  C   LIG A   1      -9.186   5.814 132.538  0.00  0.00    +0.120 A 
ATOM      5  C   LIG A   1      -9.174   6.590 131.376  0.00  0.00    -0.002 A 
ATOM      6  C   LIG A   1      -7.937   6.989 130.855  0.00  0.00    +0.022 A 
ENDROOT
BRANCH   1   8
ATOM      7  O   LIG A   1      -5.271   7.763 129.950  0.00  0.00    -0.245 OA
ATOM      8  C   LIG A   1      -5.420   6.989 130.891  0.00  0.00    +0.339 C 
BRANCH   8   9
ATOM      9  O   LIG A   1      -4.444   6.380 131.599  0.00  0.00    -0.465 OA
ATOM     10  C   LIG A   1      -3.422   5.761 130.821  0.00  0.00    +0.280 C 
ENDBRANCH   8   9
ENDBRANCH   1   8
BRANCH   4  11
ATOM     11  O   LIG A   1     -10.389   5.381 133.023  0.00  0.00    -0.506 OA
ATOM     12  H   LIG A   1     -11.073   5.576 132.359  0.00  0.00    +0.292 HD
ENDBRANCH   4  11
BRANCH   5  13
ATOM     13  C   LIG A   1     -10.442   7.030 130.684  0.00  0.00    +0.074 C 
BRANCH  13  14
ATOM     14  C   LIG A   1     -10.723   6.336 129.336  0.00  0.00    +0.144 C 
BRANCH  14  15
ATOM     15  C   LIG A   1     -11.350   7.296 128.339  0.00  0.00    -0.051 C 
ATOM     16  C   LIG A   1     -12.791   7.052 127.973  0.00  0.00    +0.041 C 
ATOM     17  C   LIG A   1     -10.673   8.322 127.793  0.00  0.00    +0.010 C 
ENDBRANCH  14  15
BRANCH  14  18
ATOM     18  O   LIG A   1     -11.619   5.235 129.476  0.00  0.00    -0.387 OA
ATOM     19  H   LIG A   1     -12.021   5.304 130.360  0.00  0.00    +0.210 HD
ENDBRANCH  14  18
ENDBRANCH  13  14
ENDBRANCH   5  13
TORSDOF 7
ENDMDL
MODEL 5
REMARK VINA RESULT:      -5.9      9.838     10.650
REMARK  Name = NuBBE_353
REMARK  9 active torsions:
REMARK  status: ('A' for Active; 'I' for Inactive)
REMARK    1  A    between atoms: C_2  and  O_3
REMARK    2  A    between atoms: C_2  and  C_5
REMARK    3  A    between atoms: O_3  and  C_4
REMARK    4  A    between atoms: C_8  and  O_9
REMARK    5  A    between atoms: C_10  and  C_11
REMARK    6  A    between atoms: C_11  and  C_12
REMARK    7  A    between atoms: C_12  and  O_13
REMARK    8  A    between atoms: C_12  and  C_14
REMARK    9  A    between atoms: C_14  and  C_15
REMARK                            x       y       z     vdW  Elec       q    Type
REMARK                         _______ _______ _______ _____ _____    ______ ____
ROOT
ATOM      1  C   LIG A   1      -7.042  -1.394 123.654  0.00  0.00    +0.059 A 
ATOM      2  C   LIG A   1      -8.129  -2.196 123.287  0.00  0.00    +0.018 A 
ATOM      3  C   LIG A   1      -9.330  -1.604 122.891  0.00  0.00    +0.046 A 
ATOM      4  C   LIG A   1      -9.444  -0.212 122.869  0.00  0.00    +0.120 A 
ATOM      5  C   LIG A   1      -8.386   0.608 123.269  0.00  0.00    -0.002 A 
ATOM      6  C   LIG A   1      -7.182   0.004 123.647  0.00  0.00    +0.022 A 
ENDROOT
BRANCH   1   8
ATOM      7  O   LIG A   1      -5.171  -2.849 123.248  0.00  0.00    -0.245 OA
ATOM      8  C   LIG A   1      -5.737  -2.032 123.969  0.00  0.00    +0.339 C 
BRANCH   8   9
ATOM      9  O   LIG A   1      -5.261  -1.504 125.118  0.00  0.00    -0.465 OA
ATOM     10  C   LIG A   1      -5.740  -2.113 126.315  0.00  0.00    +0.280 C 
ENDBRANCH   8   9
ENDBRANCH   1   8
BRANCH   4  11
ATOM     11  O   LIG A   1     -10.606   0.376 122.452  0.00  0.00    -0.506 OA
ATOM     12  H   LIG A   1     -11.303  -0.302 122.439  0.00  0.00    +0.292 HD
ENDBRANCH   4  11
BRANCH   5  13
ATOM     13  C   LIG A   1      -8.506   2.113 123.328  0.00  0.00    +0.074 C 
BRANCH  13  14
ATOM     14  C   LIG A   1      -7.880   2.864 122.134  0.00  0.00    +0.144 C 
BRANCH  14  15
ATOM     15  C   LIG A   1      -6.555   3.501 122.514  0.00  0.00    -0.051 C 
ATOM     16  C   LIG A   1      -6.269   3.654 123.985  0.00  0.00    +0.041 C 
ATOM     17  C   LIG A   1      -5.659   3.917 121.600  0.00  0.00    +0.010 C 
ENDBRANCH  14  15
BRANCH  14  18
ATOM     18  O   LIG A   1      -8.724   3.909 121.656  0.00  0.00    -0.387 OA
ATOM     19  H   LIG A   1      -8.801   3.796 120.692  0.00  0.00    +0.210 HD
ENDBRANCH  14  18
ENDBRANCH  13  14
ENDBRANCH   5  13
TORSDOF 7
ENDMDL
MODEL 6
REMARK VINA RESULT:      -5.8     10.010     11.129
REMARK  Name = NuBBE_353
REMARK  9 active torsions:
REMARK  status: ('A' for Active; 'I' for Inactive)
REMARK    1  A    between atoms: C_2  and  O_3
REMARK    2  A    between atoms: C_2  and  C_5
REMARK    3  A    between atoms: O_3  and  C_4
REMARK    4  A    between atoms: C_8  and  O_9
REMARK    5  A    between atoms: C_10  and  C_11
REMARK    6  A    between atoms: C_11  and  C_12
REMARK    7  A    between atoms: C_12  and  O_13
REMARK    8  A    between atoms: C_12  and  C_14
REMARK    9  A    between atoms: C_14  and  C_15
REMARK                            x       y       z     vdW  Elec       q    Type
REMARK                         _______ _______ _______ _____ _____    ______ ____
ROOT
ATOM      1  C   LIG A   1      -7.054   2.825 122.434  0.00  0.00    +0.059 A 
ATOM      2  C   LIG A   1      -8.408   3.139 122.278  0.00  0.00    +0.018 A 
ATOM      3  C   LIG A   1      -9.386   2.260 122.749  0.00  0.00    +0.046 A 
ATOM      4  C   LIG A   1      -9.008   1.065 123.366  0.00  0.00    +0.120 A 
ATOM      5  C   LIG A   1      -7.662   0.712 123.497  0.00  0.00    -0.002 A 
ATOM      6  C   LIG A   1      -6.691   1.609 123.037  0.00  0.00    +0.022 A 
ENDROOT
BRANCH   1   8
ATOM      7  O   LIG A   1      -5.454   4.582 122.801  0.00  0.00    -0.245 OA
ATOM      8  C   LIG A   1      -6.022   3.815 122.028  0.00  0.00    +0.339 C 
BRANCH   8   9
ATOM      9  O   LIG A   1      -5.772   3.666 120.708  0.00  0.00    -0.465 OA
ATOM     10  C   LIG A   1      -5.502   4.873 119.998  0.00  0.00    +0.280 C 
ENDBRANCH   8   9
ENDBRANCH   1   8
BRANCH   4  11
ATOM     11  O   LIG A   1      -9.959   0.215 123.858  0.00  0.00    -0.506 OA
ATOM     12  H   LIG A   1     -10.634   0.744 124.317  0.00  0.00    +0.292 HD
ENDBRANCH   4  11
BRANCH   5  13
ATOM     13  C   LIG A   1      -7.227  -0.606 124.091  0.00  0.00    +0.074 C 
BRANCH  13  14
ATOM     14  C   LIG A   1      -7.336  -1.817 123.142  0.00  0.00    +0.144 C 
BRANCH  14  15
ATOM     15  C   LIG A   1      -8.223  -2.902 123.728  0.00  0.00    -0.051 C 
ATOM     16  C   LIG A   1      -7.674  -3.670 124.902  0.00  0.00    +0.041 C 
ATOM     17  C   LIG A   1      -9.445  -3.185 123.241  0.00  0.00    +0.010 C 
ENDBRANCH  14  15
BRANCH  14  18
ATOM     18  O   LIG A   1      -6.066  -2.411 122.881  0.00  0.00    -0.387 OA
ATOM     19  H   LIG A   1      -5.591  -2.454 123.731  0.00  0.00    +0.210 HD
ENDBRANCH  14  18
ENDBRANCH  13  14
ENDBRANCH   5  13
TORSDOF 7
ENDMDL
MODEL 7
REMARK VINA RESULT:      -5.7      9.524     10.578
REMARK  Name = NuBBE_353
REMARK  9 active torsions:
REMARK  status: ('A' for Active; 'I' for Inactive)
REMARK    1  A    between atoms: C_2  and  O_3
REMARK    2  A    between atoms: C_2  and  C_5
REMARK    3  A    between atoms: O_3  and  C_4
REMARK    4  A    between atoms: C_8  and  O_9
REMARK    5  A    between atoms: C_10  and  C_11
REMARK    6  A    between atoms: C_11  and  C_12
REMARK    7  A    between atoms: C_12  and  O_13
REMARK    8  A    between atoms: C_12  and  C_14
REMARK    9  A    between atoms: C_14  and  C_15
REMARK                            x       y       z     vdW  Elec       q    Type
REMARK                         _______ _______ _______ _____ _____    ______ ____
ROOT
ATOM      1  C   LIG A   1      -7.302   1.667 124.224  0.00  0.00    +0.059 A 
ATOM      2  C   LIG A   1      -8.339   2.542 123.882  0.00  0.00    +0.018 A 
ATOM      3  C   LIG A   1      -9.499   2.047 123.280  0.00  0.00    +0.046 A 
ATOM      4  C   LIG A   1      -9.616   0.681 123.016  0.00  0.00    +0.120 A 
ATOM      5  C   LIG A   1      -8.578  -0.206 123.314  0.00  0.00    -0.002 A 
ATOM      6  C   LIG A   1      -7.428   0.299 123.931  0.00  0.00    +0.022 A 
ENDROOT
BRANCH   1   8
ATOM      7  O   LIG A   1      -5.464   1.536 125.768  0.00  0.00    -0.245 OA
ATOM      8  C   LIG A   1      -6.120   2.188 124.960  0.00  0.00    +0.339 C 
BRANCH   8   9
ATOM      9  O   LIG A   1      -5.858   3.442 124.531  0.00  0.00    -0.465 OA
ATOM     10  C   LIG A   1      -5.476   4.367 125.546  0.00  0.00    +0.280 C 
ENDBRANCH   8   9
ENDBRANCH   1   8
BRANCH   4  11
ATOM     11  O   LIG A   1     -10.761   0.184 122.458  0.00  0.00    -0.506 OA
ATOM     12  H   LIG A   1     -11.124  -0.492 123.056  0.00  0.00    +0.292 HD
ENDBRANCH   4  11
BRANCH   5  13
ATOM     13  C   LIG A   1      -8.646  -1.675 122.970  0.00  0.00    +0.074 C 
BRANCH  13  14
ATOM     14  C   LIG A   1      -9.375  -2.553 124.008  0.00  0.00    +0.144 C 
BRANCH  14  15
ATOM     15  C   LIG A   1      -8.391  -3.248 124.935  0.00  0.00    -0.051 C 
ATOM     16  C   LIG A   1      -7.050  -3.613 124.354  0.00  0.00    +0.041 C 
ATOM     17  C   LIG A   1      -8.679  -3.535 126.217  0.00  0.00    +0.010 C 
ENDBRANCH  14  15
BRANCH  14  18
ATOM     18  O   LIG A   1     -10.159  -3.573 123.392  0.00  0.00    -0.387 OA
ATOM     19  H   LIG A   1     -10.959  -3.143 123.038  0.00  0.00    +0.210 HD
ENDBRANCH  14  18
ENDBRANCH  13  14
ENDBRANCH   5  13
TORSDOF 7
ENDMDL
MODEL 8
REMARK VINA RESULT:      -5.7      1.711      5.914
REMARK  Name = NuBBE_353
REMARK  9 active torsions:
REMARK  status: ('A' for Active; 'I' for Inactive)
REMARK    1  A    between atoms: C_2  and  O_3
REMARK    2  A    between atoms: C_2  and  C_5
REMARK    3  A    between atoms: O_3  and  C_4
REMARK    4  A    between atoms: C_8  and  O_9
REMARK    5  A    between atoms: C_10  and  C_11
REMARK    6  A    between atoms: C_11  and  C_12
REMARK    7  A    between atoms: C_12  and  O_13
REMARK    8  A    between atoms: C_12  and  C_14
REMARK    9  A    between atoms: C_14  and  C_15
REMARK                            x       y       z     vdW  Elec       q    Type
REMARK                         _______ _______ _______ _____ _____    ______ ____
ROOT
ATOM      1  C   LIG A   1     -11.312   7.023 129.471  0.00  0.00    +0.059 A 
ATOM      2  C   LIG A   1     -12.139   6.616 130.524  0.00  0.00    +0.018 A 
ATOM      3  C   LIG A   1     -11.585   6.323 131.772  0.00  0.00    +0.046 A 
ATOM      4  C   LIG A   1     -10.205   6.430 131.962  0.00  0.00    +0.120 A 
ATOM      5  C   LIG A   1      -9.356   6.797 130.915  0.00  0.00    -0.002 A 
ATOM      6  C   LIG A   1      -9.924   7.105 129.674  0.00  0.00    +0.022 A 
ENDROOT
BRANCH   1   8
ATOM      7  O   LIG A   1     -12.327   6.655 127.322  0.00  0.00    -0.245 OA
ATOM      8  C   LIG A   1     -11.923   7.436 128.180  0.00  0.00    +0.339 C 
BRANCH   8   9
ATOM      9  O   LIG A   1     -12.024   8.783 128.157  0.00  0.00    -0.465 OA
ATOM     10  C   LIG A   1     -13.290   9.307 128.551  0.00  0.00    +0.280 C 
ENDBRANCH   8   9
ENDBRANCH   1   8
BRANCH   4  11
ATOM     11  O   LIG A   1      -9.659   6.177 133.190  0.00  0.00    -0.506 OA
ATOM     12  H   LIG A   1      -8.976   5.491 133.084  0.00  0.00    +0.292 HD
ENDBRANCH   4  11
BRANCH   5  13
ATOM     13  C   LIG A   1      -7.855   6.848 131.072  0.00  0.00    +0.074 C 
BRANCH  13  14
ATOM     14  C   LIG A   1      -7.116   5.546 130.700  0.00  0.00    +0.144 C 
BRANCH  14  15
ATOM     15  C   LIG A   1      -6.488   4.898 131.922  0.00  0.00    -0.051 C 
ATOM     16  C   LIG A   1      -6.095   5.813 133.052  0.00  0.00    +0.041 C 
ATOM     17  C   LIG A   1      -6.280   3.572 132.016  0.00  0.00    +0.010 C 
ENDBRANCH  14  15
BRANCH  14  18
ATOM     18  O   LIG A   1      -6.067   5.774 129.761  0.00  0.00    -0.387 OA
ATOM     19  H   LIG A   1      -5.315   6.146 130.258  0.00  0.00    +0.210 HD
ENDBRANCH  14  18
ENDBRANCH  13  14
ENDBRANCH   5  13
TORSDOF 7
ENDMDL
MODEL 9
REMARK VINA RESULT:      -5.6      2.810      3.475
REMARK  Name = NuBBE_353
REMARK  9 active torsions:
REMARK  status: ('A' for Active; 'I' for Inactive)
REMARK    1  A    between atoms: C_2  and  O_3
REMARK    2  A    between atoms: C_2  and  C_5
REMARK    3  A    between atoms: O_3  and  C_4
REMARK    4  A    between atoms: C_8  and  O_9
REMARK    5  A    between atoms: C_10  and  C_11
REMARK    6  A    between atoms: C_11  and  C_12
REMARK    7  A    between atoms: C_12  and  O_13
REMARK    8  A    between atoms: C_12  and  C_14
REMARK    9  A    between atoms: C_14  and  C_15
REMARK                            x       y       z     vdW  Elec       q    Type
REMARK                         _______ _______ _______ _____ _____    ______ ____
ROOT
ATOM      1  C   LIG A   1      -8.552   4.163 130.057  0.00  0.00    +0.059 A 
ATOM      2  C   LIG A   1      -8.306   3.883 131.406  0.00  0.00    +0.018 A 
ATOM      3  C   LIG A   1      -8.926   4.644 132.400  0.00  0.00    +0.046 A 
ATOM      4  C   LIG A   1      -9.784   5.687 132.043  0.00  0.00    +0.120 A 
ATOM      5  C   LIG A   1     -10.014   6.010 130.703  0.00  0.00    -0.002 A 
ATOM      6  C   LIG A   1      -9.401   5.230 129.716  0.00  0.00    +0.022 A 
ENDROOT
BRANCH   1   8
ATOM      7  O   LIG A   1      -6.775   3.205 128.750  0.00  0.00    -0.245 OA
ATOM      8  C   LIG A   1      -7.973   3.281 129.010  0.00  0.00    +0.339 C 
BRANCH   8   9
ATOM      9  O   LIG A   1      -8.965   2.540 128.469  0.00  0.00    -0.465 OA
ATOM     10  C   LIG A   1      -8.539   1.443 127.663  0.00  0.00    +0.280 C 
ENDBRANCH   8   9
ENDBRANCH   1   8
BRANCH   4  11
ATOM     11  O   LIG A   1     -10.420   6.415 133.010  0.00  0.00    -0.506 OA
ATOM     12  H   LIG A   1      -9.995   7.289 133.062  0.00  0.00    +0.292 HD
ENDBRANCH   4  11
BRANCH   5  13
ATOM     13  C   LIG A   1     -10.876   7.179 130.289  0.00  0.00    +0.074 C 
BRANCH  13  14
ATOM     14  C   LIG A   1     -12.386   6.876 130.202  0.00  0.00    +0.144 C 
BRANCH  14  15
ATOM     15  C   LIG A   1     -13.054   7.704 129.117  0.00  0.00    -0.051 C 
ATOM     16  C   LIG A   1     -12.882   9.198 129.198  0.00  0.00    +0.041 C 
ATOM     17  C   LIG A   1     -13.772   7.154 128.121  0.00  0.00    +0.010 C 
ENDBRANCH  14  15
BRANCH  14  18
ATOM     18  O   LIG A   1     -13.063   7.163 131.424  0.00  0.00    -0.387 OA
ATOM     19  H   LIG A   1     -12.447   7.676 131.978  0.00  0.00    +0.210 HD
ENDBRANCH  14  18
ENDBRANCH  13  14
ENDBRANCH   5  13
TORSDOF 7
ENDMDL
