MODEL 1
REMARK VINA RESULT:      -7.3      0.000      0.000
REMARK  Name = NuBBE_2101
REMARK  8 active torsions:
REMARK  status: ('A' for Active; 'I' for Inactive)
REMARK    1  A    between atoms: C_1  and  C_2
REMARK    2  A    between atoms: C_1  and  C_4
REMARK    3  A    between atoms: C_6  and  O_7
REMARK    4  A    between atoms: O_7  and  C_8
REMARK    5  A    between atoms: C_11  and  O_14
REMARK    6  A    between atoms: O_14  and  C_15
REMARK    7  A    between atoms: C_17  and  C_22
REMARK    8  A    between atoms: C_19  and  C_21
REMARK                            x       y       z     vdW  Elec       q    Type
REMARK                         _______ _______ _______ _____ _____    ______ ____
ROOT
ATOM      1  C   LIG A   1      -7.843   4.608 132.723  0.00  0.00    +0.044 C 
ATOM      2  C   LIG A   1      -8.480   3.600 131.811  0.00  0.00    +0.150 C 
ATOM      3  C   LIG A   1      -7.859   2.567 131.208  0.00  0.00    +0.203 C 
ATOM      4  C   LIG A   1      -6.382   2.377 131.457  0.00  0.00    +0.229 C 
ATOM      5  O   LIG A   1      -5.807   1.353 131.063  0.00  0.00    -0.286 OA
ATOM      6  C   LIG A   1      -5.597   3.438 132.255  0.00  0.00    +0.193 C 
ATOM      7  C   LIG A   1      -6.359   4.765 132.333  0.00  0.00    +0.055 C 
ATOM      8  O   LIG A   1      -9.803   3.902 131.522  0.00  0.00    -0.484 OA
ATOM      9  C   LIG A   1     -10.101   5.203 132.072  0.00  0.00    +0.207 C 
ATOM     10  C   LIG A   1      -8.735   5.853 132.417  0.00  0.00    +0.045 C 
ATOM     11  C   LIG A   1      -8.191   6.792 131.332  0.00  0.00    +0.012 C 
ENDROOT
BRANCH   9  12
ATOM     12  C   LIG A   1     -11.056   5.979 131.172  0.00  0.00    -0.003 A 
ATOM     13  C   LIG A   1     -11.018   5.809 129.773  0.00  0.00    +0.056 A 
ATOM     14  C   LIG A   1     -11.913   6.520 128.994  0.00  0.00    +0.167 A 
ATOM     15  C   LIG A   1     -12.823   7.390 129.544  0.00  0.00    +0.166 A 
ATOM     16  C   LIG A   1     -12.881   7.608 130.900  0.00  0.00    +0.050 A 
ATOM     17  C   LIG A   1     -11.982   6.907 131.712  0.00  0.00    +0.011 A 
ATOM     18  O   LIG A   1     -13.612   7.982 128.609  0.00  0.00    -0.453 OA
ATOM     19  C   LIG A   1     -13.061   7.426 127.399  0.00  0.00    +0.466 C 
ATOM     20  O   LIG A   1     -12.014   6.459 127.638  0.00  0.00    -0.453 OA
ENDBRANCH   9  12
BRANCH   3  21
ATOM     21  O   LIG A   1      -8.614   1.733 130.388  0.00  0.00    -0.489 OA
ATOM     22  C   LIG A   1      -8.548   1.939 128.981  0.00  0.00    +0.277 C 
ENDBRANCH   3  21
BRANCH   6  23
ATOM     23  O   LIG A   1      -4.287   3.729 131.747  0.00  0.00    -0.372 OA
ATOM     24  C   LIG A   1      -4.269   4.782 130.783  0.00  0.00    +0.195 C 
ENDBRANCH   6  23
BRANCH   1  25
ATOM     25  C   LIG A   1      -8.044   4.241 134.239  0.00  0.00    +0.041 C 
BRANCH  25  26
ATOM     26  C   LIG A   1      -7.792   5.287 135.294  0.00  0.00    -0.034 C 
ATOM     27  C   LIG A   1      -6.664   5.368 136.014  0.00  0.00    +0.004 C 
ENDBRANCH  25  26
ENDBRANCH   1  25
TORSDOF 5
ENDMDL
MODEL 2
REMARK VINA RESULT:      -7.2      7.319     10.656
REMARK  Name = NuBBE_2101
REMARK  8 active torsions:
REMARK  status: ('A' for Active; 'I' for Inactive)
REMARK    1  A    between atoms: C_1  and  C_2
REMARK    2  A    between atoms: C_1  and  C_4
REMARK    3  A    between atoms: C_6  and  O_7
REMARK    4  A    between atoms: O_7  and  C_8
REMARK    5  A    between atoms: C_11  and  O_14
REMARK    6  A    between atoms: O_14  and  C_15
REMARK    7  A    between atoms: C_17  and  C_22
REMARK    8  A    between atoms: C_19  and  C_21
REMARK                            x       y       z     vdW  Elec       q    Type
REMARK                         _______ _______ _______ _____ _____    ______ ____
ROOT
ATOM      1  C   LIG A   1      -6.294  -0.878 125.183  0.00  0.00    +0.044 C 
ATOM      2  C   LIG A   1      -7.493  -1.776 125.279  0.00  0.00    +0.150 C 
ATOM      3  C   LIG A   1      -8.634  -1.660 124.571  0.00  0.00    +0.203 C 
ATOM      4  C   LIG A   1      -8.745  -0.530 123.576  0.00  0.00    +0.229 C 
ATOM      5  O   LIG A   1      -9.701  -0.481 122.787  0.00  0.00    -0.286 OA
ATOM      6  C   LIG A   1      -7.636   0.539 123.502  0.00  0.00    +0.193 C 
ATOM      7  C   LIG A   1      -6.759   0.530 124.758  0.00  0.00    +0.055 C 
ATOM      8  O   LIG A   1      -7.379  -2.712 126.297  0.00  0.00    -0.484 OA
ATOM      9  C   LIG A   1      -6.190  -2.411 127.058  0.00  0.00    +0.207 C 
ATOM     10  C   LIG A   1      -5.762  -0.977 126.649  0.00  0.00    +0.045 C 
ATOM     11  C   LIG A   1      -6.257   0.124 127.596  0.00  0.00    +0.012 C 
ENDROOT
BRANCH   9  12
ATOM     12  C   LIG A   1      -6.393  -2.701 128.541  0.00  0.00    -0.003 A 
ATOM     13  C   LIG A   1      -5.286  -2.935 129.382  0.00  0.00    +0.056 A 
ATOM     14  C   LIG A   1      -5.513  -3.178 130.725  0.00  0.00    +0.167 A 
ATOM     15  C   LIG A   1      -6.781  -3.207 131.253  0.00  0.00    +0.166 A 
ATOM     16  C   LIG A   1      -7.892  -3.010 130.468  0.00  0.00    +0.050 A 
ATOM     17  C   LIG A   1      -7.692  -2.770 129.104  0.00  0.00    +0.011 A 
ATOM     18  O   LIG A   1      -6.785  -3.456 132.589  0.00  0.00    -0.453 OA
ATOM     19  C   LIG A   1      -5.377  -3.632 132.836  0.00  0.00    +0.466 C 
ATOM     20  O   LIG A   1      -4.557  -3.409 131.666  0.00  0.00    -0.453 OA
ENDBRANCH   9  12
BRANCH   3  21
ATOM     21  O   LIG A   1      -9.647  -2.586 124.799  0.00  0.00    -0.489 OA
ATOM     22  C   LIG A   1      -9.746  -3.702 123.921  0.00  0.00    +0.277 C 
ENDBRANCH   3  21
BRANCH   6  23
ATOM     23  O   LIG A   1      -8.103   1.883 123.318  0.00  0.00    -0.372 OA
ATOM     24  C   LIG A   1      -8.699   2.446 124.488  0.00  0.00    +0.195 C 
ENDBRANCH   6  23
BRANCH   1  25
ATOM     25  C   LIG A   1      -5.188  -1.471 124.236  0.00  0.00    +0.041 C 
BRANCH  25  26
ATOM     26  C   LIG A   1      -5.441  -2.779 123.530  0.00  0.00    -0.034 C 
ATOM     27  C   LIG A   1      -4.701  -3.882 123.710  0.00  0.00    +0.004 C 
ENDBRANCH  25  26
ENDBRANCH   1  25
TORSDOF 5
ENDMDL
MODEL 3
REMARK VINA RESULT:      -7.2      5.757      9.316
REMARK  Name = NuBBE_2101
REMARK  8 active torsions:
REMARK  status: ('A' for Active; 'I' for Inactive)
REMARK    1  A    between atoms: C_1  and  C_2
REMARK    2  A    between atoms: C_1  and  C_4
REMARK    3  A    between atoms: C_6  and  O_7
REMARK    4  A    between atoms: O_7  and  C_8
REMARK    5  A    between atoms: C_11  and  O_14
REMARK    6  A    between atoms: O_14  and  C_15
REMARK    7  A    between atoms: C_17  and  C_22
REMARK    8  A    between atoms: C_19  and  C_21
REMARK                            x       y       z     vdW  Elec       q    Type
REMARK                         _______ _______ _______ _____ _____    ______ ____
ROOT
ATOM      1  C   LIG A   1      -6.491  -1.537 125.682  0.00  0.00    +0.044 C 
ATOM      2  C   LIG A   1      -6.789  -1.529 127.154  0.00  0.00    +0.150 C 
ATOM      3  C   LIG A   1      -7.744  -2.247 127.777  0.00  0.00    +0.203 C 
ATOM      4  C   LIG A   1      -8.611  -3.159 126.942  0.00  0.00    +0.229 C 
ATOM      5  O   LIG A   1      -9.386  -3.958 127.487  0.00  0.00    -0.286 OA
ATOM      6  C   LIG A   1      -8.493  -3.133 125.405  0.00  0.00    +0.193 C 
ATOM      7  C   LIG A   1      -7.787  -1.865 124.914  0.00  0.00    +0.055 C 
ATOM      8  O   LIG A   1      -6.047  -0.580 127.844  0.00  0.00    -0.484 OA
ATOM      9  C   LIG A   1      -5.330   0.221 126.881  0.00  0.00    +0.207 C 
ATOM     10  C   LIG A   1      -5.976  -0.073 125.501  0.00  0.00    +0.045 C 
ATOM     11  C   LIG A   1      -7.042   0.943 125.073  0.00  0.00    +0.012 C 
ENDROOT
BRANCH   9  12
ATOM     12  C   LIG A   1      -5.237   1.675 127.331  0.00  0.00    -0.003 A 
ATOM     13  C   LIG A   1      -4.163   2.486 126.912  0.00  0.00    +0.056 A 
ATOM     14  C   LIG A   1      -4.126   3.805 127.330  0.00  0.00    +0.167 A 
ATOM     15  C   LIG A   1      -5.095   4.336 128.145  0.00  0.00    +0.166 A 
ATOM     16  C   LIG A   1      -6.148   3.578 128.599  0.00  0.00    +0.050 A 
ATOM     17  C   LIG A   1      -6.207   2.238 128.198  0.00  0.00    +0.011 A 
ATOM     18  O   LIG A   1      -4.876   5.646 128.433  0.00  0.00    -0.453 OA
ATOM     19  C   LIG A   1      -3.627   5.868 127.749  0.00  0.00    +0.466 C 
ATOM     20  O   LIG A   1      -3.169   4.717 127.005  0.00  0.00    -0.453 OA
ENDBRANCH   9  12
BRANCH   3  21
ATOM     21  O   LIG A   1      -7.880  -2.106 129.155  0.00  0.00    -0.489 OA
ATOM     22  C   LIG A   1      -7.263  -3.077 129.992  0.00  0.00    +0.277 C 
ENDBRANCH   3  21
BRANCH   6  23
ATOM     23  O   LIG A   1      -9.740  -3.226 124.701  0.00  0.00    -0.372 OA
ATOM     24  C   LIG A   1      -9.598  -3.190 123.281  0.00  0.00    +0.195 C 
ENDBRANCH   6  23
BRANCH   1  25
ATOM     25  C   LIG A   1      -5.304  -2.505 125.327  0.00  0.00    +0.041 C 
BRANCH  25  26
ATOM     26  C   LIG A   1      -5.122  -2.964 123.903  0.00  0.00    -0.034 C 
ATOM     27  C   LIG A   1      -4.419  -4.050 123.550  0.00  0.00    +0.004 C 
ENDBRANCH  25  26
ENDBRANCH   1  25
TORSDOF 5
ENDMDL
MODEL 4
REMARK VINA RESULT:      -7.0      5.131      8.613
REMARK  Name = NuBBE_2101
REMARK  8 active torsions:
REMARK  status: ('A' for Active; 'I' for Inactive)
REMARK    1  A    between atoms: C_1  and  C_2
REMARK    2  A    between atoms: C_1  and  C_4
REMARK    3  A    between atoms: C_6  and  O_7
REMARK    4  A    between atoms: O_7  and  C_8
REMARK    5  A    between atoms: C_11  and  O_14
REMARK    6  A    between atoms: O_14  and  C_15
REMARK    7  A    between atoms: C_17  and  C_22
REMARK    8  A    between atoms: C_19  and  C_21
REMARK                            x       y       z     vdW  Elec       q    Type
REMARK                         _______ _______ _______ _____ _____    ______ ____
ROOT
ATOM      1  C   LIG A   1      -6.356  -2.250 130.686  0.00  0.00    +0.044 C 
ATOM      2  C   LIG A   1      -6.577  -0.790 130.414  0.00  0.00    +0.150 C 
ATOM      3  C   LIG A   1      -6.866   0.156 131.330  0.00  0.00    +0.203 C 
ATOM      4  C   LIG A   1      -6.981  -0.262 132.776  0.00  0.00    +0.229 C 
ATOM      5  O   LIG A   1      -7.079   0.592 133.669  0.00  0.00    -0.286 OA
ATOM      6  C   LIG A   1      -6.922  -1.757 133.149  0.00  0.00    +0.193 C 
ATOM      7  C   LIG A   1      -7.170  -2.653 131.932  0.00  0.00    +0.055 C 
ATOM      8  O   LIG A   1      -6.585  -0.494 129.058  0.00  0.00    -0.484 OA
ATOM      9  C   LIG A   1      -6.538  -1.735 128.323  0.00  0.00    +0.207 C 
ATOM     10  C   LIG A   1      -6.872  -2.857 129.342  0.00  0.00    +0.045 C 
ATOM     11  C   LIG A   1      -8.345  -3.288 129.346  0.00  0.00    +0.012 C 
ENDROOT
BRANCH   9  12
ATOM     12  C   LIG A   1      -7.371  -1.656 127.049  0.00  0.00    -0.003 A 
ATOM     13  C   LIG A   1      -7.297  -2.679 126.082  0.00  0.00    +0.056 A 
ATOM     14  C   LIG A   1      -8.082  -2.576 124.947  0.00  0.00    +0.167 A 
ATOM     15  C   LIG A   1      -8.916  -1.506 124.735  0.00  0.00    +0.166 A 
ATOM     16  C   LIG A   1      -9.003  -0.472 125.637  0.00  0.00    +0.050 A 
ATOM     17  C   LIG A   1      -8.214  -0.546 126.791  0.00  0.00    +0.011 A 
ATOM     18  O   LIG A   1      -9.601  -1.600 123.565  0.00  0.00    -0.453 OA
ATOM     19  C   LIG A   1      -9.065  -2.828 123.036  0.00  0.00    +0.466 C 
ATOM     20  O   LIG A   1      -8.136  -3.480 123.930  0.00  0.00    -0.453 OA
ENDBRANCH   9  12
BRANCH   3  21
ATOM     21  O   LIG A   1      -7.045   1.464 130.891  0.00  0.00    -0.489 OA
ATOM     22  C   LIG A   1      -8.376   1.942 130.728  0.00  0.00    +0.277 C 
ENDBRANCH   3  21
BRANCH   6  23
ATOM     23  O   LIG A   1      -7.844  -2.162 134.171  0.00  0.00    -0.372 OA
ATOM     24  C   LIG A   1      -8.223  -3.536 134.086  0.00  0.00    +0.195 C 
ENDBRANCH   6  23
BRANCH   1  25
ATOM     25  C   LIG A   1      -4.828  -2.600 130.809  0.00  0.00    +0.041 C 
BRANCH  25  26
ATOM     26  C   LIG A   1      -4.279  -3.791 130.066  0.00  0.00    -0.034 C 
ATOM     27  C   LIG A   1      -3.281  -3.722 129.174  0.00  0.00    +0.004 C 
ENDBRANCH  25  26
ENDBRANCH   1  25
TORSDOF 5
ENDMDL
MODEL 5
REMARK VINA RESULT:      -7.0      2.235      2.705
REMARK  Name = NuBBE_2101
REMARK  8 active torsions:
REMARK  status: ('A' for Active; 'I' for Inactive)
REMARK    1  A    between atoms: C_1  and  C_2
REMARK    2  A    between atoms: C_1  and  C_4
REMARK    3  A    between atoms: C_6  and  O_7
REMARK    4  A    between atoms: O_7  and  C_8
REMARK    5  A    between atoms: C_11  and  O_14
REMARK    6  A    between atoms: O_14  and  C_15
REMARK    7  A    between atoms: C_17  and  C_22
REMARK    8  A    between atoms: C_19  and  C_21
REMARK                            x       y       z     vdW  Elec       q    Type
REMARK                         _______ _______ _______ _____ _____    ______ ____
ROOT
ATOM      1  C   LIG A   1      -7.381   4.292 130.430  0.00  0.00    +0.044 C 
ATOM      2  C   LIG A   1      -8.055   4.174 129.093  0.00  0.00    +0.150 C 
ATOM      3  C   LIG A   1      -7.452   3.898 127.920  0.00  0.00    +0.203 C 
ATOM      4  C   LIG A   1      -5.959   3.679 127.917  0.00  0.00    +0.229 C 
ATOM      5  O   LIG A   1      -5.388   3.261 126.899  0.00  0.00    -0.286 OA
ATOM      6  C   LIG A   1      -5.146   3.923 129.205  0.00  0.00    +0.193 C 
ATOM      7  C   LIG A   1      -5.930   4.767 130.215  0.00  0.00    +0.055 C 
ATOM      8  O   LIG A   1      -9.400   4.511 129.141  0.00  0.00    -0.484 OA
ATOM      9  C   LIG A   1      -9.689   5.035 130.455  0.00  0.00    +0.207 C 
ATOM     10  C   LIG A   1      -8.317   5.339 131.114  0.00  0.00    +0.045 C 
ATOM     11  C   LIG A   1      -7.865   6.800 130.984  0.00  0.00    +0.012 C 
ENDROOT
BRANCH   9  12
ATOM     12  C   LIG A   1     -10.716   6.159 130.389  0.00  0.00    -0.003 A 
ATOM     13  C   LIG A   1     -10.847   6.942 129.224  0.00  0.00    +0.056 A 
ATOM     14  C   LIG A   1     -11.803   7.941 129.201  0.00  0.00    +0.167 A 
ATOM     15  C   LIG A   1     -12.615   8.196 130.279  0.00  0.00    +0.166 A 
ATOM     16  C   LIG A   1     -12.508   7.476 131.445  0.00  0.00    +0.050 A 
ATOM     17  C   LIG A   1     -11.543   6.463 131.500  0.00  0.00    +0.011 A 
ATOM     18  O   LIG A   1     -13.487   9.212 130.050  0.00  0.00    -0.453 OA
ATOM     19  C   LIG A   1     -13.099   9.606 128.719  0.00  0.00    +0.466 C 
ATOM     20  O   LIG A   1     -12.063   8.773 128.154  0.00  0.00    -0.453 OA
ENDBRANCH   9  12
BRANCH   3  21
ATOM     21  O   LIG A   1      -8.240   3.833 126.774  0.00  0.00    -0.489 OA
ATOM     22  C   LIG A   1      -8.134   4.889 125.826  0.00  0.00    +0.277 C 
ENDBRANCH   3  21
BRANCH   6  23
ATOM     23  O   LIG A   1      -3.878   4.566 129.007  0.00  0.00    -0.372 OA
ATOM     24  C   LIG A   1      -3.111   4.696 130.203  0.00  0.00    +0.195 C 
ENDBRANCH   6  23
BRANCH   1  25
ATOM     25  C   LIG A   1      -7.476   2.959 131.257  0.00  0.00    +0.041 C 
BRANCH  25  26
ATOM     26  C   LIG A   1      -7.705   3.024 132.745  0.00  0.00    -0.034 C 
ATOM     27  C   LIG A   1      -8.890   2.802 133.331  0.00  0.00    +0.004 C 
ENDBRANCH  25  26
ENDBRANCH   1  25
TORSDOF 5
ENDMDL
MODEL 6
REMARK VINA RESULT:      -7.0      5.053      7.326
REMARK  Name = NuBBE_2101
REMARK  8 active torsions:
REMARK  status: ('A' for Active; 'I' for Inactive)
REMARK    1  A    between atoms: C_1  and  C_2
REMARK    2  A    between atoms: C_1  and  C_4
REMARK    3  A    between atoms: C_6  and  O_7
REMARK    4  A    between atoms: O_7  and  C_8
REMARK    5  A    between atoms: C_11  and  O_14
REMARK    6  A    between atoms: O_14  and  C_15
REMARK    7  A    between atoms: C_17  and  C_22
REMARK    8  A    between atoms: C_19  and  C_21
REMARK                            x       y       z     vdW  Elec       q    Type
REMARK                         _______ _______ _______ _____ _____    ______ ____
ROOT
ATOM      1  C   LIG A   1      -3.910   3.460 127.923  0.00  0.00    +0.044 C 
ATOM      2  C   LIG A   1      -5.163   4.269 128.101  0.00  0.00    +0.150 C 
ATOM      3  C   LIG A   1      -5.868   4.405 129.242  0.00  0.00    +0.203 C 
ATOM      4  C   LIG A   1      -5.373   3.693 130.477  0.00  0.00    +0.229 C 
ATOM      5  O   LIG A   1      -5.888   3.921 131.581  0.00  0.00    -0.286 OA
ATOM      6  C   LIG A   1      -4.183   2.717 130.374  0.00  0.00    +0.193 C 
ATOM      7  C   LIG A   1      -3.928   2.288 128.925  0.00  0.00    +0.055 C 
ATOM      8  O   LIG A   1      -5.635   4.792 126.905  0.00  0.00    -0.484 OA
ATOM      9  C   LIG A   1      -4.844   4.246 125.829  0.00  0.00    +0.207 C 
ATOM     10  C   LIG A   1      -4.066   3.044 126.426  0.00  0.00    +0.045 C 
ATOM     11  C   LIG A   1      -4.734   1.681 126.196  0.00  0.00    +0.012 C 
ENDROOT
BRANCH   9  12
ATOM     12  C   LIG A   1      -5.693   4.001 124.586  0.00  0.00    -0.003 A 
ATOM     13  C   LIG A   1      -5.195   4.317 123.306  0.00  0.00    +0.056 A 
ATOM     14  C   LIG A   1      -5.992   4.063 122.204  0.00  0.00    +0.167 A 
ATOM     15  C   LIG A   1      -7.251   3.527 122.325  0.00  0.00    +0.166 A 
ATOM     16  C   LIG A   1      -7.789   3.227 123.553  0.00  0.00    +0.050 A 
ATOM     17  C   LIG A   1      -7.007   3.479 124.687  0.00  0.00    +0.011 A 
ATOM     18  O   LIG A   1      -7.863   3.353 121.124  0.00  0.00    -0.453 OA
ATOM     19  C   LIG A   1      -6.867   3.889 120.232  0.00  0.00    +0.466 C 
ATOM     20  O   LIG A   1      -5.655   4.298 120.905  0.00  0.00    -0.453 OA
ENDBRANCH   9  12
BRANCH   3  21
ATOM     21  O   LIG A   1      -7.014   5.194 129.217  0.00  0.00    -0.489 OA
ATOM     22  C   LIG A   1      -8.276   4.541 129.150  0.00  0.00    +0.277 C 
ENDBRANCH   3  21
BRANCH   6  23
ATOM     23  O   LIG A   1      -4.313   1.520 131.155  0.00  0.00    -0.372 OA
ATOM     24  C   LIG A   1      -4.284   0.324 130.377  0.00  0.00    +0.195 C 
ENDBRANCH   6  23
BRANCH   1  25
ATOM     25  C   LIG A   1      -2.617   4.347 128.037  0.00  0.00    +0.041 C 
BRANCH  25  26
ATOM     26  C   LIG A   1      -2.695   5.687 128.724  0.00  0.00    -0.034 C 
ATOM     27  C   LIG A   1      -2.289   6.838 128.169  0.00  0.00    +0.004 C 
ENDBRANCH  25  26
ENDBRANCH   1  25
TORSDOF 5
ENDMDL
MODEL 7
REMARK VINA RESULT:      -6.7      1.862      3.174
REMARK  Name = NuBBE_2101
REMARK  8 active torsions:
REMARK  status: ('A' for Active; 'I' for Inactive)
REMARK    1  A    between atoms: C_1  and  C_2
REMARK    2  A    between atoms: C_1  and  C_4
REMARK    3  A    between atoms: C_6  and  O_7
REMARK    4  A    between atoms: O_7  and  C_8
REMARK    5  A    between atoms: C_11  and  O_14
REMARK    6  A    between atoms: O_14  and  C_15
REMARK    7  A    between atoms: C_17  and  C_22
REMARK    8  A    between atoms: C_19  and  C_21
REMARK                            x       y       z     vdW  Elec       q    Type
REMARK                         _______ _______ _______ _____ _____    ______ ____
ROOT
ATOM      1  C   LIG A   1      -6.471   4.846 131.465  0.00  0.00    +0.044 C 
ATOM      2  C   LIG A   1      -7.255   5.069 132.726  0.00  0.00    +0.150 C 
ATOM      3  C   LIG A   1      -7.183   4.328 133.850  0.00  0.00    +0.203 C 
ATOM      4  C   LIG A   1      -6.230   3.158 133.874  0.00  0.00    +0.229 C 
ATOM      5  O   LIG A   1      -6.007   2.553 134.933  0.00  0.00    -0.286 OA
ATOM      6  C   LIG A   1      -5.487   2.747 132.587  0.00  0.00    +0.193 C 
ATOM      7  C   LIG A   1      -6.146   3.344 131.340  0.00  0.00    +0.055 C 
ATOM      8  O   LIG A   1      -8.202   6.075 132.596  0.00  0.00    -0.484 OA
ATOM      9  C   LIG A   1      -8.241   6.484 131.212  0.00  0.00    +0.207 C 
ATOM     10  C   LIG A   1      -7.491   5.386 130.412  0.00  0.00    +0.045 C 
ATOM     11  C   LIG A   1      -8.406   4.323 129.789  0.00  0.00    +0.012 C 
ENDROOT
BRANCH   9  12
ATOM     12  C   LIG A   1      -9.658   6.842 130.780  0.00  0.00    -0.003 A 
ATOM     13  C   LIG A   1      -9.878   7.628 129.631  0.00  0.00    +0.056 A 
ATOM     14  C   LIG A   1     -11.181   7.915 129.264  0.00  0.00    +0.167 A 
ATOM     15  C   LIG A   1     -12.257   7.467 129.992  0.00  0.00    +0.166 A 
ATOM     16  C   LIG A   1     -12.091   6.719 131.133  0.00  0.00    +0.050 A 
ATOM     17  C   LIG A   1     -10.783   6.419 131.532  0.00  0.00    +0.011 A 
ATOM     18  O   LIG A   1     -13.446   7.855 129.461  0.00  0.00    -0.453 OA
ATOM     19  C   LIG A   1     -12.998   8.643 128.342  0.00  0.00    +0.466 C 
ATOM     20  O   LIG A   1     -11.562   8.647 128.181  0.00  0.00    -0.453 OA
ENDBRANCH   9  12
BRANCH   3  21
ATOM     21  O   LIG A   1      -7.994   4.682 134.924  0.00  0.00    -0.489 OA
ATOM     22  C   LIG A   1      -7.474   5.592 135.886  0.00  0.00    +0.277 C 
ENDBRANCH   3  21
BRANCH   6  23
ATOM     23  O   LIG A   1      -5.379   1.332 132.376  0.00  0.00    -0.372 OA
ATOM     24  C   LIG A   1      -6.499   0.770 131.691  0.00  0.00    +0.195 C 
ENDBRANCH   6  23
BRANCH   1  25
ATOM     25  C   LIG A   1      -5.193   5.759 131.398  0.00  0.00    +0.041 C 
BRANCH  25  26
ATOM     26  C   LIG A   1      -4.684   6.415 132.657  0.00  0.00    -0.034 C 
ATOM     27  C   LIG A   1      -3.490   6.154 133.207  0.00  0.00    +0.004 C 
ENDBRANCH  25  26
ENDBRANCH   1  25
TORSDOF 5
ENDMDL
MODEL 8
REMARK VINA RESULT:      -6.6      2.741      6.535
REMARK  Name = NuBBE_2101
REMARK  8 active torsions:
REMARK  status: ('A' for Active; 'I' for Inactive)
REMARK    1  A    between atoms: C_1  and  C_2
REMARK    2  A    between atoms: C_1  and  C_4
REMARK    3  A    between atoms: C_6  and  O_7
REMARK    4  A    between atoms: O_7  and  C_8
REMARK    5  A    between atoms: C_11  and  O_14
REMARK    6  A    between atoms: O_14  and  C_15
REMARK    7  A    between atoms: C_17  and  C_22
REMARK    8  A    between atoms: C_19  and  C_21
REMARK                            x       y       z     vdW  Elec       q    Type
REMARK                         _______ _______ _______ _____ _____    ______ ____
ROOT
ATOM      1  C   LIG A   1      -8.260   3.891 132.647  0.00  0.00    +0.044 C 
ATOM      2  C   LIG A   1      -7.610   3.959 131.295  0.00  0.00    +0.150 C 
ATOM      3  C   LIG A   1      -7.707   4.976 130.415  0.00  0.00    +0.203 C 
ATOM      4  C   LIG A   1      -8.538   6.176 130.799  0.00  0.00    +0.229 C 
ATOM      5  O   LIG A   1      -8.522   7.199 130.100  0.00  0.00    -0.286 OA
ATOM      6  C   LIG A   1      -9.370   6.149 132.097  0.00  0.00    +0.193 C 
ATOM      7  C   LIG A   1      -9.560   4.720 132.617  0.00  0.00    +0.055 C 
ATOM      8  O   LIG A   1      -6.969   2.778 130.950  0.00  0.00    -0.484 OA
ATOM      9  C   LIG A   1      -7.276   1.787 131.953  0.00  0.00    +0.207 C 
ATOM     10  C   LIG A   1      -8.470   2.348 132.769  0.00  0.00    +0.045 C 
ATOM     11  C   LIG A   1      -9.843   1.840 132.308  0.00  0.00    +0.012 C 
ENDROOT
BRANCH   9  12
ATOM     12  C   LIG A   1      -7.420   0.400 131.336  0.00  0.00    -0.003 A 
ATOM     13  C   LIG A   1      -7.574   0.250 129.942  0.00  0.00    +0.056 A 
ATOM     14  C   LIG A   1      -7.684  -1.027 129.421  0.00  0.00    +0.167 A 
ATOM     15  C   LIG A   1      -7.659  -2.143 130.222  0.00  0.00    +0.166 A 
ATOM     16  C   LIG A   1      -7.536  -2.045 131.587  0.00  0.00    +0.050 A 
ATOM     17  C   LIG A   1      -7.430  -0.765 132.143  0.00  0.00    +0.011 A 
ATOM     18  O   LIG A   1      -7.777  -3.297 129.514  0.00  0.00    -0.453 OA
ATOM     19  C   LIG A   1      -7.931  -2.780 128.178  0.00  0.00    +0.466 C 
ATOM     20  O   LIG A   1      -7.825  -1.341 128.104  0.00  0.00    -0.453 OA
ENDBRANCH   9  12
BRANCH   3  21
ATOM     21  O   LIG A   1      -7.037   4.862 129.201  0.00  0.00    -0.489 OA
ATOM     22  C   LIG A   1      -7.735   4.288 128.101  0.00  0.00    +0.277 C 
ENDBRANCH   3  21
BRANCH   6  23
ATOM     23  O   LIG A   1     -10.674   6.740 131.993  0.00  0.00    -0.372 OA
ATOM     24  C   LIG A   1     -11.574   5.996 131.172  0.00  0.00    +0.195 C 
ENDBRANCH   6  23
BRANCH   1  25
ATOM     25  C   LIG A   1      -7.278   4.328 133.794  0.00  0.00    +0.041 C 
BRANCH  25  26
ATOM     26  C   LIG A   1      -7.841   4.809 135.107  0.00  0.00    -0.034 C 
ATOM     27  C   LIG A   1      -7.181   5.612 135.955  0.00  0.00    +0.004 C 
ENDBRANCH  25  26
ENDBRANCH   1  25
TORSDOF 5
ENDMDL
MODEL 9
REMARK VINA RESULT:      -6.5      4.286      7.572
REMARK  Name = NuBBE_2101
REMARK  8 active torsions:
REMARK  status: ('A' for Active; 'I' for Inactive)
REMARK    1  A    between atoms: C_1  and  C_2
REMARK    2  A    between atoms: C_1  and  C_4
REMARK    3  A    between atoms: C_6  and  O_7
REMARK    4  A    between atoms: O_7  and  C_8
REMARK    5  A    between atoms: C_11  and  O_14
REMARK    6  A    between atoms: O_14  and  C_15
REMARK    7  A    between atoms: C_17  and  C_22
REMARK    8  A    between atoms: C_19  and  C_21
REMARK                            x       y       z     vdW  Elec       q    Type
REMARK                         _______ _______ _______ _____ _____    ______ ____
ROOT
ATOM      1  C   LIG A   1      -4.683   3.053 127.771  0.00  0.00    +0.044 C 
ATOM      2  C   LIG A   1      -6.061   3.646 127.847  0.00  0.00    +0.150 C 
ATOM      3  C   LIG A   1      -6.550   4.397 128.854  0.00  0.00    +0.203 C 
ATOM      4  C   LIG A   1      -5.649   4.690 130.029  0.00  0.00    +0.229 C 
ATOM      5  O   LIG A   1      -5.994   5.509 130.894  0.00  0.00    -0.286 OA
ATOM      6  C   LIG A   1      -4.270   4.009 130.127  0.00  0.00    +0.193 C 
ATOM      7  C   LIG A   1      -4.175   2.790 129.203  0.00  0.00    +0.055 C 
ATOM      8  O   LIG A   1      -6.877   3.236 126.803  0.00  0.00    -0.484 OA
ATOM      9  C   LIG A   1      -6.177   2.222 126.052  0.00  0.00    +0.207 C 
ATOM     10  C   LIG A   1      -4.988   1.766 126.939  0.00  0.00    +0.045 C 
ATOM     11  C   LIG A   1      -5.265   0.505 127.767  0.00  0.00    +0.012 C 
ENDROOT
BRANCH   9  12
ATOM     12  C   LIG A   1      -7.135   1.153 125.537  0.00  0.00    -0.003 A 
ATOM     13  C   LIG A   1      -6.770   0.327 124.454  0.00  0.00    +0.056 A 
ATOM     14  C   LIG A   1      -7.662  -0.641 124.029  0.00  0.00    +0.167 A 
ATOM     15  C   LIG A   1      -8.889  -0.809 124.623  0.00  0.00    +0.166 A 
ATOM     16  C   LIG A   1      -9.299  -0.011 125.665  0.00  0.00    +0.050 A 
ATOM     17  C   LIG A   1      -8.420   0.982 126.111  0.00  0.00    +0.011 A 
ATOM     18  O   LIG A   1      -9.610  -1.815 124.061  0.00  0.00    -0.453 OA
ATOM     19  C   LIG A   1      -8.717  -2.230 123.008  0.00  0.00    +0.466 C 
ATOM     20  O   LIG A   1      -7.458  -1.522 123.012  0.00  0.00    -0.453 OA
ENDBRANCH   9  12
BRANCH   3  21
ATOM     21  O   LIG A   1      -7.859   4.859 128.754  0.00  0.00    -0.489 OA
ATOM     22  C   LIG A   1      -8.853   4.237 129.560  0.00  0.00    +0.277 C 
ENDBRANCH   3  21
BRANCH   6  23
ATOM     23  O   LIG A   1      -3.901   3.574 131.444  0.00  0.00    -0.372 OA
ATOM     24  C   LIG A   1      -2.811   4.308 132.003  0.00  0.00    +0.195 C 
ENDBRANCH   6  23
BRANCH   1  25
ATOM     25  C   LIG A   1      -3.704   3.945 126.926  0.00  0.00    +0.041 C 
BRANCH  25  26
ATOM     26  C   LIG A   1      -2.215   3.792 127.111  0.00  0.00    -0.034 C 
ATOM     27  C   LIG A   1      -1.465   2.905 126.442  0.00  0.00    +0.004 C 
ENDBRANCH  25  26
ENDBRANCH   1  25
TORSDOF 5
ENDMDL
