MODEL 1
REMARK VINA RESULT:      -7.4      0.000      0.000
REMARK  Name = NuBBE_1046
REMARK  3 active torsions:
REMARK  status: ('A' for Active; 'I' for Inactive)
REMARK    1  A    between atoms: C_6  and  O_18
REMARK    2  A    between atoms: C_10  and  C_11
REMARK    3  A    between atoms: O_18  and  C_19
REMARK                            x       y       z     vdW  Elec       q    Type
REMARK                         _______ _______ _______ _____ _____    ______ ____
ROOT
ATOM      1  O   LIG A   1      -5.523   3.132 125.851  0.00  0.00    -0.287 OA
ATOM      2  C   LIG A   1      -6.114   2.796 124.832  0.00  0.00    +0.193 A 
ATOM      3  C   LIG A   1      -7.008   1.633 124.785  0.00  0.00    +0.064 A 
ATOM      4  C   LIG A   1      -7.216   0.841 125.914  0.00  0.00    +0.019 A 
ATOM      5  C   LIG A   1      -8.065  -0.265 125.827  0.00  0.00    +0.046 A 
ATOM      6  C   LIG A   1      -8.702  -0.581 124.621  0.00  0.00    +0.124 A 
ATOM      7  C   LIG A   1      -8.492   0.224 123.500  0.00  0.00    +0.092 A 
ATOM      8  C   LIG A   1      -7.643   1.329 123.585  0.00  0.00    +0.143 A 
ATOM      9  O   LIG A   1      -7.476   2.073 122.444  0.00  0.00    -0.455 OA
ATOM     10  C   LIG A   1      -6.628   3.170 122.484  0.00  0.00    +0.139 A 
ATOM     11  C   LIG A   1      -5.954   3.552 123.580  0.00  0.00    +0.098 A 
ENDROOT
BRANCH  10  12
ATOM     12  C   LIG A   1      -6.501   3.886 121.194  0.00  0.00    +0.017 A 
ATOM     13  C   LIG A   1      -5.340   4.602 120.859  0.00  0.00    +0.011 A 
ATOM     14  C   LIG A   1      -5.234   5.269 119.635  0.00  0.00    +0.001 A 
ATOM     15  C   LIG A   1      -6.292   5.242 118.731  0.00  0.00    +0.000 A 
ATOM     16  C   LIG A   1      -7.460   4.555 119.053  0.00  0.00    +0.001 A 
ATOM     17  C   LIG A   1      -7.563   3.883 120.275  0.00  0.00    +0.011 A 
ENDBRANCH  10  12
BRANCH   6  18
ATOM     18  O   LIG A   1      -9.497  -1.694 124.669  0.00  0.00    -0.495 OA
ATOM     19  C   LIG A   1      -9.004  -2.860 124.019  0.00  0.00    +0.277 C 
ENDBRANCH   6  18
TORSDOF 2
ENDMDL
MODEL 2
REMARK VINA RESULT:      -7.4      9.369     10.523
REMARK  Name = NuBBE_1046
REMARK  3 active torsions:
REMARK  status: ('A' for Active; 'I' for Inactive)
REMARK    1  A    between atoms: C_6  and  O_18
REMARK    2  A    between atoms: C_10  and  C_11
REMARK    3  A    between atoms: O_18  and  C_19
REMARK                            x       y       z     vdW  Elec       q    Type
REMARK                         _______ _______ _______ _____ _____    ______ ____
ROOT
ATOM      1  O   LIG A   1      -9.061   5.006 133.721  0.00  0.00    -0.287 OA
ATOM      2  C   LIG A   1      -8.828   5.680 132.724  0.00  0.00    +0.193 A 
ATOM      3  C   LIG A   1      -7.468   6.065 132.333  0.00  0.00    +0.064 A 
ATOM      4  C   LIG A   1      -6.365   5.683 133.098  0.00  0.00    +0.019 A 
ATOM      5  C   LIG A   1      -5.086   6.080 132.698  0.00  0.00    +0.046 A 
ATOM      6  C   LIG A   1      -4.906   6.853 131.545  0.00  0.00    +0.124 A 
ATOM      7  C   LIG A   1      -6.017   7.221 130.784  0.00  0.00    +0.092 A 
ATOM      8  C   LIG A   1      -7.296   6.827 131.182  0.00  0.00    +0.143 A 
ATOM      9  O   LIG A   1      -8.343   7.229 130.392  0.00  0.00    -0.455 OA
ATOM     10  C   LIG A   1      -9.631   6.871 130.762  0.00  0.00    +0.139 A 
ATOM     11  C   LIG A   1      -9.919   6.149 131.856  0.00  0.00    +0.098 A 
ENDROOT
BRANCH  10  12
ATOM     12  C   LIG A   1     -10.687   7.377 129.855  0.00  0.00    +0.017 A 
ATOM     13  C   LIG A   1     -10.375   7.988 128.629  0.00  0.00    +0.011 A 
ATOM     14  C   LIG A   1     -11.383   8.456 127.781  0.00  0.00    +0.001 A 
ATOM     15  C   LIG A   1     -12.720   8.334 128.151  0.00  0.00    +0.000 A 
ATOM     16  C   LIG A   1     -13.049   7.749 129.371  0.00  0.00    +0.001 A 
ATOM     17  C   LIG A   1     -12.040   7.276 130.216  0.00  0.00    +0.011 A 
ENDBRANCH  10  12
BRANCH   6  18
ATOM     18  O   LIG A   1      -3.606   7.181 131.273  0.00  0.00    -0.495 OA
ATOM     19  C   LIG A   1      -2.912   7.920 132.272  0.00  0.00    +0.277 C 
ENDBRANCH   6  18
TORSDOF 2
ENDMDL
MODEL 3
REMARK VINA RESULT:      -7.3      9.566     10.354
REMARK  Name = NuBBE_1046
REMARK  3 active torsions:
REMARK  status: ('A' for Active; 'I' for Inactive)
REMARK    1  A    between atoms: C_6  and  O_18
REMARK    2  A    between atoms: C_10  and  C_11
REMARK    3  A    between atoms: O_18  and  C_19
REMARK                            x       y       z     vdW  Elec       q    Type
REMARK                         _______ _______ _______ _____ _____    ______ ____
ROOT
ATOM      1  O   LIG A   1      -9.815   4.971 133.128  0.00  0.00    -0.287 OA
ATOM      2  C   LIG A   1      -9.284   5.687 132.287  0.00  0.00    +0.193 A 
ATOM      3  C   LIG A   1     -10.048   6.383 131.246  0.00  0.00    +0.064 A 
ATOM      4  C   LIG A   1     -11.435   6.248 131.161  0.00  0.00    +0.019 A 
ATOM      5  C   LIG A   1     -12.126   6.918 130.148  0.00  0.00    +0.046 A 
ATOM      6  C   LIG A   1     -11.441   7.717 129.225  0.00  0.00    +0.124 A 
ATOM      7  C   LIG A   1     -10.055   7.850 129.326  0.00  0.00    +0.092 A 
ATOM      8  C   LIG A   1      -9.362   7.180 130.336  0.00  0.00    +0.143 A 
ATOM      9  O   LIG A   1      -8.001   7.350 130.373  0.00  0.00    -0.455 OA
ATOM     10  C   LIG A   1      -7.274   6.689 131.353  0.00  0.00    +0.139 A 
ATOM     11  C   LIG A   1      -7.827   5.885 132.275  0.00  0.00    +0.098 A 
ENDROOT
BRANCH  10  12
ATOM     12  C   LIG A   1      -5.814   6.922 131.286  0.00  0.00    +0.017 A 
ATOM     13  C   LIG A   1      -4.933   6.358 132.225  0.00  0.00    +0.011 A 
ATOM     14  C   LIG A   1      -3.556   6.584 132.146  0.00  0.00    +0.001 A 
ATOM     15  C   LIG A   1      -3.037   7.386 131.134  0.00  0.00    +0.000 A 
ATOM     16  C   LIG A   1      -3.895   7.970 130.205  0.00  0.00    +0.001 A 
ATOM     17  C   LIG A   1      -5.272   7.740 130.282  0.00  0.00    +0.011 A 
ENDBRANCH  10  12
BRANCH   6  18
ATOM     18  O   LIG A   1     -12.235   8.307 128.280  0.00  0.00    -0.495 OA
ATOM     19  C   LIG A   1     -13.500   7.702 128.041  0.00  0.00    +0.277 C 
ENDBRANCH   6  18
TORSDOF 2
ENDMDL
MODEL 4
REMARK VINA RESULT:      -7.2      1.920      4.093
REMARK  Name = NuBBE_1046
REMARK  3 active torsions:
REMARK  status: ('A' for Active; 'I' for Inactive)
REMARK    1  A    between atoms: C_6  and  O_18
REMARK    2  A    between atoms: C_10  and  C_11
REMARK    3  A    between atoms: O_18  and  C_19
REMARK                            x       y       z     vdW  Elec       q    Type
REMARK                         _______ _______ _______ _____ _____    ______ ____
ROOT
ATOM      1  O   LIG A   1      -7.734   0.640 124.390  0.00  0.00    -0.287 OA
ATOM      2  C   LIG A   1      -7.080   1.642 124.129  0.00  0.00    +0.193 A 
ATOM      3  C   LIG A   1      -6.232   2.311 125.123  0.00  0.00    +0.064 A 
ATOM      4  C   LIG A   1      -6.143   1.833 126.430  0.00  0.00    +0.019 A 
ATOM      5  C   LIG A   1      -5.334   2.504 127.351  0.00  0.00    +0.046 A 
ATOM      6  C   LIG A   1      -4.619   3.647 126.971  0.00  0.00    +0.124 A 
ATOM      7  C   LIG A   1      -4.710   4.110 125.658  0.00  0.00    +0.092 A 
ATOM      8  C   LIG A   1      -5.519   3.442 124.737  0.00  0.00    +0.143 A 
ATOM      9  O   LIG A   1      -5.568   3.956 123.466  0.00  0.00    -0.455 OA
ATOM     10  C   LIG A   1      -6.372   3.328 122.525  0.00  0.00    +0.139 A 
ATOM     11  C   LIG A   1      -7.114   2.240 122.786  0.00  0.00    +0.098 A 
ENDROOT
BRANCH  10  12
ATOM     12  C   LIG A   1      -6.371   3.978 121.195  0.00  0.00    +0.017 A 
ATOM     13  C   LIG A   1      -5.293   4.768 120.761  0.00  0.00    +0.011 A 
ATOM     14  C   LIG A   1      -5.306   5.371 119.500  0.00  0.00    +0.001 A 
ATOM     15  C   LIG A   1      -6.400   5.206 118.657  0.00  0.00    +0.000 A 
ATOM     16  C   LIG A   1      -7.487   4.442 119.076  0.00  0.00    +0.001 A 
ATOM     17  C   LIG A   1      -7.473   3.835 120.336  0.00  0.00    +0.011 A 
ENDBRANCH  10  12
BRANCH   6  18
ATOM     18  O   LIG A   1      -3.875   4.213 127.970  0.00  0.00    -0.495 OA
ATOM     19  C   LIG A   1      -2.464   4.236 127.782  0.00  0.00    +0.277 C 
ENDBRANCH   6  18
TORSDOF 2
ENDMDL
MODEL 5
REMARK VINA RESULT:      -7.0      8.231      9.031
REMARK  Name = NuBBE_1046
REMARK  3 active torsions:
REMARK  status: ('A' for Active; 'I' for Inactive)
REMARK    1  A    between atoms: C_6  and  O_18
REMARK    2  A    between atoms: C_10  and  C_11
REMARK    3  A    between atoms: O_18  and  C_19
REMARK                            x       y       z     vdW  Elec       q    Type
REMARK                         _______ _______ _______ _____ _____    ______ ____
ROOT
ATOM      1  O   LIG A   1      -8.863   6.319 133.249  0.00  0.00    -0.287 OA
ATOM      2  C   LIG A   1      -9.425   5.747 132.323  0.00  0.00    +0.193 A 
ATOM      3  C   LIG A   1      -9.447   4.285 132.196  0.00  0.00    +0.064 A 
ATOM      4  C   LIG A   1      -8.807   3.472 133.133  0.00  0.00    +0.019 A 
ATOM      5  C   LIG A   1      -8.840   2.085 132.970  0.00  0.00    +0.046 A 
ATOM      6  C   LIG A   1      -9.506   1.510 131.881  0.00  0.00    +0.124 A 
ATOM      7  C   LIG A   1     -10.149   2.333 130.956  0.00  0.00    +0.092 A 
ATOM      8  C   LIG A   1     -10.116   3.720 131.115  0.00  0.00    +0.143 A 
ATOM      9  O   LIG A   1     -10.763   4.469 130.165  0.00  0.00    -0.455 OA
ATOM     10  C   LIG A   1     -10.740   5.852 130.280  0.00  0.00    +0.139 A 
ATOM     11  C   LIG A   1     -10.117   6.507 131.272  0.00  0.00    +0.098 A 
ENDROOT
BRANCH  10  12
ATOM     12  C   LIG A   1     -11.447   6.563 129.190  0.00  0.00    +0.017 A 
ATOM     13  C   LIG A   1     -10.761   7.381 128.277  0.00  0.00    +0.011 A 
ATOM     14  C   LIG A   1     -11.442   8.042 127.251  0.00  0.00    +0.001 A 
ATOM     15  C   LIG A   1     -12.822   7.907 127.127  0.00  0.00    +0.000 A 
ATOM     16  C   LIG A   1     -13.523   7.116 128.035  0.00  0.00    +0.001 A 
ATOM     17  C   LIG A   1     -12.841   6.451 129.058  0.00  0.00    +0.011 A 
ENDBRANCH  10  12
BRANCH   6  18
ATOM     18  O   LIG A   1      -9.452   0.144 131.836  0.00  0.00    -0.495 OA
ATOM     19  C   LIG A   1      -8.219  -0.461 132.208  0.00  0.00    +0.277 C 
ENDBRANCH   6  18
TORSDOF 2
ENDMDL
MODEL 6
REMARK VINA RESULT:      -7.0      2.747      6.667
REMARK  Name = NuBBE_1046
REMARK  3 active torsions:
REMARK  status: ('A' for Active; 'I' for Inactive)
REMARK    1  A    between atoms: C_6  and  O_18
REMARK    2  A    between atoms: C_10  and  C_11
REMARK    3  A    between atoms: O_18  and  C_19
REMARK                            x       y       z     vdW  Elec       q    Type
REMARK                         _______ _______ _______ _____ _____    ______ ____
ROOT
ATOM      1  O   LIG A   1      -8.427   2.512 124.004  0.00  0.00    -0.287 OA
ATOM      2  C   LIG A   1      -7.328   3.051 123.947  0.00  0.00    +0.193 A 
ATOM      3  C   LIG A   1      -6.769   3.572 122.694  0.00  0.00    +0.064 A 
ATOM      4  C   LIG A   1      -7.472   3.462 121.493  0.00  0.00    +0.019 A 
ATOM      5  C   LIG A   1      -6.901   3.959 120.319  0.00  0.00    +0.046 A 
ATOM      6  C   LIG A   1      -5.637   4.562 120.340  0.00  0.00    +0.124 A 
ATOM      7  C   LIG A   1      -4.948   4.673 121.549  0.00  0.00    +0.092 A 
ATOM      8  C   LIG A   1      -5.517   4.175 122.723  0.00  0.00    +0.143 A 
ATOM      9  O   LIG A   1      -4.782   4.312 123.874  0.00  0.00    -0.455 OA
ATOM     10  C   LIG A   1      -5.306   3.816 125.060  0.00  0.00    +0.139 A 
ATOM     11  C   LIG A   1      -6.497   3.205 125.150  0.00  0.00    +0.098 A 
ENDROOT
BRANCH  10  12
ATOM     12  C   LIG A   1      -4.422   3.994 126.234  0.00  0.00    +0.017 A 
ATOM     13  C   LIG A   1      -3.159   3.384 126.306  0.00  0.00    +0.011 A 
ATOM     14  C   LIG A   1      -2.334   3.565 127.420  0.00  0.00    +0.001 A 
ATOM     15  C   LIG A   1      -2.764   4.348 128.488  0.00  0.00    +0.000 A 
ATOM     16  C   LIG A   1      -4.022   4.946 128.444  0.00  0.00    +0.001 A 
ATOM     17  C   LIG A   1      -4.844   4.769 127.327  0.00  0.00    +0.011 A 
ENDBRANCH  10  12
BRANCH   6  18
ATOM     18  O   LIG A   1      -5.191   4.995 119.122  0.00  0.00    -0.495 OA
ATOM     19  C   LIG A   1      -5.988   5.970 118.459  0.00  0.00    +0.277 C 
ENDBRANCH   6  18
TORSDOF 2
ENDMDL
MODEL 7
REMARK VINA RESULT:      -7.0      8.818     10.782
REMARK  Name = NuBBE_1046
REMARK  3 active torsions:
REMARK  status: ('A' for Active; 'I' for Inactive)
REMARK    1  A    between atoms: C_6  and  O_18
REMARK    2  A    between atoms: C_10  and  C_11
REMARK    3  A    between atoms: O_18  and  C_19
REMARK                            x       y       z     vdW  Elec       q    Type
REMARK                         _______ _______ _______ _____ _____    ______ ____
ROOT
ATOM      1  O   LIG A   1      -9.789   2.481 130.964  0.00  0.00    -0.287 OA
ATOM      2  C   LIG A   1      -9.760   3.659 131.302  0.00  0.00    +0.193 A 
ATOM      3  C   LIG A   1      -9.048   4.119 132.500  0.00  0.00    +0.064 A 
ATOM      4  C   LIG A   1      -8.373   3.218 133.325  0.00  0.00    +0.019 A 
ATOM      5  C   LIG A   1      -7.717   3.693 134.463  0.00  0.00    +0.046 A 
ATOM      6  C   LIG A   1      -7.733   5.057 134.779  0.00  0.00    +0.124 A 
ATOM      7  C   LIG A   1      -8.405   5.949 133.942  0.00  0.00    +0.092 A 
ATOM      8  C   LIG A   1      -9.063   5.476 132.804  0.00  0.00    +0.143 A 
ATOM      9  O   LIG A   1      -9.709   6.406 132.029  0.00  0.00    -0.455 OA
ATOM     10  C   LIG A   1     -10.387   5.974 130.899  0.00  0.00    +0.139 A 
ATOM     11  C   LIG A   1     -10.452   4.689 130.514  0.00  0.00    +0.098 A 
ENDROOT
BRANCH  10  12
ATOM     12  C   LIG A   1     -11.069   7.054 130.150  0.00  0.00    +0.017 A 
ATOM     13  C   LIG A   1     -10.528   7.586 128.967  0.00  0.00    +0.011 A 
ATOM     14  C   LIG A   1     -11.187   8.603 128.269  0.00  0.00    +0.001 A 
ATOM     15  C   LIG A   1     -12.390   9.114 128.748  0.00  0.00    +0.000 A 
ATOM     16  C   LIG A   1     -12.932   8.613 129.929  0.00  0.00    +0.001 A 
ATOM     17  C   LIG A   1     -12.276   7.592 130.625  0.00  0.00    +0.011 A 
ENDBRANCH  10  12
BRANCH   6  18
ATOM     18  O   LIG A   1      -7.062   5.386 135.924  0.00  0.00    -0.495 OA
ATOM     19  C   LIG A   1      -7.698   6.317 136.793  0.00  0.00    +0.277 C 
ENDBRANCH   6  18
TORSDOF 2
ENDMDL
MODEL 8
REMARK VINA RESULT:      -6.9      2.364      4.649
REMARK  Name = NuBBE_1046
REMARK  3 active torsions:
REMARK  status: ('A' for Active; 'I' for Inactive)
REMARK    1  A    between atoms: C_6  and  O_18
REMARK    2  A    between atoms: C_10  and  C_11
REMARK    3  A    between atoms: O_18  and  C_19
REMARK                            x       y       z     vdW  Elec       q    Type
REMARK                         _______ _______ _______ _____ _____    ______ ____
ROOT
ATOM      1  O   LIG A   1      -9.651  -2.082 123.270  0.00  0.00    -0.287 OA
ATOM      2  C   LIG A   1      -8.945  -1.470 124.063  0.00  0.00    +0.193 A 
ATOM      3  C   LIG A   1      -8.694  -1.947 125.427  0.00  0.00    +0.064 A 
ATOM      4  C   LIG A   1      -9.268  -3.132 125.891  0.00  0.00    +0.019 A 
ATOM      5  C   LIG A   1      -9.015  -3.547 127.201  0.00  0.00    +0.046 A 
ATOM      6  C   LIG A   1      -8.195  -2.788 128.044  0.00  0.00    +0.124 A 
ATOM      7  C   LIG A   1      -7.620  -1.609 127.566  0.00  0.00    +0.092 A 
ATOM      8  C   LIG A   1      -7.873  -1.191 126.257  0.00  0.00    +0.143 A 
ATOM      9  O   LIG A   1      -7.282  -0.020 125.855  0.00  0.00    -0.455 OA
ATOM     10  C   LIG A   1      -7.521   0.437 124.567  0.00  0.00    +0.139 A 
ATOM     11  C   LIG A   1      -8.304  -0.202 123.683  0.00  0.00    +0.098 A 
ENDROOT
BRANCH  10  12
ATOM     12  C   LIG A   1      -6.856   1.720 124.244  0.00  0.00    +0.017 A 
ATOM     13  C   LIG A   1      -6.137   2.441 125.212  0.00  0.00    +0.011 A 
ATOM     14  C   LIG A   1      -5.511   3.649 124.890  0.00  0.00    +0.001 A 
ATOM     15  C   LIG A   1      -5.603   4.162 123.599  0.00  0.00    +0.000 A 
ATOM     16  C   LIG A   1      -6.328   3.471 122.631  0.00  0.00    +0.001 A 
ATOM     17  C   LIG A   1      -6.950   2.261 122.952  0.00  0.00    +0.011 A 
ENDBRANCH  10  12
BRANCH   6  18
ATOM     18  O   LIG A   1      -8.038  -3.301 129.302  0.00  0.00    -0.495 OA
ATOM     19  C   LIG A   1      -6.704  -3.569 129.721  0.00  0.00    +0.277 C 
ENDBRANCH   6  18
TORSDOF 2
ENDMDL
MODEL 9
REMARK VINA RESULT:      -6.8      1.445      6.287
REMARK  Name = NuBBE_1046
REMARK  3 active torsions:
REMARK  status: ('A' for Active; 'I' for Inactive)
REMARK    1  A    between atoms: C_6  and  O_18
REMARK    2  A    between atoms: C_10  and  C_11
REMARK    3  A    between atoms: O_18  and  C_19
REMARK                            x       y       z     vdW  Elec       q    Type
REMARK                         _______ _______ _______ _____ _____    ______ ____
ROOT
ATOM      1  O   LIG A   1      -5.987   2.398 127.040  0.00  0.00    -0.287 OA
ATOM      2  C   LIG A   1      -6.382   1.946 125.972  0.00  0.00    +0.193 A 
ATOM      3  C   LIG A   1      -6.197   2.652 124.699  0.00  0.00    +0.064 A 
ATOM      4  C   LIG A   1      -5.563   3.894 124.652  0.00  0.00    +0.019 A 
ATOM      5  C   LIG A   1      -5.416   4.541 123.422  0.00  0.00    +0.046 A 
ATOM      6  C   LIG A   1      -5.898   3.954 122.245  0.00  0.00    +0.124 A 
ATOM      7  C   LIG A   1      -6.522   2.707 122.305  0.00  0.00    +0.092 A 
ATOM      8  C   LIG A   1      -6.672   2.060 123.533  0.00  0.00    +0.143 A 
ATOM      9  O   LIG A   1      -7.300   0.840 123.520  0.00  0.00    -0.455 OA
ATOM     10  C   LIG A   1      -7.482   0.172 124.722  0.00  0.00    +0.139 A 
ATOM     11  C   LIG A   1      -7.077   0.651 125.909  0.00  0.00    +0.098 A 
ENDROOT
BRANCH  10  12
ATOM     12  C   LIG A   1      -8.193  -1.121 124.598  0.00  0.00    +0.017 A 
ATOM     13  C   LIG A   1      -8.713  -1.788 125.719  0.00  0.00    +0.011 A 
ATOM     14  C   LIG A   1      -9.385  -3.006 125.584  0.00  0.00    +0.001 A 
ATOM     15  C   LIG A   1      -9.538  -3.584 124.327  0.00  0.00    +0.000 A 
ATOM     16  C   LIG A   1      -9.013  -2.948 123.205  0.00  0.00    +0.001 A 
ATOM     17  C   LIG A   1      -8.345  -1.727 123.340  0.00  0.00    +0.011 A 
ENDBRANCH  10  12
BRANCH   6  18
ATOM     18  O   LIG A   1      -5.699   4.695 121.113  0.00  0.00    -0.495 OA
ATOM     19  C   LIG A   1      -6.431   4.306 119.957  0.00  0.00    +0.277 C 
ENDBRANCH   6  18
TORSDOF 2
ENDMDL
