MODEL 1
REMARK VINA RESULT:      -8.4      0.000      0.000
REMARK  Name = NuBBE_637
REMARK  22 active torsions:
REMARK  status: ('A' for Active; 'I' for Inactive)
REMARK    1  A    between atoms: O_1  and  C_2
REMARK    2  A    between atoms: C_6  and  O_8
REMARK    3  A    between atoms: O_8  and  C_9
REMARK    4  A    between atoms: C_11  and  O_13
REMARK    5  A    between atoms: O_13  and  C_14
REMARK    6  A    between atoms: C_14  and  C_15
REMARK    7  A    between atoms: C_18  and  O_20
REMARK    8  A    between atoms: C_21  and  O_23
REMARK    9  A    between atoms: O_23  and  C_24
REMARK   10  A    between atoms: C_24  and  C_25
REMARK   11  A    between atoms: C_26  and  C_27
REMARK   12  A    between atoms: C_28  and  C_29
REMARK   13  A    between atoms: C_29  and  C_30
REMARK   14  A    between atoms: C_30  and  C_31
REMARK   15  A    between atoms: C_31  and  C_32
REMARK   16  A    between atoms: C_32  and  C_33
REMARK   17  A    between atoms: C_35  and  C_37
REMARK   18  A    between atoms: C_38  and  C_39
REMARK   19  A    between atoms: C_38  and  C_40
REMARK   20  A    between atoms: C_40  and  C_41
REMARK   21  A    between atoms: C_41  and  C_42
REMARK   22  A    between atoms: C_42  and  C_43
REMARK                            x       y       z     vdW  Elec       q    Type
REMARK                         _______ _______ _______ _____ _____    ______ ____
ROOT
ATOM      1  C   LIG A   1      -8.618   5.624 133.249  0.00  0.00    +0.138 C 
ATOM      2  C   LIG A   1     -10.038   5.664 132.817  0.00  0.00    +0.009 C 
ATOM      3  C   LIG A   1     -10.337   5.495 131.520  0.00  0.00    -0.001 C 
ATOM      4  C   LIG A   1     -11.667   5.797 130.873  0.00  0.00    +0.282 C 
ATOM      5  O   LIG A   1     -11.389   5.718 129.469  0.00  0.00    -0.308 OA
ATOM      6  C   LIG A   1     -10.008   6.074 129.389  0.00  0.00    +0.326 C 
ATOM      7  C   LIG A   1      -9.292   5.158 130.428  0.00  0.00    +0.091 C 
ATOM      8  C   LIG A   1      -9.383   3.615 130.321  0.00  0.00    +0.172 C 
ATOM      9  C   LIG A   1      -8.238   2.804 129.687  0.00  0.00    +0.210 C 
ATOM     10  C   LIG A   1      -6.926   3.559 129.410  0.00  0.00    +0.036 C 
ATOM     11  C   LIG A   1      -6.829   3.935 127.920  0.00  0.00    +0.012 C 
ATOM     12  C   LIG A   1      -6.593   4.731 130.421  0.00  0.00    -0.022 C 
ATOM     13  C   LIG A   1      -5.991   4.056 131.685  0.00  0.00    +0.012 C 
ATOM     14  C   LIG A   1      -7.839   5.668 130.757  0.00  0.00    +0.017 C 
ATOM     15  C   LIG A   1      -7.767   6.314 132.178  0.00  0.00    +0.040 C 
ENDROOT
BRANCH   1  16
ATOM     16  O   LIG A   1      -8.486   6.353 134.459  0.00  0.00    -0.388 OA
ATOM     17  H   LIG A   1      -8.704   5.743 135.184  0.00  0.00    +0.210 HD
ENDBRANCH   1  16
BRANCH   8  18
ATOM     18  O   LIG A   1     -10.641   3.159 129.808  0.00  0.00    -0.387 OA
ATOM     19  H   LIG A   1     -11.212   3.923 129.609  0.00  0.00    +0.210 HD
ENDBRANCH   8  18
BRANCH   4  20
ATOM     20  O   LIG A   1     -12.014   7.126 131.254  0.00  0.00    -0.350 OA
ATOM     21  C   LIG A   1     -13.153   7.613 130.565  0.00  0.00    +0.197 C 
ENDBRANCH   4  20
BRANCH   9  22
ATOM     22  O   LIG A   1      -7.919   1.708 130.617  0.00  0.00    -0.455 OA
BRANCH  22  23
ATOM     23  C   LIG A   1      -7.220   0.668 130.104  0.00  0.00    +0.332 C 
ATOM     24  O   LIG A   1      -6.240   0.123 130.620  0.00  0.00    -0.246 OA
BRANCH  23  25
ATOM     25  C   LIG A   1      -7.826   0.233 128.844  0.00  0.00    +0.091 C 
ATOM     26  C   LIG A   1      -7.248  -0.760 128.141  0.00  0.00    +0.007 C 
BRANCH  26  27
ATOM     27  C   LIG A   1      -7.769  -1.322 126.923  0.00  0.00    -0.004 C 
ATOM     28  C   LIG A   1      -7.456  -2.533 126.445  0.00  0.00    -0.027 C 
BRANCH  28  29
ATOM     29  C   LIG A   1      -8.087  -3.091 125.214  0.00  0.00    +0.027 C 
BRANCH  29  30
ATOM     30  C   LIG A   1      -7.055  -3.772 124.316  0.00  0.00    +0.004 C 
BRANCH  30  31
ATOM     31  C   LIG A   1      -6.166  -2.757 123.596  0.00  0.00    +0.000 C 
BRANCH  31  32
ATOM     32  C   LIG A   1      -4.690  -3.150 123.636  0.00  0.00    -0.003 C 
ATOM     33  C   LIG A   1      -4.494  -4.654 123.634  0.00  0.00    +0.004 C 
ENDBRANCH  31  32
ENDBRANCH  30  31
ENDBRANCH  29  30
ENDBRANCH  28  29
ENDBRANCH  26  27
ENDBRANCH  23  25
ENDBRANCH  22  23
ENDBRANCH   9  22
BRANCH  12  34
ATOM     34  C   LIG A   1      -5.443   5.612 129.780  0.00  0.00    +0.012 C 
BRANCH  34  35
ATOM     35  C   LIG A   1      -3.980   5.248 130.076  0.00  0.00    +0.035 C 
BRANCH  35  36
ATOM     36  C   LIG A   1      -3.168   5.080 128.803  0.00  0.00    -0.055 C 
ATOM     37  C   LIG A   1      -2.636   6.148 128.185  0.00  0.00    +0.012 C 
BRANCH  36  38
ATOM     38  C   LIG A   1      -3.024   3.763 128.202  0.00  0.00    -0.005 C 
ATOM     39  C   LIG A   1      -2.246   3.462 127.156  0.00  0.00    +0.008 C 
ENDBRANCH  36  38
ENDBRANCH  35  36
ENDBRANCH  34  35
ENDBRANCH  12  34
BRANCH   6  40
ATOM     40  O   LIG A   1      -9.504   6.130 128.063  0.00  0.00    -0.434 OA
BRANCH  40  41
ATOM     41  C   LIG A   1     -10.276   7.019 127.340  0.00  0.00    +0.306 C 
ATOM     42  C   LIG A   1     -10.412   8.318 128.073  0.00  0.00    +0.136 C 
ATOM     43  O   LIG A   1     -10.923   6.774 126.347  0.00  0.00    -0.251 OA
ENDBRANCH  40  41
ENDBRANCH   6  40
TORSDOF 17
ENDMDL
MODEL 2
REMARK VINA RESULT:      -8.0      2.519      6.008
REMARK  Name = NuBBE_637
REMARK  22 active torsions:
REMARK  status: ('A' for Active; 'I' for Inactive)
REMARK    1  A    between atoms: O_1  and  C_2
REMARK    2  A    between atoms: C_6  and  O_8
REMARK    3  A    between atoms: O_8  and  C_9
REMARK    4  A    between atoms: C_11  and  O_13
REMARK    5  A    between atoms: O_13  and  C_14
REMARK    6  A    between atoms: C_14  and  C_15
REMARK    7  A    between atoms: C_18  and  O_20
REMARK    8  A    between atoms: C_21  and  O_23
REMARK    9  A    between atoms: O_23  and  C_24
REMARK   10  A    between atoms: C_24  and  C_25
REMARK   11  A    between atoms: C_26  and  C_27
REMARK   12  A    between atoms: C_28  and  C_29
REMARK   13  A    between atoms: C_29  and  C_30
REMARK   14  A    between atoms: C_30  and  C_31
REMARK   15  A    between atoms: C_31  and  C_32
REMARK   16  A    between atoms: C_32  and  C_33
REMARK   17  A    between atoms: C_35  and  C_37
REMARK   18  A    between atoms: C_38  and  C_39
REMARK   19  A    between atoms: C_38  and  C_40
REMARK   20  A    between atoms: C_40  and  C_41
REMARK   21  A    between atoms: C_41  and  C_42
REMARK   22  A    between atoms: C_42  and  C_43
REMARK                            x       y       z     vdW  Elec       q    Type
REMARK                         _______ _______ _______ _____ _____    ______ ____
ROOT
ATOM      1  C   LIG A   1      -8.039   2.617 128.671  0.00  0.00    +0.138 C 
ATOM      2  C   LIG A   1      -6.561   2.523 128.561  0.00  0.00    +0.009 C 
ATOM      3  C   LIG A   1      -5.799   2.870 129.608  0.00  0.00    -0.001 C 
ATOM      4  C   LIG A   1      -4.310   3.117 129.575  0.00  0.00    +0.282 C 
ATOM      5  O   LIG A   1      -4.036   3.718 130.848  0.00  0.00    -0.308 OA
ATOM      6  C   LIG A   1      -5.264   4.370 131.172  0.00  0.00    +0.326 C 
ATOM      7  C   LIG A   1      -6.363   3.281 130.991  0.00  0.00    +0.091 C 
ATOM      8  C   LIG A   1      -6.311   1.958 131.796  0.00  0.00    +0.172 C 
ATOM      9  C   LIG A   1      -7.164   1.779 133.065  0.00  0.00    +0.210 C 
ATOM     10  C   LIG A   1      -8.235   2.850 133.336  0.00  0.00    +0.036 C 
ATOM     11  C   LIG A   1      -7.739   3.844 134.402  0.00  0.00    +0.012 C 
ATOM     12  C   LIG A   1      -8.873   3.511 132.047  0.00  0.00    -0.022 C 
ATOM     13  C   LIG A   1      -9.942   2.508 131.529  0.00  0.00    +0.012 C 
ATOM     14  C   LIG A   1      -7.807   3.907 130.929  0.00  0.00    +0.017 C 
ATOM     15  C   LIG A   1      -8.384   3.873 129.478  0.00  0.00    +0.040 C 
ENDROOT
BRANCH   1  16
ATOM     16  O   LIG A   1      -8.587   2.760 127.370  0.00  0.00    -0.388 OA
ATOM     17  H   LIG A   1      -9.447   3.202 127.471  0.00  0.00    +0.210 HD
ENDBRANCH   1  16
BRANCH   8  18
ATOM     18  O   LIG A   1      -4.974   1.502 132.044  0.00  0.00    -0.387 OA
ATOM     19  H   LIG A   1      -4.995   0.581 132.361  0.00  0.00    +0.210 HD
ENDBRANCH   8  18
BRANCH   4  20
ATOM     20  O   LIG A   1      -4.073   4.037 128.512  0.00  0.00    -0.350 OA
ATOM     21  C   LIG A   1      -2.783   3.893 127.942  0.00  0.00    +0.197 C 
ENDBRANCH   4  20
BRANCH   9  22
ATOM     22  O   LIG A   1      -7.864   0.490 132.936  0.00  0.00    -0.455 OA
BRANCH  22  23
ATOM     23  C   LIG A   1      -7.119  -0.623 133.135  0.00  0.00    +0.332 C 
ATOM     24  O   LIG A   1      -6.518  -0.922 134.171  0.00  0.00    -0.246 OA
BRANCH  23  25
ATOM     25  C   LIG A   1      -7.158  -1.471 131.942  0.00  0.00    +0.091 C 
ATOM     26  C   LIG A   1      -7.899  -1.089 130.884  0.00  0.00    +0.007 C 
BRANCH  26  27
ATOM     27  C   LIG A   1      -7.979  -1.795 129.633  0.00  0.00    -0.004 C 
ATOM     28  C   LIG A   1      -8.327  -3.082 129.502  0.00  0.00    -0.027 C 
BRANCH  28  29
ATOM     29  C   LIG A   1      -8.464  -3.738 128.170  0.00  0.00    +0.027 C 
BRANCH  29  30
ATOM     30  C   LIG A   1      -8.325  -2.729 127.032  0.00  0.00    +0.004 C 
BRANCH  30  31
ATOM     31  C   LIG A   1      -9.345  -2.978 125.919  0.00  0.00    +0.000 C 
BRANCH  31  32
ATOM     32  C   LIG A   1      -8.698  -3.558 124.661  0.00  0.00    -0.003 C 
ATOM     33  C   LIG A   1      -9.506  -3.265 123.412  0.00  0.00    +0.004 C 
ENDBRANCH  31  32
ENDBRANCH  30  31
ENDBRANCH  29  30
ENDBRANCH  28  29
ENDBRANCH  26  27
ENDBRANCH  23  25
ENDBRANCH  22  23
ENDBRANCH   9  22
BRANCH  12  34
ATOM     34  C   LIG A   1      -9.649   4.814 132.504  0.00  0.00    +0.012 C 
BRANCH  34  35
ATOM     35  C   LIG A   1      -9.267   6.162 131.874  0.00  0.00    +0.035 C 
BRANCH  35  36
ATOM     36  C   LIG A   1     -10.357   6.688 130.956  0.00  0.00    -0.055 C 
ATOM     37  C   LIG A   1     -10.044   7.370 129.842  0.00  0.00    +0.012 C 
BRANCH  36  38
ATOM     38  C   LIG A   1     -11.756   6.520 131.319  0.00  0.00    -0.005 C 
ATOM     39  C   LIG A   1     -12.730   7.413 131.114  0.00  0.00    +0.008 C 
ENDBRANCH  36  38
ENDBRANCH  35  36
ENDBRANCH  34  35
ENDBRANCH  12  34
BRANCH   6  40
ATOM     40  O   LIG A   1      -5.221   5.105 132.386  0.00  0.00    -0.434 OA
BRANCH  40  41
ATOM     41  C   LIG A   1      -4.866   6.408 132.096  0.00  0.00    +0.306 C 
ATOM     42  C   LIG A   1      -5.724   6.956 130.997  0.00  0.00    +0.136 C 
ATOM     43  O   LIG A   1      -3.896   7.002 132.507  0.00  0.00    -0.251 OA
ENDBRANCH  40  41
ENDBRANCH   6  40
TORSDOF 17
ENDMDL
MODEL 3
REMARK VINA RESULT:      -8.0      1.726      2.330
REMARK  Name = NuBBE_637
REMARK  22 active torsions:
REMARK  status: ('A' for Active; 'I' for Inactive)
REMARK    1  A    between atoms: O_1  and  C_2
REMARK    2  A    between atoms: C_6  and  O_8
REMARK    3  A    between atoms: O_8  and  C_9
REMARK    4  A    between atoms: C_11  and  O_13
REMARK    5  A    between atoms: O_13  and  C_14
REMARK    6  A    between atoms: C_14  and  C_15
REMARK    7  A    between atoms: C_18  and  O_20
REMARK    8  A    between atoms: C_21  and  O_23
REMARK    9  A    between atoms: O_23  and  C_24
REMARK   10  A    between atoms: C_24  and  C_25
REMARK   11  A    between atoms: C_26  and  C_27
REMARK   12  A    between atoms: C_28  and  C_29
REMARK   13  A    between atoms: C_29  and  C_30
REMARK   14  A    between atoms: C_30  and  C_31
REMARK   15  A    between atoms: C_31  and  C_32
REMARK   16  A    between atoms: C_32  and  C_33
REMARK   17  A    between atoms: C_35  and  C_37
REMARK   18  A    between atoms: C_38  and  C_39
REMARK   19  A    between atoms: C_38  and  C_40
REMARK   20  A    between atoms: C_40  and  C_41
REMARK   21  A    between atoms: C_41  and  C_42
REMARK   22  A    between atoms: C_42  and  C_43
REMARK                            x       y       z     vdW  Elec       q    Type
REMARK                         _______ _______ _______ _____ _____    ______ ____
ROOT
ATOM      1  C   LIG A   1      -8.351   5.377 133.162  0.00  0.00    +0.138 C 
ATOM      2  C   LIG A   1      -9.785   5.410 132.777  0.00  0.00    +0.009 C 
ATOM      3  C   LIG A   1     -10.121   5.327 131.481  0.00  0.00    -0.001 C 
ATOM      4  C   LIG A   1     -11.477   5.639 130.898  0.00  0.00    +0.282 C 
ATOM      5  O   LIG A   1     -11.242   5.670 129.484  0.00  0.00    -0.308 OA
ATOM      6  C   LIG A   1      -9.874   6.067 129.389  0.00  0.00    +0.326 C 
ATOM      7  C   LIG A   1      -9.103   5.098 130.337  0.00  0.00    +0.091 C 
ATOM      8  C   LIG A   1      -9.159   3.565 130.121  0.00  0.00    +0.172 C 
ATOM      9  C   LIG A   1      -8.016   2.833 129.395  0.00  0.00    +0.210 C 
ATOM     10  C   LIG A   1      -6.732   3.641 129.135  0.00  0.00    +0.036 C 
ATOM     11  C   LIG A   1      -6.692   4.125 127.674  0.00  0.00    +0.012 C 
ATOM     12  C   LIG A   1      -6.396   4.745 130.218  0.00  0.00    -0.022 C 
ATOM     13  C   LIG A   1      -5.737   3.996 131.411  0.00  0.00    +0.012 C 
ATOM     14  C   LIG A   1      -7.653   5.622 130.659  0.00  0.00    +0.017 C 
ATOM     15  C   LIG A   1      -7.552   6.166 132.120  0.00  0.00    +0.040 C 
ENDROOT
BRANCH   1  16
ATOM     16  O   LIG A   1      -8.199   6.020 134.418  0.00  0.00    -0.388 OA
ATOM     17  H   LIG A   1      -7.490   6.677 134.317  0.00  0.00    +0.210 HD
ENDBRANCH   1  16
BRANCH   8  18
ATOM     18  O   LIG A   1     -10.422   3.114 129.613  0.00  0.00    -0.387 OA
ATOM     19  H   LIG A   1     -10.423   3.165 128.641  0.00  0.00    +0.210 HD
ENDBRANCH   8  18
BRANCH   4  20
ATOM     20  O   LIG A   1     -11.845   6.928 131.385  0.00  0.00    -0.350 OA
ATOM     21  C   LIG A   1     -13.053   7.404 130.817  0.00  0.00    +0.197 C 
ENDBRANCH   4  20
BRANCH   9  22
ATOM     22  O   LIG A   1      -7.641   1.682 130.233  0.00  0.00    -0.455 OA
BRANCH  22  23
ATOM     23  C   LIG A   1      -7.675   0.466 129.636  0.00  0.00    +0.332 C 
ATOM     24  O   LIG A   1      -7.425  -0.617 130.173  0.00  0.00    -0.246 OA
BRANCH  23  25
ATOM     25  C   LIG A   1      -8.104   0.606 128.243  0.00  0.00    +0.091 C 
ATOM     26  C   LIG A   1      -7.399  -0.001 127.269  0.00  0.00    +0.007 C 
BRANCH  26  27
ATOM     27  C   LIG A   1      -7.743   0.006 125.872  0.00  0.00    -0.004 C 
ATOM     28  C   LIG A   1      -8.994  -0.008 125.393  0.00  0.00    -0.027 C 
BRANCH  28  29
ATOM     29  C   LIG A   1      -9.288   0.076 123.933  0.00  0.00    +0.027 C 
BRANCH  29  30
ATOM     30  C   LIG A   1      -9.850   1.445 123.554  0.00  0.00    +0.004 C 
BRANCH  30  31
ATOM     31  C   LIG A   1      -8.777   2.358 122.959  0.00  0.00    +0.000 C 
BRANCH  31  32
ATOM     32  C   LIG A   1      -8.133   3.257 124.014  0.00  0.00    -0.003 C 
ATOM     33  C   LIG A   1      -6.622   3.125 124.039  0.00  0.00    +0.004 C 
ENDBRANCH  31  32
ENDBRANCH  30  31
ENDBRANCH  29  30
ENDBRANCH  28  29
ENDBRANCH  26  27
ENDBRANCH  23  25
ENDBRANCH  22  23
ENDBRANCH   9  22
BRANCH  12  34
ATOM     34  C   LIG A   1      -5.289   5.700 129.608  0.00  0.00    +0.012 C 
BRANCH  34  35
ATOM     35  C   LIG A   1      -3.809   5.382 129.874  0.00  0.00    +0.035 C 
BRANCH  35  36
ATOM     36  C   LIG A   1      -2.962   5.535 128.623  0.00  0.00    -0.055 C 
ATOM     37  C   LIG A   1      -2.230   6.642 128.423  0.00  0.00    +0.012 C 
BRANCH  36  38
ATOM     38  C   LIG A   1      -2.999   4.508 127.592  0.00  0.00    -0.005 C 
ATOM     39  C   LIG A   1      -3.028   3.188 127.804  0.00  0.00    +0.008 C 
ENDBRANCH  36  38
ENDBRANCH  35  36
ENDBRANCH  34  35
ENDBRANCH  12  34
BRANCH   6  40
ATOM     40  O   LIG A   1      -9.414   6.232 128.056  0.00  0.00    -0.434 OA
BRANCH  40  41
ATOM     41  C   LIG A   1     -10.300   7.054 127.388  0.00  0.00    +0.306 C 
ATOM     42  C   LIG A   1     -10.473   8.349 128.120  0.00  0.00    +0.136 C 
ATOM     43  O   LIG A   1     -11.000   6.751 126.449  0.00  0.00    -0.251 OA
ENDBRANCH  40  41
ENDBRANCH   6  40
TORSDOF 17
ENDMDL
MODEL 4
REMARK VINA RESULT:      -7.9      2.961      5.478
REMARK  Name = NuBBE_637
REMARK  22 active torsions:
REMARK  status: ('A' for Active; 'I' for Inactive)
REMARK    1  A    between atoms: O_1  and  C_2
REMARK    2  A    between atoms: C_6  and  O_8
REMARK    3  A    between atoms: O_8  and  C_9
REMARK    4  A    between atoms: C_11  and  O_13
REMARK    5  A    between atoms: O_13  and  C_14
REMARK    6  A    between atoms: C_14  and  C_15
REMARK    7  A    between atoms: C_18  and  O_20
REMARK    8  A    between atoms: C_21  and  O_23
REMARK    9  A    between atoms: O_23  and  C_24
REMARK   10  A    between atoms: C_24  and  C_25
REMARK   11  A    between atoms: C_26  and  C_27
REMARK   12  A    between atoms: C_28  and  C_29
REMARK   13  A    between atoms: C_29  and  C_30
REMARK   14  A    between atoms: C_30  and  C_31
REMARK   15  A    between atoms: C_31  and  C_32
REMARK   16  A    between atoms: C_32  and  C_33
REMARK   17  A    between atoms: C_35  and  C_37
REMARK   18  A    between atoms: C_38  and  C_39
REMARK   19  A    between atoms: C_38  and  C_40
REMARK   20  A    between atoms: C_40  and  C_41
REMARK   21  A    between atoms: C_41  and  C_42
REMARK   22  A    between atoms: C_42  and  C_43
REMARK                            x       y       z     vdW  Elec       q    Type
REMARK                         _______ _______ _______ _____ _____    ______ ____
ROOT
ATOM      1  C   LIG A   1      -3.068   3.158 127.090  0.00  0.00    +0.138 C 
ATOM      2  C   LIG A   1      -3.334   4.024 128.267  0.00  0.00    +0.009 C 
ATOM      3  C   LIG A   1      -4.592   4.171 128.706  0.00  0.00    -0.001 C 
ATOM      4  C   LIG A   1      -5.073   5.221 129.677  0.00  0.00    +0.282 C 
ATOM      5  O   LIG A   1      -6.502   5.131 129.599  0.00  0.00    -0.308 OA
ATOM      6  C   LIG A   1      -6.726   4.660 128.269  0.00  0.00    +0.326 C 
ATOM      7  C   LIG A   1      -5.807   3.410 128.119  0.00  0.00    +0.091 C 
ATOM      8  C   LIG A   1      -5.955   2.198 129.073  0.00  0.00    +0.172 C 
ATOM      9  C   LIG A   1      -6.742   0.949 128.638  0.00  0.00    +0.210 C 
ATOM     10  C   LIG A   1      -7.142   0.865 127.154  0.00  0.00    +0.036 C 
ATOM     11  C   LIG A   1      -8.620   1.258 126.975  0.00  0.00    +0.012 C 
ATOM     12  C   LIG A   1      -6.137   1.552 126.143  0.00  0.00    -0.022 C 
ATOM     13  C   LIG A   1      -4.973   0.543 125.934  0.00  0.00    +0.012 C 
ATOM     14  C   LIG A   1      -5.629   2.990 126.612  0.00  0.00    +0.017 C 
ATOM     15  C   LIG A   1      -4.205   3.351 126.081  0.00  0.00    +0.040 C 
ENDROOT
BRANCH   1  16
ATOM     16  O   LIG A   1      -1.857   3.574 126.479  0.00  0.00    -0.388 OA
ATOM     17  H   LIG A   1      -1.699   4.492 126.755  0.00  0.00    +0.210 HD
ENDBRANCH   1  16
BRANCH   8  18
ATOM     18  O   LIG A   1      -6.337   2.572 130.404  0.00  0.00    -0.387 OA
ATOM     19  H   LIG A   1      -6.694   3.477 130.401  0.00  0.00    +0.210 HD
ENDBRANCH   8  18
BRANCH   4  20
ATOM     20  O   LIG A   1      -4.610   6.476 129.183  0.00  0.00    -0.350 OA
ATOM     21  C   LIG A   1      -3.932   7.236 130.169  0.00  0.00    +0.197 C 
ENDBRANCH   4  20
BRANCH   9  22
ATOM     22  O   LIG A   1      -5.893  -0.218 128.925  0.00  0.00    -0.455 OA
BRANCH  22  23
ATOM     23  C   LIG A   1      -6.535  -1.379 129.196  0.00  0.00    +0.332 C 
ATOM     24  O   LIG A   1      -6.901  -1.767 130.309  0.00  0.00    -0.246 OA
BRANCH  23  25
ATOM     25  C   LIG A   1      -6.787  -2.112 127.953  0.00  0.00    +0.091 C 
ATOM     26  C   LIG A   1      -8.037  -2.527 127.672  0.00  0.00    +0.007 C 
BRANCH  26  27
ATOM     27  C   LIG A   1      -8.431  -3.202 126.463  0.00  0.00    -0.004 C 
ATOM     28  C   LIG A   1      -9.014  -2.610 125.413  0.00  0.00    -0.027 C 
BRANCH  28  29
ATOM     29  C   LIG A   1      -9.333  -3.349 124.157  0.00  0.00    +0.027 C 
BRANCH  29  30
ATOM     30  C   LIG A   1      -8.837  -2.596 122.924  0.00  0.00    +0.004 C 
BRANCH  30  31
ATOM     31  C   LIG A   1      -7.791  -1.539 123.282  0.00  0.00    +0.000 C 
BRANCH  31  32
ATOM     32  C   LIG A   1      -6.400  -1.902 122.764  0.00  0.00    -0.003 C 
ATOM     33  C   LIG A   1      -5.519  -2.495 123.846  0.00  0.00    +0.004 C 
ENDBRANCH  31  32
ENDBRANCH  30  31
ENDBRANCH  29  30
ENDBRANCH  28  29
ENDBRANCH  26  27
ENDBRANCH  23  25
ENDBRANCH  22  23
ENDBRANCH   9  22
BRANCH  12  34
ATOM     34  C   LIG A   1      -6.875   1.696 124.749  0.00  0.00    +0.012 C 
BRANCH  34  35
ATOM     35  C   LIG A   1      -7.014   3.094 124.126  0.00  0.00    +0.035 C 
BRANCH  35  36
ATOM     36  C   LIG A   1      -7.641   3.039 122.744  0.00  0.00    -0.055 C 
ATOM     37  C   LIG A   1      -8.855   2.494 122.563  0.00  0.00    +0.012 C 
BRANCH  36  38
ATOM     38  C   LIG A   1      -6.893   3.513 121.588  0.00  0.00    -0.005 C 
ATOM     39  C   LIG A   1      -5.578   3.751 121.553  0.00  0.00    +0.008 C 
ENDBRANCH  36  38
ENDBRANCH  35  36
ENDBRANCH  34  35
ENDBRANCH  12  34
BRANCH   6  40
ATOM     40  O   LIG A   1      -8.098   4.548 127.923  0.00  0.00    -0.434 OA
BRANCH  40  41
ATOM     41  C   LIG A   1      -8.843   4.540 129.087  0.00  0.00    +0.306 C 
ATOM     42  C   LIG A   1      -9.458   5.885 129.329  0.00  0.00    +0.136 C 
ATOM     43  O   LIG A   1      -8.875   3.663 129.919  0.00  0.00    -0.251 OA
ENDBRANCH  40  41
ENDBRANCH   6  40
TORSDOF 17
ENDMDL
MODEL 5
REMARK VINA RESULT:      -7.9      3.193      8.376
REMARK  Name = NuBBE_637
REMARK  22 active torsions:
REMARK  status: ('A' for Active; 'I' for Inactive)
REMARK    1  A    between atoms: O_1  and  C_2
REMARK    2  A    between atoms: C_6  and  O_8
REMARK    3  A    between atoms: O_8  and  C_9
REMARK    4  A    between atoms: C_11  and  O_13
REMARK    5  A    between atoms: O_13  and  C_14
REMARK    6  A    between atoms: C_14  and  C_15
REMARK    7  A    between atoms: C_18  and  O_20
REMARK    8  A    between atoms: C_21  and  O_23
REMARK    9  A    between atoms: O_23  and  C_24
REMARK   10  A    between atoms: C_24  and  C_25
REMARK   11  A    between atoms: C_26  and  C_27
REMARK   12  A    between atoms: C_28  and  C_29
REMARK   13  A    between atoms: C_29  and  C_30
REMARK   14  A    between atoms: C_30  and  C_31
REMARK   15  A    between atoms: C_31  and  C_32
REMARK   16  A    between atoms: C_32  and  C_33
REMARK   17  A    between atoms: C_35  and  C_37
REMARK   18  A    between atoms: C_38  and  C_39
REMARK   19  A    between atoms: C_38  and  C_40
REMARK   20  A    between atoms: C_40  and  C_41
REMARK   21  A    between atoms: C_41  and  C_42
REMARK   22  A    between atoms: C_42  and  C_43
REMARK                            x       y       z     vdW  Elec       q    Type
REMARK                         _______ _______ _______ _____ _____    ______ ____
ROOT
ATOM      1  C   LIG A   1      -3.457   3.468 126.471  0.00  0.00    +0.138 C 
ATOM      2  C   LIG A   1      -4.152   4.167 125.360  0.00  0.00    +0.009 C 
ATOM      3  C   LIG A   1      -5.450   3.917 125.134  0.00  0.00    -0.001 C 
ATOM      4  C   LIG A   1      -6.222   4.300 123.895  0.00  0.00    +0.282 C 
ATOM      5  O   LIG A   1      -7.453   3.577 124.022  0.00  0.00    -0.308 OA
ATOM      6  C   LIG A   1      -7.082   2.432 124.791  0.00  0.00    +0.326 C 
ATOM      7  C   LIG A   1      -6.323   3.001 126.028  0.00  0.00    +0.091 C 
ATOM      8  C   LIG A   1      -7.011   4.004 126.988  0.00  0.00    +0.172 C 
ATOM      9  C   LIG A   1      -7.625   3.523 128.316  0.00  0.00    +0.210 C 
ATOM     10  C   LIG A   1      -7.298   2.082 128.747  0.00  0.00    +0.036 C 
ATOM     11  C   LIG A   1      -8.480   1.147 128.428  0.00  0.00    +0.012 C 
ATOM     12  C   LIG A   1      -5.878   1.546 128.297  0.00  0.00    -0.022 C 
ATOM     13  C   LIG A   1      -4.853   2.129 129.310  0.00  0.00    +0.012 C 
ATOM     14  C   LIG A   1      -5.510   1.885 126.783  0.00  0.00    +0.017 C 
ATOM     15  C   LIG A   1      -3.974   2.026 126.532  0.00  0.00    +0.040 C 
ENDROOT
BRANCH   1  16
ATOM     16  O   LIG A   1      -2.067   3.428 126.189  0.00  0.00    -0.388 OA
ATOM     17  H   LIG A   1      -1.969   3.091 125.283  0.00  0.00    +0.210 HD
ENDBRANCH   1  16
BRANCH   8  18
ATOM     18  O   LIG A   1      -7.927   4.884 126.323  0.00  0.00    -0.387 OA
ATOM     19  H   LIG A   1      -8.178   4.507 125.461  0.00  0.00    +0.210 HD
ENDBRANCH   8  18
BRANCH   4  20
ATOM     20  O   LIG A   1      -5.464   3.831 122.782  0.00  0.00    -0.350 OA
ATOM     21  C   LIG A   1      -6.212   3.819 121.577  0.00  0.00    +0.197 C 
ENDBRANCH   4  20
BRANCH   9  22
ATOM     22  O   LIG A   1      -7.121   4.415 129.372  0.00  0.00    -0.455 OA
BRANCH  22  23
ATOM     23  C   LIG A   1      -7.802   4.408 130.543  0.00  0.00    +0.332 C 
ATOM     24  O   LIG A   1      -7.429   3.892 131.601  0.00  0.00    -0.246 OA
BRANCH  23  25
ATOM     25  C   LIG A   1      -9.055   5.152 130.395  0.00  0.00    +0.091 C 
ATOM     26  C   LIG A   1      -9.031   6.498 130.422  0.00  0.00    +0.007 C 
BRANCH  26  27
ATOM     27  C   LIG A   1     -10.175   7.350 130.230  0.00  0.00    -0.004 C 
ATOM     28  C   LIG A   1     -11.449   6.950 130.326  0.00  0.00    -0.027 C 
BRANCH  28  29
ATOM     29  C   LIG A   1     -12.594   7.897 130.190  0.00  0.00    +0.027 C 
BRANCH  29  30
ATOM     30  C   LIG A   1     -12.909   8.187 128.723  0.00  0.00    +0.004 C 
BRANCH  30  31
ATOM     31  C   LIG A   1     -13.034   6.903 127.901  0.00  0.00    +0.000 C 
BRANCH  31  32
ATOM     32  C   LIG A   1     -12.382   7.031 126.525  0.00  0.00    -0.003 C 
ATOM     33  C   LIG A   1     -10.917   7.414 126.616  0.00  0.00    +0.004 C 
ENDBRANCH  31  32
ENDBRANCH  30  31
ENDBRANCH  29  30
ENDBRANCH  28  29
ENDBRANCH  26  27
ENDBRANCH  23  25
ENDBRANCH  22  23
ENDBRANCH   9  22
BRANCH  12  34
ATOM     34  C   LIG A   1      -5.871  -0.026 128.491  0.00  0.00    +0.012 C 
BRANCH  34  35
ATOM     35  C   LIG A   1      -5.880  -0.925 127.244  0.00  0.00    +0.035 C 
BRANCH  35  36
ATOM     36  C   LIG A   1      -6.932  -2.017 127.339  0.00  0.00    -0.055 C 
ATOM     37  C   LIG A   1      -7.634  -2.387 126.257  0.00  0.00    +0.012 C 
BRANCH  36  38
ATOM     38  C   LIG A   1      -7.238  -2.619 128.629  0.00  0.00    -0.005 C 
ATOM     39  C   LIG A   1      -8.383  -3.230 128.953  0.00  0.00    +0.008 C 
ENDBRANCH  36  38
ENDBRANCH  35  36
ENDBRANCH  34  35
ENDBRANCH  12  34
BRANCH   6  40
ATOM     40  O   LIG A   1      -8.142   1.512 125.001  0.00  0.00    -0.434 OA
BRANCH  40  41
ATOM     41  C   LIG A   1      -8.295   0.754 123.856  0.00  0.00    +0.306 C 
ATOM     42  C   LIG A   1      -7.019   0.046 123.517  0.00  0.00    +0.136 C 
ATOM     43  O   LIG A   1      -9.239   0.769 123.099  0.00  0.00    -0.251 OA
ENDBRANCH  40  41
ENDBRANCH   6  40
TORSDOF 17
ENDMDL
MODEL 6
REMARK VINA RESULT:      -7.7      2.214      4.027
REMARK  Name = NuBBE_637
REMARK  22 active torsions:
REMARK  status: ('A' for Active; 'I' for Inactive)
REMARK    1  A    between atoms: O_1  and  C_2
REMARK    2  A    between atoms: C_6  and  O_8
REMARK    3  A    between atoms: O_8  and  C_9
REMARK    4  A    between atoms: C_11  and  O_13
REMARK    5  A    between atoms: O_13  and  C_14
REMARK    6  A    between atoms: C_14  and  C_15
REMARK    7  A    between atoms: C_18  and  O_20
REMARK    8  A    between atoms: C_21  and  O_23
REMARK    9  A    between atoms: O_23  and  C_24
REMARK   10  A    between atoms: C_24  and  C_25
REMARK   11  A    between atoms: C_26  and  C_27
REMARK   12  A    between atoms: C_28  and  C_29
REMARK   13  A    between atoms: C_29  and  C_30
REMARK   14  A    between atoms: C_30  and  C_31
REMARK   15  A    between atoms: C_31  and  C_32
REMARK   16  A    between atoms: C_32  and  C_33
REMARK   17  A    between atoms: C_35  and  C_37
REMARK   18  A    between atoms: C_38  and  C_39
REMARK   19  A    between atoms: C_38  and  C_40
REMARK   20  A    between atoms: C_40  and  C_41
REMARK   21  A    between atoms: C_41  and  C_42
REMARK   22  A    between atoms: C_42  and  C_43
REMARK                            x       y       z     vdW  Elec       q    Type
REMARK                         _______ _______ _______ _____ _____    ______ ____
ROOT
ATOM      1  C   LIG A   1      -4.635   3.122 132.206  0.00  0.00    +0.138 C 
ATOM      2  C   LIG A   1      -5.709   3.338 133.208  0.00  0.00    +0.009 C 
ATOM      3  C   LIG A   1      -6.988   3.147 132.853  0.00  0.00    -0.001 C 
ATOM      4  C   LIG A   1      -8.199   3.598 133.633  0.00  0.00    +0.282 C 
ATOM      5  O   LIG A   1      -9.286   3.410 132.717  0.00  0.00    -0.308 OA
ATOM      6  C   LIG A   1      -8.666   3.566 131.440  0.00  0.00    +0.326 C 
ATOM      7  C   LIG A   1      -7.432   2.613 131.468  0.00  0.00    +0.091 C 
ATOM      8  C   LIG A   1      -7.608   1.094 131.720  0.00  0.00    +0.172 C 
ATOM      9  C   LIG A   1      -7.616   0.101 130.544  0.00  0.00    +0.210 C 
ATOM     10  C   LIG A   1      -7.192   0.650 129.171  0.00  0.00    +0.036 C 
ATOM     11  C   LIG A   1      -8.431   0.933 128.301  0.00  0.00    +0.012 C 
ATOM     12  C   LIG A   1      -6.119   1.814 129.209  0.00  0.00    -0.022 C 
ATOM     13  C   LIG A   1      -4.739   1.126 129.411  0.00  0.00    +0.012 C 
ATOM     14  C   LIG A   1      -6.417   2.931 130.308  0.00  0.00    +0.017 C 
ATOM     15  C   LIG A   1      -5.130   3.632 130.848  0.00  0.00    +0.040 C 
ENDROOT
BRANCH   1  16
ATOM     16  O   LIG A   1      -3.499   3.886 132.579  0.00  0.00    -0.388 OA
ATOM     17  H   LIG A   1      -2.928   3.306 133.112  0.00  0.00    +0.210 HD
ENDBRANCH   1  16
BRANCH   8  18
ATOM     18  O   LIG A   1      -8.686   0.793 132.616  0.00  0.00    -0.387 OA
ATOM     19  H   LIG A   1      -9.068   1.619 132.961  0.00  0.00    +0.210 HD
ENDBRANCH   8  18
BRANCH   4  20
ATOM     20  O   LIG A   1      -8.005   4.980 133.924  0.00  0.00    -0.350 OA
ATOM     21  C   LIG A   1      -7.892   5.236 135.314  0.00  0.00    +0.197 C 
ENDBRANCH   4  20
BRANCH   9  22
ATOM     22  O   LIG A   1      -6.677  -0.981 130.887  0.00  0.00    -0.455 OA
BRANCH  22  23
ATOM     23  C   LIG A   1      -7.202  -2.225 130.984  0.00  0.00    +0.332 C 
ATOM     24  O   LIG A   1      -7.670  -2.741 132.003  0.00  0.00    -0.246 OA
BRANCH  23  25
ATOM     25  C   LIG A   1      -7.183  -2.879 129.674  0.00  0.00    +0.091 C 
ATOM     26  C   LIG A   1      -8.346  -3.136 129.046  0.00  0.00    +0.007 C 
BRANCH  26  27
ATOM     27  C   LIG A   1      -8.467  -3.717 127.735  0.00  0.00    -0.004 C 
ATOM     28  C   LIG A   1      -8.620  -3.020 126.602  0.00  0.00    -0.027 C 
BRANCH  28  29
ATOM     29  C   LIG A   1      -8.665  -3.677 125.263  0.00  0.00    +0.027 C 
BRANCH  29  30
ATOM     30  C   LIG A   1      -8.624  -2.648 124.134  0.00  0.00    +0.004 C 
BRANCH  30  31
ATOM     31  C   LIG A   1      -7.204  -2.438 123.604  0.00  0.00    +0.000 C 
BRANCH  31  32
ATOM     32  C   LIG A   1      -6.265  -3.578 123.998  0.00  0.00    -0.003 C 
ATOM     33  C   LIG A   1      -4.839  -3.332 123.542  0.00  0.00    +0.004 C 
ENDBRANCH  31  32
ENDBRANCH  30  31
ENDBRANCH  29  30
ENDBRANCH  28  29
ENDBRANCH  26  27
ENDBRANCH  23  25
ENDBRANCH  22  23
ENDBRANCH   9  22
BRANCH  12  34
ATOM     34  C   LIG A   1      -6.089   2.492 127.778  0.00  0.00    +0.012 C 
BRANCH  34  35
ATOM     35  C   LIG A   1      -5.079   1.981 126.739  0.00  0.00    +0.035 C 
BRANCH  35  36
ATOM     36  C   LIG A   1      -5.687   0.932 125.825  0.00  0.00    -0.055 C 
ATOM     37  C   LIG A   1      -6.730   1.233 125.034  0.00  0.00    +0.012 C 
BRANCH  36  38
ATOM     38  C   LIG A   1      -5.187  -0.435 125.855  0.00  0.00    -0.005 C 
ATOM     39  C   LIG A   1      -5.463  -1.347 126.794  0.00  0.00    +0.008 C 
ENDBRANCH  36  38
ENDBRANCH  35  36
ENDBRANCH  34  35
ENDBRANCH  12  34
BRANCH   6  40
ATOM     40  O   LIG A   1      -9.570   3.484 130.349  0.00  0.00    -0.434 OA
BRANCH  40  41
ATOM     41  C   LIG A   1     -10.093   4.741 130.119  0.00  0.00    +0.306 C 
ATOM     42  C   LIG A   1      -9.045   5.793 130.316  0.00  0.00    +0.136 C 
ATOM     43  O   LIG A   1     -11.259   5.022 129.964  0.00  0.00    -0.251 OA
ENDBRANCH  40  41
ENDBRANCH   6  40
TORSDOF 17
ENDMDL
MODEL 7
REMARK VINA RESULT:      -7.7      2.227      3.687
REMARK  Name = NuBBE_637
REMARK  22 active torsions:
REMARK  status: ('A' for Active; 'I' for Inactive)
REMARK    1  A    between atoms: O_1  and  C_2
REMARK    2  A    between atoms: C_6  and  O_8
REMARK    3  A    between atoms: O_8  and  C_9
REMARK    4  A    between atoms: C_11  and  O_13
REMARK    5  A    between atoms: O_13  and  C_14
REMARK    6  A    between atoms: C_14  and  C_15
REMARK    7  A    between atoms: C_18  and  O_20
REMARK    8  A    between atoms: C_21  and  O_23
REMARK    9  A    between atoms: O_23  and  C_24
REMARK   10  A    between atoms: C_24  and  C_25
REMARK   11  A    between atoms: C_26  and  C_27
REMARK   12  A    between atoms: C_28  and  C_29
REMARK   13  A    between atoms: C_29  and  C_30
REMARK   14  A    between atoms: C_30  and  C_31
REMARK   15  A    between atoms: C_31  and  C_32
REMARK   16  A    between atoms: C_32  and  C_33
REMARK   17  A    between atoms: C_35  and  C_37
REMARK   18  A    between atoms: C_38  and  C_39
REMARK   19  A    between atoms: C_38  and  C_40
REMARK   20  A    between atoms: C_40  and  C_41
REMARK   21  A    between atoms: C_41  and  C_42
REMARK   22  A    between atoms: C_42  and  C_43
REMARK                            x       y       z     vdW  Elec       q    Type
REMARK                         _______ _______ _______ _____ _____    ______ ____
ROOT
ATOM      1  C   LIG A   1      -8.495   3.637 133.151  0.00  0.00    +0.138 C 
ATOM      2  C   LIG A   1      -9.166   4.377 132.052  0.00  0.00    +0.009 C 
ATOM      3  C   LIG A   1      -8.670   4.303 130.809  0.00  0.00    -0.001 C 
ATOM      4  C   LIG A   1      -9.036   5.206 129.656  0.00  0.00    +0.282 C 
ATOM      5  O   LIG A   1      -8.050   4.903 128.659  0.00  0.00    -0.308 OA
ATOM      6  C   LIG A   1      -6.922   4.488 129.431  0.00  0.00    +0.326 C 
ATOM      7  C   LIG A   1      -7.475   3.404 130.406  0.00  0.00    +0.091 C 
ATOM      8  C   LIG A   1      -8.165   2.127 129.865  0.00  0.00    +0.172 C 
ATOM      9  C   LIG A   1      -7.389   0.802 129.757  0.00  0.00    +0.210 C 
ATOM     10  C   LIG A   1      -6.010   0.750 130.440  0.00  0.00    +0.036 C 
ATOM     11  C   LIG A   1      -4.890   0.924 129.397  0.00  0.00    +0.012 C 
ATOM     12  C   LIG A   1      -5.864   1.644 131.738  0.00  0.00    -0.022 C 
ATOM     13  C   LIG A   1      -6.518   0.838 132.896  0.00  0.00    +0.012 C 
ATOM     14  C   LIG A   1      -6.473   3.110 131.585  0.00  0.00    +0.017 C 
ATOM     15  C   LIG A   1      -6.980   3.717 132.932  0.00  0.00    +0.040 C 
ENDROOT
BRANCH   1  16
ATOM     16  O   LIG A   1      -8.800   4.270 134.383  0.00  0.00    -0.388 OA
ATOM     17  H   LIG A   1      -9.618   4.777 134.249  0.00  0.00    +0.210 HD
ENDBRANCH   1  16
BRANCH   8  18
ATOM     18  O   LIG A   1      -8.903   2.355 128.656  0.00  0.00    -0.387 OA
ATOM     19  H   LIG A   1      -8.732   3.257 128.331  0.00  0.00    +0.210 HD
ENDBRANCH   8  18
BRANCH   4  20
ATOM     20  O   LIG A   1      -8.897   6.545 130.126  0.00  0.00    -0.350 OA
ATOM     21  C   LIG A   1      -9.941   7.393 129.678  0.00  0.00    +0.197 C 
ENDBRANCH   4  20
BRANCH   9  22
ATOM     22  O   LIG A   1      -8.221  -0.238 130.384  0.00  0.00    -0.455 OA
BRANCH  22  23
ATOM     23  C   LIG A   1      -7.855  -1.521 130.155  0.00  0.00    +0.332 C 
ATOM     24  O   LIG A   1      -7.617  -2.376 131.014  0.00  0.00    -0.246 OA
BRANCH  23  25
ATOM     25  C   LIG A   1      -7.824  -1.782 128.715  0.00  0.00    +0.091 C 
ATOM     26  C   LIG A   1      -8.336  -2.934 128.240  0.00  0.00    +0.007 C 
BRANCH  26  27
ATOM     27  C   LIG A   1      -8.422  -3.288 126.848  0.00  0.00    -0.004 C 
ATOM     28  C   LIG A   1      -9.342  -2.818 125.996  0.00  0.00    -0.027 C 
BRANCH  28  29
ATOM     29  C   LIG A   1      -9.334  -3.166 124.545  0.00  0.00    +0.027 C 
BRANCH  29  30
ATOM     30  C   LIG A   1      -7.922  -3.473 124.051  0.00  0.00    +0.004 C 
BRANCH  30  31
ATOM     31  C   LIG A   1      -7.299  -2.279 123.324  0.00  0.00    +0.000 C 
BRANCH  31  32
ATOM     32  C   LIG A   1      -5.782  -2.219 123.505  0.00  0.00    -0.003 C 
ATOM     33  C   LIG A   1      -5.252  -3.391 124.308  0.00  0.00    +0.004 C 
ENDBRANCH  31  32
ENDBRANCH  30  31
ENDBRANCH  29  30
ENDBRANCH  28  29
ENDBRANCH  26  27
ENDBRANCH  23  25
ENDBRANCH  22  23
ENDBRANCH   9  22
BRANCH  12  34
ATOM     34  C   LIG A   1      -4.320   1.760 132.074  0.00  0.00    +0.012 C 
BRANCH  34  35
ATOM     35  C   LIG A   1      -3.884   1.780 133.548  0.00  0.00    +0.035 C 
BRANCH  35  36
ATOM     36  C   LIG A   1      -3.559   3.186 134.023  0.00  0.00    -0.055 C 
ATOM     37  C   LIG A   1      -3.784   3.547 135.297  0.00  0.00    +0.012 C 
BRANCH  36  38
ATOM     38  C   LIG A   1      -3.068   4.177 133.077  0.00  0.00    -0.005 C 
ATOM     39  C   LIG A   1      -1.791   4.350 132.719  0.00  0.00    +0.008 C 
ENDBRANCH  36  38
ENDBRANCH  35  36
ENDBRANCH  34  35
ENDBRANCH  12  34
BRANCH   6  40
ATOM     40  O   LIG A   1      -5.773   4.189 128.655  0.00  0.00    -0.434 OA
BRANCH  40  41
ATOM     41  C   LIG A   1      -4.777   5.089 128.983  0.00  0.00    +0.306 C 
ATOM     42  C   LIG A   1      -3.508   4.370 129.324  0.00  0.00    +0.136 C 
ATOM     43  O   LIG A   1      -4.908   6.278 129.166  0.00  0.00    -0.251 OA
ENDBRANCH  40  41
ENDBRANCH   6  40
TORSDOF 17
ENDMDL
MODEL 8
REMARK VINA RESULT:      -7.7      2.511      6.075
REMARK  Name = NuBBE_637
REMARK  22 active torsions:
REMARK  status: ('A' for Active; 'I' for Inactive)
REMARK    1  A    between atoms: O_1  and  C_2
REMARK    2  A    between atoms: C_6  and  O_8
REMARK    3  A    between atoms: O_8  and  C_9
REMARK    4  A    between atoms: C_11  and  O_13
REMARK    5  A    between atoms: O_13  and  C_14
REMARK    6  A    between atoms: C_14  and  C_15
REMARK    7  A    between atoms: C_18  and  O_20
REMARK    8  A    between atoms: C_21  and  O_23
REMARK    9  A    between atoms: O_23  and  C_24
REMARK   10  A    between atoms: C_24  and  C_25
REMARK   11  A    between atoms: C_26  and  C_27
REMARK   12  A    between atoms: C_28  and  C_29
REMARK   13  A    between atoms: C_29  and  C_30
REMARK   14  A    between atoms: C_30  and  C_31
REMARK   15  A    between atoms: C_31  and  C_32
REMARK   16  A    between atoms: C_32  and  C_33
REMARK   17  A    between atoms: C_35  and  C_37
REMARK   18  A    between atoms: C_38  and  C_39
REMARK   19  A    between atoms: C_38  and  C_40
REMARK   20  A    between atoms: C_40  and  C_41
REMARK   21  A    between atoms: C_41  and  C_42
REMARK   22  A    between atoms: C_42  and  C_43
REMARK                            x       y       z     vdW  Elec       q    Type
REMARK                         _______ _______ _______ _____ _____    ______ ____
ROOT
ATOM      1  C   LIG A   1      -8.040   3.846 128.747  0.00  0.00    +0.138 C 
ATOM      2  C   LIG A   1      -6.765   3.748 127.992  0.00  0.00    +0.009 C 
ATOM      3  C   LIG A   1      -5.729   3.089 128.531  0.00  0.00    -0.001 C 
ATOM      4  C   LIG A   1      -4.299   3.144 128.050  0.00  0.00    +0.282 C 
ATOM      5  O   LIG A   1      -3.560   2.511 129.103  0.00  0.00    -0.308 OA
ATOM      6  C   LIG A   1      -4.354   2.772 130.261  0.00  0.00    +0.326 C 
ATOM      7  C   LIG A   1      -5.796   2.323 129.875  0.00  0.00    +0.091 C 
ATOM      8  C   LIG A   1      -6.081   0.866 129.432  0.00  0.00    +0.172 C 
ATOM      9  C   LIG A   1      -6.656  -0.158 130.428  0.00  0.00    +0.210 C 
ATOM     10  C   LIG A   1      -7.160   0.393 131.774  0.00  0.00    +0.036 C 
ATOM     11  C   LIG A   1      -6.115   0.147 132.878  0.00  0.00    +0.012 C 
ATOM     12  C   LIG A   1      -7.753   1.860 131.724  0.00  0.00    -0.022 C 
ATOM     13  C   LIG A   1      -9.205   1.723 131.184  0.00  0.00    +0.012 C 
ATOM     14  C   LIG A   1      -6.874   2.884 130.876  0.00  0.00    +0.017 C 
ATOM     15  C   LIG A   1      -7.709   4.036 130.231  0.00  0.00    +0.040 C 
ENDROOT
BRANCH   1  16
ATOM     16  O   LIG A   1      -8.751   4.989 128.300  0.00  0.00    -0.388 OA
ATOM     17  H   LIG A   1      -8.414   5.749 128.804  0.00  0.00    +0.210 HD
ENDBRANCH   1  16
BRANCH   8  18
ATOM     18  O   LIG A   1      -4.997   0.275 128.703  0.00  0.00    -0.387 OA
ATOM     19  H   LIG A   1      -4.854   0.764 127.873  0.00  0.00    +0.210 HD
ENDBRANCH   8  18
BRANCH   4  20
ATOM     20  O   LIG A   1      -3.958   4.525 127.941  0.00  0.00    -0.350 OA
ATOM     21  C   LIG A   1      -2.566   4.732 127.775  0.00  0.00    +0.197 C 
ENDBRANCH   4  20
BRANCH   9  22
ATOM     22  O   LIG A   1      -7.801  -0.806 129.769  0.00  0.00    -0.455 OA
BRANCH  22  23
ATOM     23  C   LIG A   1      -7.724  -2.149 129.609  0.00  0.00    +0.332 C 
ATOM     24  O   LIG A   1      -7.723  -2.992 130.511  0.00  0.00    -0.246 OA
BRANCH  23  25
ATOM     25  C   LIG A   1      -7.687  -2.481 128.183  0.00  0.00    +0.091 C 
ATOM     26  C   LIG A   1      -8.616  -3.310 127.673  0.00  0.00    +0.007 C 
BRANCH  26  27
ATOM     27  C   LIG A   1      -8.730  -3.670 126.284  0.00  0.00    -0.004 C 
ATOM     28  C   LIG A   1      -9.287  -2.902 125.339  0.00  0.00    -0.027 C 
BRANCH  28  29
ATOM     29  C   LIG A   1      -9.308  -3.298 123.901  0.00  0.00    +0.027 C 
BRANCH  29  30
ATOM     30  C   LIG A   1      -8.460  -2.356 123.048  0.00  0.00    +0.004 C 
BRANCH  30  31
ATOM     31  C   LIG A   1      -6.983  -2.401 123.444  0.00  0.00    +0.000 C 
BRANCH  31  32
ATOM     32  C   LIG A   1      -6.486  -1.056 123.975  0.00  0.00    -0.003 C 
ATOM     33  C   LIG A   1      -5.658  -1.207 125.237  0.00  0.00    +0.004 C 
ENDBRANCH  31  32
ENDBRANCH  30  31
ENDBRANCH  29  30
ENDBRANCH  28  29
ENDBRANCH  26  27
ENDBRANCH  23  25
ENDBRANCH  22  23
ENDBRANCH   9  22
BRANCH  12  34
ATOM     34  C   LIG A   1      -7.866   2.386 133.214  0.00  0.00    +0.012 C 
BRANCH  34  35
ATOM     35  C   LIG A   1      -9.018   3.337 133.577  0.00  0.00    +0.035 C 
BRANCH  35  36
ATOM     36  C   LIG A   1      -8.513   4.714 133.971  0.00  0.00    -0.055 C 
ATOM     37  C   LIG A   1      -7.767   4.880 135.075  0.00  0.00    +0.012 C 
BRANCH  36  38
ATOM     38  C   LIG A   1      -8.901   5.880 133.191  0.00  0.00    -0.005 C 
ATOM     39  C   LIG A   1     -10.022   6.001 132.472  0.00  0.00    +0.008 C 
ENDBRANCH  36  38
ENDBRANCH  35  36
ENDBRANCH  34  35
ENDBRANCH  12  34
BRANCH   6  40
ATOM     40  O   LIG A   1      -3.786   2.287 131.468  0.00  0.00    -0.434 OA
BRANCH  40  41
ATOM     41  C   LIG A   1      -3.402   3.370 132.236  0.00  0.00    +0.306 C 
ATOM     42  C   LIG A   1      -4.335   3.553 133.393  0.00  0.00    +0.136 C 
ATOM     43  O   LIG A   1      -2.559   4.192 131.957  0.00  0.00    -0.251 OA
ENDBRANCH  40  41
ENDBRANCH   6  40
TORSDOF 17
ENDMDL
MODEL 9
REMARK VINA RESULT:      -7.7      2.531      3.754
REMARK  Name = NuBBE_637
REMARK  22 active torsions:
REMARK  status: ('A' for Active; 'I' for Inactive)
REMARK    1  A    between atoms: O_1  and  C_2
REMARK    2  A    between atoms: C_6  and  O_8
REMARK    3  A    between atoms: O_8  and  C_9
REMARK    4  A    between atoms: C_11  and  O_13
REMARK    5  A    between atoms: O_13  and  C_14
REMARK    6  A    between atoms: C_14  and  C_15
REMARK    7  A    between atoms: C_18  and  O_20
REMARK    8  A    between atoms: C_21  and  O_23
REMARK    9  A    between atoms: O_23  and  C_24
REMARK   10  A    between atoms: C_24  and  C_25
REMARK   11  A    between atoms: C_26  and  C_27
REMARK   12  A    between atoms: C_28  and  C_29
REMARK   13  A    between atoms: C_29  and  C_30
REMARK   14  A    between atoms: C_30  and  C_31
REMARK   15  A    between atoms: C_31  and  C_32
REMARK   16  A    between atoms: C_32  and  C_33
REMARK   17  A    between atoms: C_35  and  C_37
REMARK   18  A    between atoms: C_38  and  C_39
REMARK   19  A    between atoms: C_38  and  C_40
REMARK   20  A    between atoms: C_40  and  C_41
REMARK   21  A    between atoms: C_41  and  C_42
REMARK   22  A    between atoms: C_42  and  C_43
REMARK                            x       y       z     vdW  Elec       q    Type
REMARK                         _______ _______ _______ _____ _____    ______ ____
ROOT
ATOM      1  C   LIG A   1      -8.342   5.174 133.186  0.00  0.00    +0.138 C 
ATOM      2  C   LIG A   1      -9.776   5.251 132.810  0.00  0.00    +0.009 C 
ATOM      3  C   LIG A   1     -10.120   5.220 131.514  0.00  0.00    -0.001 C 
ATOM      4  C   LIG A   1     -11.472   5.580 130.949  0.00  0.00    +0.282 C 
ATOM      5  O   LIG A   1     -11.243   5.653 129.535  0.00  0.00    -0.308 OA
ATOM      6  C   LIG A   1      -9.867   6.024 129.447  0.00  0.00    +0.326 C 
ATOM      7  C   LIG A   1      -9.113   5.008 130.356  0.00  0.00    +0.091 C 
ATOM      8  C   LIG A   1      -9.202   3.485 130.089  0.00  0.00    +0.172 C 
ATOM      9  C   LIG A   1      -8.079   2.754 129.333  0.00  0.00    +0.210 C 
ATOM     10  C   LIG A   1      -6.779   3.543 129.093  0.00  0.00    +0.036 C 
ATOM     11  C   LIG A   1      -6.736   4.076 127.649  0.00  0.00    +0.012 C 
ATOM     12  C   LIG A   1      -6.414   4.602 130.211  0.00  0.00    -0.022 C 
ATOM     13  C   LIG A   1      -5.766   3.800 131.375  0.00  0.00    +0.012 C 
ATOM     14  C   LIG A   1      -7.651   5.490 130.688  0.00  0.00    +0.017 C 
ATOM     15  C   LIG A   1      -7.531   5.981 132.166  0.00  0.00    +0.040 C 
ENDROOT
BRANCH   1  16
ATOM     16  O   LIG A   1      -8.170   5.771 134.462  0.00  0.00    -0.388 OA
ATOM     17  H   LIG A   1      -8.006   5.051 135.093  0.00  0.00    +0.210 HD
ENDBRANCH   1  16
BRANCH   8  18
ATOM     18  O   LIG A   1     -10.477   3.077 129.573  0.00  0.00    -0.387 OA
ATOM     19  H   LIG A   1     -10.750   3.679 128.858  0.00  0.00    +0.210 HD
ENDBRANCH   8  18
BRANCH   4  20
ATOM     20  O   LIG A   1     -11.810   6.858 131.481  0.00  0.00    -0.350 OA
ATOM     21  C   LIG A   1     -12.968   7.413 130.880  0.00  0.00    +0.197 C 
ENDBRANCH   4  20
BRANCH   9  22
ATOM     22  O   LIG A   1      -7.724   1.567 130.128  0.00  0.00    -0.455 OA
BRANCH  22  23
ATOM     23  C   LIG A   1      -7.689   0.386 129.466  0.00  0.00    +0.332 C 
ATOM     24  O   LIG A   1      -8.000   0.203 128.286  0.00  0.00    -0.246 OA
BRANCH  23  25
ATOM     25  C   LIG A   1      -7.176  -0.665 130.347  0.00  0.00    +0.091 C 
ATOM     26  C   LIG A   1      -7.651  -1.919 130.228  0.00  0.00    +0.007 C 
BRANCH  26  27
ATOM     27  C   LIG A   1      -7.193  -3.053 130.986  0.00  0.00    -0.004 C 
ATOM     28  C   LIG A   1      -6.141  -3.815 130.660  0.00  0.00    -0.027 C 
BRANCH  28  29
ATOM     29  C   LIG A   1      -5.669  -4.933 131.528  0.00  0.00    +0.027 C 
BRANCH  29  30
ATOM     30  C   LIG A   1      -5.256  -4.432 132.910  0.00  0.00    +0.004 C 
BRANCH  30  31
ATOM     31  C   LIG A   1      -6.167  -4.978 134.011  0.00  0.00    +0.000 C 
BRANCH  31  32
ATOM     32  C   LIG A   1      -7.118  -3.913 134.556  0.00  0.00    -0.003 C 
ATOM     33  C   LIG A   1      -8.365  -4.517 135.174  0.00  0.00    +0.004 C 
ENDBRANCH  31  32
ENDBRANCH  30  31
ENDBRANCH  29  30
ENDBRANCH  28  29
ENDBRANCH  26  27
ENDBRANCH  23  25
ENDBRANCH  22  23
ENDBRANCH   9  22
BRANCH  12  34
ATOM     34  C   LIG A   1      -5.290   5.554 129.628  0.00  0.00    +0.012 C 
BRANCH  34  35
ATOM     35  C   LIG A   1      -3.837   5.346 130.082  0.00  0.00    +0.035 C 
BRANCH  35  36
ATOM     36  C   LIG A   1      -2.878   5.288 128.906  0.00  0.00    -0.055 C 
ATOM     37  C   LIG A   1      -2.231   6.391 128.494  0.00  0.00    +0.012 C 
BRANCH  36  38
ATOM     38  C   LIG A   1      -2.711   4.045 128.166  0.00  0.00    -0.005 C 
ATOM     39  C   LIG A   1      -2.712   3.922 126.835  0.00  0.00    +0.008 C 
ENDBRANCH  36  38
ENDBRANCH  35  36
ENDBRANCH  34  35
ENDBRANCH  12  34
BRANCH   6  40
ATOM     40  O   LIG A   1      -9.410   6.225 128.118  0.00  0.00    -0.434 OA
BRANCH  40  41
ATOM     41  C   LIG A   1     -10.325   7.021 127.457  0.00  0.00    +0.306 C 
ATOM     42  C   LIG A   1     -10.472   8.342 128.147  0.00  0.00    +0.136 C 
ATOM     43  O   LIG A   1     -11.064   6.683 126.560  0.00  0.00    -0.251 OA
ENDBRANCH  40  41
ENDBRANCH   6  40
TORSDOF 17
ENDMDL
