MODEL 1
REMARK VINA RESULT:      -8.1      0.000      0.000
REMARK  Name = NuBBE_2302
REMARK  5 active torsions:
REMARK  status: ('A' for Active; 'I' for Inactive)
REMARK    1  A    between atoms: C_1  and  O_29
REMARK    2  A    between atoms: C_15  and  C_17
REMARK    3  A    between atoms: C_21  and  O_27
REMARK    4  A    between atoms: O_27  and  C_28
REMARK    5  A    between atoms: O_29  and  C_30
REMARK                            x       y       z     vdW  Elec       q    Type
REMARK                         _______ _______ _______ _____ _____    ______ ____
ROOT
ATOM      1  C   LIG A   1      -8.472  -2.191 126.460  0.00  0.00    +0.142 A 
ATOM      2  C   LIG A   1      -9.273  -3.328 126.573  0.00  0.00    +0.047 A 
ATOM      3  C   LIG A   1      -9.324  -4.052 127.772  0.00  0.00    +0.004 A 
ATOM      4  C   LIG A   1      -8.569  -3.650 128.877  0.00  0.00    +0.006 A 
ATOM      5  C   LIG A   1      -7.786  -2.505 128.774  0.00  0.00    -0.013 A 
ATOM      6  C   LIG A   1      -6.858  -1.864 129.822  0.00  0.00    +0.037 C 
ATOM      7  C   LIG A   1      -6.063  -2.882 130.636  0.00  0.00    +0.078 C 
ATOM      8  C   LIG A   1      -4.527  -2.727 130.679  0.00  0.00    +0.013 C 
ATOM      9  C   LIG A   1      -4.086  -2.894 129.206  0.00  0.00    +0.013 C 
ATOM     10  C   LIG A   1      -4.871  -1.988 128.213  0.00  0.00    +0.028 C 
ATOM     11  C   LIG A   1      -5.964  -1.023 128.859  0.00  0.00    +0.053 C 
ATOM     12  N   LIG A   1      -6.954  -0.609 127.762  0.00  0.00    -0.261 N 
ATOM     13  C   LIG A   1      -7.781  -1.755 127.587  0.00  0.00    +0.083 A 
ATOM     14  C   LIG A   1      -7.535   0.671 127.714  0.00  0.00    +0.217 C 
ATOM     15  O   LIG A   1      -7.153   1.620 128.399  0.00  0.00    -0.276 OA
ATOM     16  C   LIG A   1      -8.682   0.927 126.765  0.00  0.00    +0.110 C 
ATOM     17  C   LIG A   1      -5.205   0.160 129.496  0.00  0.00    +0.027 C 
ATOM     18  C   LIG A   1      -3.927  -0.181 130.236  0.00  0.00    +0.003 C 
ATOM     19  C   LIG A   1      -4.023  -1.341 131.215  0.00  0.00    +0.011 C 
ATOM     20  C   LIG A   1      -3.981  -3.904 131.632  0.00  0.00    +0.127 C 
ATOM     21  C   LIG A   1      -5.121  -4.783 132.213  0.00  0.00    +0.047 C 
ATOM     22  C   LIG A   1      -6.282  -3.953 132.801  0.00  0.00    +0.087 C 
ATOM     23  N   LIG A   1      -6.539  -2.770 132.004  0.00  0.00    -0.298 NA
ATOM     24  C   LIG A   1      -7.867  -2.192 132.000  0.00  0.00    +0.086 C 
ATOM     25  C   LIG A   1      -7.731  -1.155 130.879  0.00  0.00    +0.030 C 
ENDROOT
BRANCH  20  26
ATOM     26  O   LIG A   1      -3.189  -3.357 132.702  0.00  0.00    -0.379 OA
ATOM     27  C   LIG A   1      -2.798  -4.268 133.716  0.00  0.00    +0.194 C 
ENDBRANCH  20  26
BRANCH   1  28
ATOM     28  O   LIG A   1      -8.430  -1.601 125.231  0.00  0.00    -0.493 OA
ATOM     29  C   LIG A   1      -8.747  -2.495 124.163  0.00  0.00    +0.277 C 
ENDBRANCH   1  28
TORSDOF 2
ENDMDL
MODEL 2
REMARK VINA RESULT:      -7.5      4.541      7.290
REMARK  Name = NuBBE_2302
REMARK  5 active torsions:
REMARK  status: ('A' for Active; 'I' for Inactive)
REMARK    1  A    between atoms: C_1  and  O_29
REMARK    2  A    between atoms: C_15  and  C_17
REMARK    3  A    between atoms: C_21  and  O_27
REMARK    4  A    between atoms: O_27  and  C_28
REMARK    5  A    between atoms: O_29  and  C_30
REMARK                            x       y       z     vdW  Elec       q    Type
REMARK                         _______ _______ _______ _____ _____    ______ ____
ROOT
ATOM      1  C   LIG A   1      -6.999   2.269 124.252  0.00  0.00    +0.142 A 
ATOM      2  C   LIG A   1      -6.752   3.241 123.281  0.00  0.00    +0.047 A 
ATOM      3  C   LIG A   1      -5.771   4.220 123.483  0.00  0.00    +0.004 A 
ATOM      4  C   LIG A   1      -5.023   4.245 124.663  0.00  0.00    +0.006 A 
ATOM      5  C   LIG A   1      -5.253   3.265 125.622  0.00  0.00    -0.013 A 
ATOM      6  C   LIG A   1      -4.588   3.077 126.999  0.00  0.00    +0.037 C 
ATOM      7  C   LIG A   1      -4.346   4.389 127.743  0.00  0.00    +0.078 C 
ATOM      8  C   LIG A   1      -4.911   4.519 129.174  0.00  0.00    +0.013 C 
ATOM      9  C   LIG A   1      -6.442   4.387 128.992  0.00  0.00    +0.013 C 
ATOM     10  C   LIG A   1      -6.867   3.140 128.164  0.00  0.00    +0.028 C 
ATOM     11  C   LIG A   1      -5.684   2.191 127.668  0.00  0.00    +0.053 C 
ATOM     12  N   LIG A   1      -6.198   1.351 126.492  0.00  0.00    -0.261 N 
ATOM     13  C   LIG A   1      -6.200   2.255 125.391  0.00  0.00    +0.083 A 
ATOM     14  C   LIG A   1      -5.798   0.018 126.286  0.00  0.00    +0.217 C 
ATOM     15  O   LIG A   1      -5.187  -0.648 127.120  0.00  0.00    -0.276 OA
ATOM     16  C   LIG A   1      -6.139  -0.661 124.980  0.00  0.00    +0.110 C 
ATOM     17  C   LIG A   1      -5.233   1.356 128.885  0.00  0.00    +0.027 C 
ATOM     18  C   LIG A   1      -5.146   2.088 130.210  0.00  0.00    +0.003 C 
ATOM     19  C   LIG A   1      -4.414   3.421 130.178  0.00  0.00    +0.011 C 
ATOM     20  C   LIG A   1      -4.468   5.974 129.704  0.00  0.00    +0.127 C 
ATOM     21  C   LIG A   1      -3.620   6.757 128.666  0.00  0.00    +0.047 C 
ATOM     22  C   LIG A   1      -2.484   5.911 128.054  0.00  0.00    +0.087 C 
ATOM     23  N   LIG A   1      -2.904   4.540 127.841  0.00  0.00    -0.298 NA
ATOM     24  C   LIG A   1      -2.272   3.758 126.800  0.00  0.00    +0.086 C 
ATOM     25  C   LIG A   1      -3.168   2.514 126.783  0.00  0.00    +0.030 C 
ENDROOT
BRANCH  20  26
ATOM     26  O   LIG A   1      -3.743   5.857 130.942  0.00  0.00    -0.379 OA
ATOM     27  C   LIG A   1      -3.373   7.076 131.564  0.00  0.00    +0.194 C 
ENDBRANCH  20  26
BRANCH   1  28
ATOM     28  O   LIG A   1      -8.026   1.408 123.997  0.00  0.00    -0.493 OA
ATOM     29  C   LIG A   1      -9.288   1.874 124.476  0.00  0.00    +0.277 C 
ENDBRANCH   1  28
TORSDOF 2
ENDMDL
MODEL 3
REMARK VINA RESULT:      -7.5      2.557      6.721
REMARK  Name = NuBBE_2302
REMARK  5 active torsions:
REMARK  status: ('A' for Active; 'I' for Inactive)
REMARK    1  A    between atoms: C_1  and  O_29
REMARK    2  A    between atoms: C_15  and  C_17
REMARK    3  A    between atoms: C_21  and  O_27
REMARK    4  A    between atoms: O_27  and  C_28
REMARK    5  A    between atoms: O_29  and  C_30
REMARK                            x       y       z     vdW  Elec       q    Type
REMARK                         _______ _______ _______ _____ _____    ______ ____
ROOT
ATOM      1  C   LIG A   1      -7.738  -1.833 130.075  0.00  0.00    +0.142 A 
ATOM      2  C   LIG A   1      -8.363  -3.039 129.756  0.00  0.00    +0.047 A 
ATOM      3  C   LIG A   1      -8.447  -3.471 128.425  0.00  0.00    +0.004 A 
ATOM      4  C   LIG A   1      -7.910  -2.698 127.392  0.00  0.00    +0.006 A 
ATOM      5  C   LIG A   1      -7.268  -1.506 127.710  0.00  0.00    -0.013 A 
ATOM      6  C   LIG A   1      -6.615  -0.473 126.774  0.00  0.00    +0.037 C 
ATOM      7  C   LIG A   1      -7.404  -0.231 125.489  0.00  0.00    +0.078 C 
ATOM      8  C   LIG A   1      -7.792   1.224 125.146  0.00  0.00    +0.013 C 
ATOM      9  C   LIG A   1      -8.705   1.660 126.316  0.00  0.00    +0.013 C 
ATOM     10  C   LIG A   1      -8.090   1.394 127.720  0.00  0.00    +0.028 C 
ATOM     11  C   LIG A   1      -6.628   0.756 127.735  0.00  0.00    +0.053 C 
ATOM     12  N   LIG A   1      -6.396   0.107 129.107  0.00  0.00    -0.261 N 
ATOM     13  C   LIG A   1      -7.141  -1.106 129.050  0.00  0.00    +0.083 A 
ATOM     14  C   LIG A   1      -5.141   0.114 129.742  0.00  0.00    +0.217 C 
ATOM     15  O   LIG A   1      -4.193   0.805 129.372  0.00  0.00    -0.276 OA
ATOM     16  C   LIG A   1      -4.925  -0.754 130.960  0.00  0.00    +0.110 C 
ATOM     17  C   LIG A   1      -5.635   1.889 127.403  0.00  0.00    +0.027 C 
ATOM     18  C   LIG A   1      -6.056   2.855 126.313  0.00  0.00    +0.003 C 
ATOM     19  C   LIG A   1      -6.583   2.217 125.037  0.00  0.00    +0.011 C 
ATOM     20  C   LIG A   1      -8.569   1.164 123.736  0.00  0.00    +0.127 C 
ATOM     21  C   LIG A   1      -8.661  -0.276 123.164  0.00  0.00    +0.047 C 
ATOM     22  C   LIG A   1      -7.314  -1.027 123.200  0.00  0.00    +0.087 C 
ATOM     23  N   LIG A   1      -6.568  -0.714 124.402  0.00  0.00    -0.298 NA
ATOM     24  C   LIG A   1      -5.622  -1.679 124.923  0.00  0.00    +0.086 C 
ATOM     25  C   LIG A   1      -5.273  -1.046 126.274  0.00  0.00    +0.030 C 
ENDROOT
BRANCH  20  26
ATOM     26  O   LIG A   1      -7.937   2.032 122.778  0.00  0.00    -0.379 OA
ATOM     27  C   LIG A   1      -8.794   2.925 122.087  0.00  0.00    +0.194 C 
ENDBRANCH  20  26
BRANCH   1  28
ATOM     28  O   LIG A   1      -7.775  -1.463 131.388  0.00  0.00    -0.493 OA
ATOM     29  C   LIG A   1      -8.623  -0.340 131.636  0.00  0.00    +0.277 C 
ENDBRANCH   1  28
TORSDOF 2
ENDMDL
MODEL 4
REMARK VINA RESULT:      -7.4      3.378      6.803
REMARK  Name = NuBBE_2302
REMARK  5 active torsions:
REMARK  status: ('A' for Active; 'I' for Inactive)
REMARK    1  A    between atoms: C_1  and  O_29
REMARK    2  A    between atoms: C_15  and  C_17
REMARK    3  A    between atoms: C_21  and  O_27
REMARK    4  A    between atoms: O_27  and  C_28
REMARK    5  A    between atoms: O_29  and  C_30
REMARK                            x       y       z     vdW  Elec       q    Type
REMARK                         _______ _______ _______ _____ _____    ______ ____
ROOT
ATOM      1  C   LIG A   1      -4.477   2.818 127.396  0.00  0.00    +0.142 A 
ATOM      2  C   LIG A   1      -4.304   3.602 126.254  0.00  0.00    +0.047 A 
ATOM      3  C   LIG A   1      -5.120   3.419 125.130  0.00  0.00    +0.004 A 
ATOM      4  C   LIG A   1      -6.121   2.444 125.130  0.00  0.00    +0.006 A 
ATOM      5  C   LIG A   1      -6.310   1.677 126.274  0.00  0.00    -0.013 A 
ATOM      6  C   LIG A   1      -7.318   0.540 126.528  0.00  0.00    +0.037 C 
ATOM      7  C   LIG A   1      -7.506  -0.386 125.328  0.00  0.00    +0.078 C 
ATOM      8  C   LIG A   1      -7.300  -1.901 125.549  0.00  0.00    +0.013 C 
ATOM      9  C   LIG A   1      -5.819  -2.024 125.977  0.00  0.00    +0.013 C 
ATOM     10  C   LIG A   1      -5.424  -1.070 127.141  0.00  0.00    +0.028 C 
ATOM     11  C   LIG A   1      -6.593  -0.153 127.723  0.00  0.00    +0.053 C 
ATOM     12  N   LIG A   1      -5.956   1.034 128.459  0.00  0.00    -0.261 N 
ATOM     13  C   LIG A   1      -5.524   1.902 127.416  0.00  0.00    +0.083 A 
ATOM     14  C   LIG A   1      -6.517   1.586 129.625  0.00  0.00    +0.217 C 
ATOM     15  O   LIG A   1      -7.421   1.053 130.266  0.00  0.00    -0.276 OA
ATOM     16  C   LIG A   1      -5.985   2.899 130.149  0.00  0.00    +0.110 C 
ATOM     17  C   LIG A   1      -7.468  -1.050 128.621  0.00  0.00    +0.027 C 
ATOM     18  C   LIG A   1      -7.754  -2.447 128.104  0.00  0.00    +0.003 C 
ATOM     19  C   LIG A   1      -8.213  -2.532 126.657  0.00  0.00    +0.011 C 
ATOM     20  C   LIG A   1      -7.603  -2.608 124.134  0.00  0.00    +0.127 C 
ATOM     21  C   LIG A   1      -8.018  -1.595 123.034  0.00  0.00    +0.047 C 
ATOM     22  C   LIG A   1      -9.095  -0.597 123.508  0.00  0.00    +0.087 C 
ATOM     23  N   LIG A   1      -8.879  -0.205 124.886  0.00  0.00    -0.298 NA
ATOM     24  C   LIG A   1      -9.358   1.084 125.341  0.00  0.00    +0.086 C 
ATOM     25  C   LIG A   1      -8.715   1.162 126.730  0.00  0.00    +0.030 C 
ENDROOT
BRANCH  20  26
ATOM     26  O   LIG A   1      -8.621  -3.614 124.284  0.00  0.00    -0.379 OA
ATOM     27  C   LIG A   1      -9.704  -3.544 123.372  0.00  0.00    +0.194 C 
ENDBRANCH  20  26
BRANCH   1  28
ATOM     28  O   LIG A   1      -3.585   3.019 128.408  0.00  0.00    -0.493 OA
ATOM     29  C   LIG A   1      -2.914   4.278 128.329  0.00  0.00    +0.277 C 
ENDBRANCH   1  28
TORSDOF 2
ENDMDL
MODEL 5
REMARK VINA RESULT:      -7.4      2.236      6.860
REMARK  Name = NuBBE_2302
REMARK  5 active torsions:
REMARK  status: ('A' for Active; 'I' for Inactive)
REMARK    1  A    between atoms: C_1  and  O_29
REMARK    2  A    between atoms: C_15  and  C_17
REMARK    3  A    between atoms: C_21  and  O_27
REMARK    4  A    between atoms: O_27  and  C_28
REMARK    5  A    between atoms: O_29  and  C_30
REMARK                            x       y       z     vdW  Elec       q    Type
REMARK                         _______ _______ _______ _____ _____    ______ ____
ROOT
ATOM      1  C   LIG A   1      -4.509  -1.835 129.863  0.00  0.00    +0.142 A 
ATOM      2  C   LIG A   1      -3.738  -0.784 130.362  0.00  0.00    +0.047 A 
ATOM      3  C   LIG A   1      -4.031   0.543 130.021  0.00  0.00    +0.004 A 
ATOM      4  C   LIG A   1      -5.099   0.839 129.170  0.00  0.00    +0.006 A 
ATOM      5  C   LIG A   1      -5.882  -0.205 128.688  0.00  0.00    -0.013 A 
ATOM      6  C   LIG A   1      -7.090  -0.155 127.735  0.00  0.00    +0.037 C 
ATOM      7  C   LIG A   1      -6.925   0.847 126.595  0.00  0.00    +0.078 C 
ATOM      8  C   LIG A   1      -7.107   0.331 125.150  0.00  0.00    +0.013 C 
ATOM      9  C   LIG A   1      -5.987  -0.722 124.980  0.00  0.00    +0.013 C 
ATOM     10  C   LIG A   1      -5.947  -1.781 126.120  0.00  0.00    +0.028 C 
ATOM     11  C   LIG A   1      -7.066  -1.638 127.249  0.00  0.00    +0.053 C 
ATOM     12  N   LIG A   1      -6.591  -2.390 128.499  0.00  0.00    -0.261 N 
ATOM     13  C   LIG A   1      -5.616  -1.528 129.077  0.00  0.00    +0.083 A 
ATOM     14  C   LIG A   1      -7.476  -3.088 129.341  0.00  0.00    +0.217 C 
ATOM     15  O   LIG A   1      -8.645  -3.334 129.047  0.00  0.00    -0.276 OA
ATOM     16  C   LIG A   1      -6.984  -3.587 130.679  0.00  0.00    +0.110 C 
ATOM     17  C   LIG A   1      -8.382  -2.179 126.654  0.00  0.00    +0.027 C 
ATOM     18  C   LIG A   1      -8.672  -1.809 125.213  0.00  0.00    +0.003 C 
ATOM     19  C   LIG A   1      -8.495  -0.340 124.863  0.00  0.00    +0.011 C 
ATOM     20  C   LIG A   1      -6.915   1.608 124.188  0.00  0.00    +0.127 C 
ATOM     21  C   LIG A   1      -6.645   2.918 124.975  0.00  0.00    +0.047 C 
ATOM     22  C   LIG A   1      -7.623   3.127 126.150  0.00  0.00    +0.087 C 
ATOM     23  N   LIG A   1      -7.933   1.873 126.808  0.00  0.00    -0.298 NA
ATOM     24  C   LIG A   1      -8.317   1.880 128.204  0.00  0.00    +0.086 C 
ATOM     25  C   LIG A   1      -8.308   0.379 128.517  0.00  0.00    +0.030 C 
ENDROOT
BRANCH  20  26
ATOM     26  O   LIG A   1      -8.066   1.774 123.340  0.00  0.00    -0.379 OA
ATOM     27  C   LIG A   1      -8.067   2.922 122.508  0.00  0.00    +0.194 C 
ENDBRANCH  20  26
BRANCH   1  28
ATOM     28  O   LIG A   1      -4.098  -3.094 130.191  0.00  0.00    -0.493 OA
ATOM     29  C   LIG A   1      -3.206  -3.665 129.232  0.00  0.00    +0.277 C 
ENDBRANCH   1  28
TORSDOF 2
ENDMDL
MODEL 6
REMARK VINA RESULT:      -7.4      2.801      5.700
REMARK  Name = NuBBE_2302
REMARK  5 active torsions:
REMARK  status: ('A' for Active; 'I' for Inactive)
REMARK    1  A    between atoms: C_1  and  O_29
REMARK    2  A    between atoms: C_15  and  C_17
REMARK    3  A    between atoms: C_21  and  O_27
REMARK    4  A    between atoms: O_27  and  C_28
REMARK    5  A    between atoms: O_29  and  C_30
REMARK                            x       y       z     vdW  Elec       q    Type
REMARK                         _______ _______ _______ _____ _____    ______ ____
ROOT
ATOM      1  C   LIG A   1      -9.060   3.317 130.604  0.00  0.00    +0.142 A 
ATOM      2  C   LIG A   1      -9.732   2.681 131.649  0.00  0.00    +0.047 A 
ATOM      3  C   LIG A   1      -9.588   1.303 131.858  0.00  0.00    +0.004 A 
ATOM      4  C   LIG A   1      -8.772   0.539 131.021  0.00  0.00    +0.006 A 
ATOM      5  C   LIG A   1      -8.085   1.174 129.992  0.00  0.00    -0.013 A 
ATOM      6  C   LIG A   1      -7.147   0.569 128.930  0.00  0.00    +0.037 C 
ATOM      7  C   LIG A   1      -7.626  -0.776 128.389  0.00  0.00    +0.078 C 
ATOM      8  C   LIG A   1      -7.778  -0.924 126.859  0.00  0.00    +0.013 C 
ATOM      9  C   LIG A   1      -8.859   0.117 126.483  0.00  0.00    +0.013 C 
ATOM     10  C   LIG A   1      -8.576   1.541 127.041  0.00  0.00    +0.028 C 
ATOM     11  C   LIG A   1      -7.224   1.713 127.872  0.00  0.00    +0.053 C 
ATOM     12  N   LIG A   1      -7.349   2.968 128.746  0.00  0.00    -0.261 N 
ATOM     13  C   LIG A   1      -8.191   2.564 129.821  0.00  0.00    +0.083 A 
ATOM     14  C   LIG A   1      -6.257   3.814 129.010  0.00  0.00    +0.217 C 
ATOM     15  O   LIG A   1      -5.184   3.752 128.410  0.00  0.00    -0.276 OA
ATOM     16  C   LIG A   1      -6.388   4.879 130.073  0.00  0.00    +0.110 C 
ATOM     17  C   LIG A   1      -6.070   1.773 126.851  0.00  0.00    +0.027 C 
ATOM     18  C   LIG A   1      -6.153   0.811 125.682  0.00  0.00    +0.003 C 
ATOM     19  C   LIG A   1      -6.473  -0.632 126.040  0.00  0.00    +0.011 C 
ATOM     20  C   LIG A   1      -8.252  -2.440 126.597  0.00  0.00    +0.127 C 
ATOM     21  C   LIG A   1      -8.379  -3.263 127.907  0.00  0.00    +0.047 C 
ATOM     22  C   LIG A   1      -7.156  -3.113 128.835  0.00  0.00    +0.087 C 
ATOM     23  N   LIG A   1      -6.642  -1.758 128.814  0.00  0.00    -0.298 NA
ATOM     24  C   LIG A   1      -5.932  -1.250 129.969  0.00  0.00    +0.086 C 
ATOM     25  C   LIG A   1      -5.800   0.233 129.603  0.00  0.00    +0.030 C 
ENDROOT
BRANCH  20  26
ATOM     26  O   LIG A   1      -7.349  -3.098 125.690  0.00  0.00    -0.379 OA
ATOM     27  C   LIG A   1      -7.947  -3.782 124.602  0.00  0.00    +0.194 C 
ENDBRANCH  20  26
BRANCH   1  28
ATOM     28  O   LIG A   1      -9.325   4.645 130.435  0.00  0.00    -0.493 OA
ATOM     29  C   LIG A   1     -10.720   4.952 130.462  0.00  0.00    +0.277 C 
ENDBRANCH   1  28
TORSDOF 2
ENDMDL
MODEL 7
REMARK VINA RESULT:      -7.3      3.613      6.096
REMARK  Name = NuBBE_2302
REMARK  5 active torsions:
REMARK  status: ('A' for Active; 'I' for Inactive)
REMARK    1  A    between atoms: C_1  and  O_29
REMARK    2  A    between atoms: C_15  and  C_17
REMARK    3  A    between atoms: C_21  and  O_27
REMARK    4  A    between atoms: O_27  and  C_28
REMARK    5  A    between atoms: O_29  and  C_30
REMARK                            x       y       z     vdW  Elec       q    Type
REMARK                         _______ _______ _______ _____ _____    ______ ____
ROOT
ATOM      1  C   LIG A   1      -7.756  -0.930 127.421  0.00  0.00    +0.142 A 
ATOM      2  C   LIG A   1      -7.636  -1.474 128.701  0.00  0.00    +0.047 A 
ATOM      3  C   LIG A   1      -7.201  -0.686 129.775  0.00  0.00    +0.004 A 
ATOM      4  C   LIG A   1      -6.875   0.659 129.584  0.00  0.00    +0.006 A 
ATOM      5  C   LIG A   1      -7.015   1.209 128.314  0.00  0.00    -0.013 A 
ATOM      6  C   LIG A   1      -6.711   2.641 127.836  0.00  0.00    +0.037 C 
ATOM      7  C   LIG A   1      -5.442   3.231 128.446  0.00  0.00    +0.078 C 
ATOM      8  C   LIG A   1      -4.366   3.778 127.481  0.00  0.00    +0.013 C 
ATOM      9  C   LIG A   1      -3.931   2.542 126.658  0.00  0.00    +0.013 C 
ATOM     10  C   LIG A   1      -5.121   1.756 126.035  0.00  0.00    +0.028 C 
ATOM     11  C   LIG A   1      -6.575   2.353 126.308  0.00  0.00    +0.053 C 
ATOM     12  N   LIG A   1      -7.605   1.238 126.086  0.00  0.00    -0.261 N 
ATOM     13  C   LIG A   1      -7.501   0.428 127.253  0.00  0.00    +0.083 A 
ATOM     14  C   LIG A   1      -8.874   1.484 125.532  0.00  0.00    +0.217 C 
ATOM     15  O   LIG A   1      -9.189   2.542 124.990  0.00  0.00    -0.276 OA
ATOM     16  C   LIG A   1      -9.923   0.397 125.576  0.00  0.00    +0.110 C 
ATOM     17  C   LIG A   1      -6.751   3.565 125.370  0.00  0.00    +0.027 C 
ATOM     18  C   LIG A   1      -5.549   4.475 125.212  0.00  0.00    +0.003 C 
ATOM     19  C   LIG A   1      -4.870   4.897 126.505  0.00  0.00    +0.011 C 
ATOM     20  C   LIG A   1      -3.184   4.360 128.406  0.00  0.00    +0.127 C 
ATOM     21  C   LIG A   1      -3.487   4.224 129.922  0.00  0.00    +0.047 C 
ATOM     22  C   LIG A   1      -4.906   4.700 130.299  0.00  0.00    +0.087 C 
ATOM     23  N   LIG A   1      -5.870   4.343 129.277  0.00  0.00    -0.298 NA
ATOM     24  C   LIG A   1      -7.257   4.155 129.645  0.00  0.00    +0.086 C 
ATOM     25  C   LIG A   1      -7.828   3.574 128.347  0.00  0.00    +0.030 C 
ENDROOT
BRANCH  20  26
ATOM     26  O   LIG A   1      -2.924   5.737 128.079  0.00  0.00    -0.379 OA
ATOM     27  C   LIG A   1      -2.063   6.435 128.963  0.00  0.00    +0.194 C 
ENDBRANCH  20  26
BRANCH   1  28
ATOM     28  O   LIG A   1      -8.112  -1.795 126.428  0.00  0.00    -0.493 OA
ATOM     29  C   LIG A   1      -6.993  -2.383 125.762  0.00  0.00    +0.277 C 
ENDBRANCH   1  28
TORSDOF 2
ENDMDL
MODEL 8
REMARK VINA RESULT:      -7.1      5.363      8.550
REMARK  Name = NuBBE_2302
REMARK  5 active torsions:
REMARK  status: ('A' for Active; 'I' for Inactive)
REMARK    1  A    between atoms: C_1  and  O_29
REMARK    2  A    between atoms: C_15  and  C_17
REMARK    3  A    between atoms: C_21  and  O_27
REMARK    4  A    between atoms: O_27  and  C_28
REMARK    5  A    between atoms: O_29  and  C_30
REMARK                            x       y       z     vdW  Elec       q    Type
REMARK                         _______ _______ _______ _____ _____    ______ ____
ROOT
ATOM      1  C   LIG A   1      -5.090   1.717 129.703  0.00  0.00    +0.142 A 
ATOM      2  C   LIG A   1      -4.841   2.186 128.413  0.00  0.00    +0.047 A 
ATOM      3  C   LIG A   1      -5.332   3.431 127.997  0.00  0.00    +0.004 A 
ATOM      4  C   LIG A   1      -6.084   4.225 128.867  0.00  0.00    +0.006 A 
ATOM      5  C   LIG A   1      -6.316   3.768 130.160  0.00  0.00    -0.013 A 
ATOM      6  C   LIG A   1      -7.117   4.431 131.296  0.00  0.00    +0.037 C 
ATOM      7  C   LIG A   1      -8.400   5.109 130.821  0.00  0.00    +0.078 C 
ATOM      8  C   LIG A   1      -9.725   4.704 131.505  0.00  0.00    +0.013 C 
ATOM      9  C   LIG A   1      -9.873   3.198 131.184  0.00  0.00    +0.013 C 
ATOM     10  C   LIG A   1      -8.606   2.360 131.521  0.00  0.00    +0.028 C 
ATOM     11  C   LIG A   1      -7.385   3.161 132.163  0.00  0.00    +0.053 C 
ATOM     12  N   LIG A   1      -6.105   2.341 131.957  0.00  0.00    -0.261 N 
ATOM     13  C   LIG A   1      -5.776   2.544 130.587  0.00  0.00    +0.083 A 
ATOM     14  C   LIG A   1      -5.074   2.300 132.913  0.00  0.00    +0.217 C 
ATOM     15  O   LIG A   1      -5.189   2.730 134.060  0.00  0.00    -0.276 OA
ATOM     16  C   LIG A   1      -3.746   1.684 132.541  0.00  0.00    +0.110 C 
ATOM     17  C   LIG A   1      -7.738   3.412 133.644  0.00  0.00    +0.027 C 
ATOM     18  C   LIG A   1      -9.172   3.804 133.938  0.00  0.00    +0.003 C 
ATOM     19  C   LIG A   1      -9.747   4.904 133.061  0.00  0.00    +0.011 C 
ATOM     20  C   LIG A   1     -10.876   5.604 130.829  0.00  0.00    +0.127 C 
ATOM     21  C   LIG A   1     -10.321   6.582 129.759  0.00  0.00    +0.047 C 
ATOM     22  C   LIG A   1      -9.081   7.363 130.242  0.00  0.00    +0.087 C 
ATOM     23  N   LIG A   1      -8.219   6.531 131.058  0.00  0.00    -0.298 NA
ATOM     24  C   LIG A   1      -6.803   6.826 131.123  0.00  0.00    +0.086 C 
ATOM     25  C   LIG A   1      -6.282   5.593 131.870  0.00  0.00    +0.030 C 
ENDROOT
BRANCH  20  26
ATOM     26  O   LIG A   1     -11.597   6.336 131.836  0.00  0.00    -0.379 OA
ATOM     27  C   LIG A   1     -12.627   7.190 131.368  0.00  0.00    +0.194 C 
ENDBRANCH  20  26
BRANCH   1  28
ATOM     28  O   LIG A   1      -4.637   0.462 129.987  0.00  0.00    -0.493 OA
ATOM     29  C   LIG A   1      -5.223  -0.551 129.168  0.00  0.00    +0.277 C 
ENDBRANCH   1  28
TORSDOF 2
ENDMDL
MODEL 9
REMARK VINA RESULT:      -7.0      4.763      8.087
REMARK  Name = NuBBE_2302
REMARK  5 active torsions:
REMARK  status: ('A' for Active; 'I' for Inactive)
REMARK    1  A    between atoms: C_1  and  O_29
REMARK    2  A    between atoms: C_15  and  C_17
REMARK    3  A    between atoms: C_21  and  O_27
REMARK    4  A    between atoms: O_27  and  C_28
REMARK    5  A    between atoms: O_29  and  C_30
REMARK                            x       y       z     vdW  Elec       q    Type
REMARK                         _______ _______ _______ _____ _____    ______ ____
ROOT
ATOM      1  C   LIG A   1      -6.840   2.812 130.077  0.00  0.00    +0.142 A 
ATOM      2  C   LIG A   1      -7.763   1.859 130.508  0.00  0.00    +0.047 A 
ATOM      3  C   LIG A   1      -8.279   0.909 129.617  0.00  0.00    +0.004 A 
ATOM      4  C   LIG A   1      -7.882   0.901 128.278  0.00  0.00    +0.006 A 
ATOM      5  C   LIG A   1      -6.945   1.837 127.851  0.00  0.00    -0.013 A 
ATOM      6  C   LIG A   1      -6.358   2.053 126.443  0.00  0.00    +0.037 C 
ATOM      7  C   LIG A   1      -7.386   1.901 125.325  0.00  0.00    +0.078 C 
ATOM      8  C   LIG A   1      -7.539   3.068 124.324  0.00  0.00    +0.013 C 
ATOM      9  C   LIG A   1      -8.004   4.258 125.196  0.00  0.00    +0.013 C 
ATOM     10  C   LIG A   1      -7.114   4.499 126.449  0.00  0.00    +0.028 C 
ATOM     11  C   LIG A   1      -5.864   3.522 126.620  0.00  0.00    +0.053 C 
ATOM     12  N   LIG A   1      -5.424   3.551 128.090  0.00  0.00    -0.261 N 
ATOM     13  C   LIG A   1      -6.392   2.752 128.761  0.00  0.00    +0.083 A 
ATOM     14  C   LIG A   1      -4.073   3.462 128.474  0.00  0.00    +0.217 C 
ATOM     15  O   LIG A   1      -3.132   3.566 127.689  0.00  0.00    -0.276 OA
ATOM     16  C   LIG A   1      -3.733   3.242 129.930  0.00  0.00    +0.110 C 
ATOM     17  C   LIG A   1      -4.779   3.997 125.632  0.00  0.00    +0.027 C 
ATOM     18  C   LIG A   1      -5.259   4.421 124.258  0.00  0.00    +0.003 C 
ATOM     19  C   LIG A   1      -6.220   3.464 123.572  0.00  0.00    +0.011 C 
ATOM     20  C   LIG A   1      -8.651   2.604 123.256  0.00  0.00    +0.127 C 
ATOM     21  C   LIG A   1      -9.187   1.174 123.531  0.00  0.00    +0.047 C 
ATOM     22  C   LIG A   1      -8.064   0.148 123.792  0.00  0.00    +0.087 C 
ATOM     23  N   LIG A   1      -6.982   0.735 124.557  0.00  0.00    -0.298 NA
ATOM     24  C   LIG A   1      -6.156  -0.117 125.387  0.00  0.00    +0.086 C 
ATOM     25  C   LIG A   1      -5.342   0.927 126.160  0.00  0.00    +0.030 C 
ENDROOT
BRANCH  20  26
ATOM     26  O   LIG A   1      -8.124   2.681 121.919  0.00  0.00    -0.379 OA
ATOM     27  C   LIG A   1      -8.782   3.580 121.041  0.00  0.00    +0.194 C 
ENDBRANCH  20  26
BRANCH   1  28
ATOM     28  O   LIG A   1      -6.456   3.741 131.000  0.00  0.00    -0.493 OA
ATOM     29  C   LIG A   1      -7.490   4.081 131.925  0.00  0.00    +0.277 C 
ENDBRANCH   1  28
TORSDOF 2
ENDMDL
