MODEL 1
REMARK VINA RESULT:      -6.9      0.000      0.000
REMARK  Name = NuBBE_250
REMARK  7 active torsions:
REMARK  status: ('A' for Active; 'I' for Inactive)
REMARK    1  A    between atoms: C_1  and  O_2
REMARK    2  A    between atoms: O_2  and  C_3
REMARK    3  A    between atoms: C_5  and  O_6
REMARK    4  A    between atoms: O_6  and  C_7
REMARK    5  A    between atoms: C_11  and  C_12
REMARK    6  A    between atoms: C_12  and  C_13
REMARK    7  A    between atoms: C_13  and  C_14
REMARK                            x       y       z     vdW  Elec       q    Type
REMARK                         _______ _______ _______ _____ _____    ______ ____
ROOT
ATOM      1  C   LIG A   1      -8.596   5.535 133.019  0.00  0.00    +0.124 A 
ATOM      2  C   LIG A   1      -7.498   6.083 132.352  0.00  0.00    +0.095 A 
ATOM      3  C   LIG A   1      -7.660   6.845 131.190  0.00  0.00    +0.166 A 
ATOM      4  C   LIG A   1      -8.953   7.039 130.698  0.00  0.00    +0.181 A 
ATOM      5  O   LIG A   1      -9.150   7.739 129.490  0.00  0.00    -0.418 OA
ATOM      6  C   LIG A   1     -10.404   7.951 128.931  0.00  0.00    +0.341 A 
ATOM      7  C   LIG A   1     -11.567   7.426 129.682  0.00  0.00    +0.045 A 
ATOM      8  C   LIG A   1     -11.398   6.762 130.834  0.00  0.00    +0.022 A 
ATOM      9  O   LIG A   1     -10.546   8.576 127.888  0.00  0.00    -0.245 OA
ATOM     10  C   LIG A   1     -10.064   6.520 131.368  0.00  0.00    +0.025 A 
ATOM     11  C   LIG A   1      -9.882   5.768 132.535  0.00  0.00    +0.057 A 
ENDROOT
BRANCH   1  13
ATOM     12  C   LIG A   1      -7.576   5.516 135.157  0.00  0.00    +0.277 C 
ATOM     13  O   LIG A   1      -8.293   4.818 134.145  0.00  0.00    -0.495 OA
ENDBRANCH   1  13
BRANCH   3  14
ATOM     14  O   LIG A   1      -6.482   7.269 130.638  0.00  0.00    -0.491 OA
ATOM     15  C   LIG A   1      -5.281   6.850 131.275  0.00  0.00    +0.277 C 
ENDBRANCH   3  14
BRANCH   7  16
ATOM     16  C   LIG A   1     -12.918   7.689 129.078  0.00  0.00    +0.116 C 
BRANCH  16  17
ATOM     17  C   LIG A   1     -13.277   9.165 129.171  0.00  0.00    +0.135 C 
ATOM     18  C   LIG A   1     -13.112   9.822 130.516  0.00  0.00    +0.086 C 
ATOM     19  O   LIG A   1     -13.711   9.801 128.209  0.00  0.00    -0.297 OA
ENDBRANCH  16  17
ENDBRANCH   7  16
TORSDOF 4
ENDMDL
MODEL 2
REMARK VINA RESULT:      -6.8      1.828      3.404
REMARK  Name = NuBBE_250
REMARK  7 active torsions:
REMARK  status: ('A' for Active; 'I' for Inactive)
REMARK    1  A    between atoms: C_1  and  O_2
REMARK    2  A    between atoms: O_2  and  C_3
REMARK    3  A    between atoms: C_5  and  O_6
REMARK    4  A    between atoms: O_6  and  C_7
REMARK    5  A    between atoms: C_11  and  C_12
REMARK    6  A    between atoms: C_12  and  C_13
REMARK    7  A    between atoms: C_13  and  C_14
REMARK                            x       y       z     vdW  Elec       q    Type
REMARK                         _______ _______ _______ _____ _____    ______ ____
ROOT
ATOM      1  C   LIG A   1      -6.495   6.361 131.696  0.00  0.00    +0.124 A 
ATOM      2  C   LIG A   1      -7.075   5.599 132.713  0.00  0.00    +0.095 A 
ATOM      3  C   LIG A   1      -8.464   5.480 132.830  0.00  0.00    +0.166 A 
ATOM      4  C   LIG A   1      -9.269   6.155 131.908  0.00  0.00    +0.181 A 
ATOM      5  O   LIG A   1     -10.671   6.118 132.038  0.00  0.00    -0.418 OA
ATOM      6  C   LIG A   1     -11.532   6.781 131.171  0.00  0.00    +0.341 A 
ATOM      7  C   LIG A   1     -10.910   7.529 130.056  0.00  0.00    +0.045 A 
ATOM      8  C   LIG A   1      -9.577   7.571 129.915  0.00  0.00    +0.022 A 
ATOM      9  O   LIG A   1     -12.748   6.719 131.301  0.00  0.00    -0.245 OA
ATOM     10  C   LIG A   1      -8.705   6.899 130.869  0.00  0.00    +0.025 A 
ATOM     11  C   LIG A   1      -7.312   6.998 130.763  0.00  0.00    +0.057 A 
ENDROOT
BRANCH   1  13
ATOM     12  C   LIG A   1      -4.520   7.407 130.912  0.00  0.00    +0.277 C 
ATOM     13  O   LIG A   1      -5.127   6.385 131.696  0.00  0.00    -0.495 OA
ENDBRANCH   1  13
BRANCH   3  14
ATOM     14  O   LIG A   1      -8.866   4.737 133.906  0.00  0.00    -0.491 OA
ATOM     15  C   LIG A   1      -9.089   3.349 133.686  0.00  0.00    +0.277 C 
ENDBRANCH   3  14
BRANCH   7  16
ATOM     16  C   LIG A   1     -11.855   8.216 129.111  0.00  0.00    +0.116 C 
BRANCH  16  17
ATOM     17  C   LIG A   1     -12.009   7.423 127.822  0.00  0.00    +0.135 C 
ATOM     18  C   LIG A   1     -11.144   7.837 126.661  0.00  0.00    +0.086 C 
ATOM     19  O   LIG A   1     -12.818   6.500 127.706  0.00  0.00    -0.297 OA
ENDBRANCH  16  17
ENDBRANCH   7  16
TORSDOF 4
ENDMDL
MODEL 3
REMARK VINA RESULT:      -6.6      1.832      6.110
REMARK  Name = NuBBE_250
REMARK  7 active torsions:
REMARK  status: ('A' for Active; 'I' for Inactive)
REMARK    1  A    between atoms: C_1  and  O_2
REMARK    2  A    between atoms: O_2  and  C_3
REMARK    3  A    between atoms: C_5  and  O_6
REMARK    4  A    between atoms: O_6  and  C_7
REMARK    5  A    between atoms: C_11  and  C_12
REMARK    6  A    between atoms: C_12  and  C_13
REMARK    7  A    between atoms: C_13  and  C_14
REMARK                            x       y       z     vdW  Elec       q    Type
REMARK                         _______ _______ _______ _____ _____    ______ ____
ROOT
ATOM      1  C   LIG A   1     -13.159   9.300 129.327  0.00  0.00    +0.124 A 
ATOM      2  C   LIG A   1     -13.007   8.689 128.080  0.00  0.00    +0.095 A 
ATOM      3  C   LIG A   1     -12.300   7.491 127.938  0.00  0.00    +0.166 A 
ATOM      4  C   LIG A   1     -11.731   6.917 129.079  0.00  0.00    +0.181 A 
ATOM      5  O   LIG A   1     -10.949   5.750 128.965  0.00  0.00    -0.418 OA
ATOM      6  C   LIG A   1     -10.337   5.137 130.051  0.00  0.00    +0.341 A 
ATOM      7  C   LIG A   1     -10.560   5.753 131.378  0.00  0.00    +0.045 A 
ATOM      8  C   LIG A   1     -11.304   6.861 131.505  0.00  0.00    +0.022 A 
ATOM      9  O   LIG A   1      -9.675   4.115 129.923  0.00  0.00    -0.245 OA
ATOM     10  C   LIG A   1     -11.895   7.501 130.338  0.00  0.00    +0.025 A 
ATOM     11  C   LIG A   1     -12.615   8.695 130.460  0.00  0.00    +0.057 A 
ENDROOT
BRANCH   1  13
ATOM     12  C   LIG A   1     -13.535  11.417 130.320  0.00  0.00    +0.277 C 
ATOM     13  O   LIG A   1     -13.879  10.464 129.321  0.00  0.00    -0.495 OA
ENDBRANCH   1  13
BRANCH   3  14
ATOM     14  O   LIG A   1     -12.207   7.052 126.646  0.00  0.00    -0.491 OA
ATOM     15  C   LIG A   1     -11.125   7.551 125.870  0.00  0.00    +0.277 C 
ENDBRANCH   3  14
BRANCH   7  16
ATOM     16  C   LIG A   1      -9.915   5.061 132.546  0.00  0.00    +0.116 C 
BRANCH  16  17
ATOM     17  C   LIG A   1      -8.733   5.864 133.069  0.00  0.00    +0.135 C 
ATOM     18  C   LIG A   1      -7.617   6.144 132.097  0.00  0.00    +0.086 C 
ATOM     19  O   LIG A   1      -8.661   6.251 134.237  0.00  0.00    -0.297 OA
ENDBRANCH  16  17
ENDBRANCH   7  16
TORSDOF 4
ENDMDL
MODEL 4
REMARK VINA RESULT:      -6.5     10.437     11.316
REMARK  Name = NuBBE_250
REMARK  7 active torsions:
REMARK  status: ('A' for Active; 'I' for Inactive)
REMARK    1  A    between atoms: C_1  and  O_2
REMARK    2  A    between atoms: O_2  and  C_3
REMARK    3  A    between atoms: C_5  and  O_6
REMARK    4  A    between atoms: O_6  and  C_7
REMARK    5  A    between atoms: C_11  and  C_12
REMARK    6  A    between atoms: C_12  and  C_13
REMARK    7  A    between atoms: C_13  and  C_14
REMARK                            x       y       z     vdW  Elec       q    Type
REMARK                         _______ _______ _______ _____ _____    ______ ____
ROOT
ATOM      1  C   LIG A   1      -6.459  -3.231 124.083  0.00  0.00    +0.124 A 
ATOM      2  C   LIG A   1      -7.564  -3.528 124.885  0.00  0.00    +0.095 A 
ATOM      3  C   LIG A   1      -8.553  -2.574 125.143  0.00  0.00    +0.166 A 
ATOM      4  C   LIG A   1      -8.407  -1.299 124.588  0.00  0.00    +0.181 A 
ATOM      5  O   LIG A   1      -9.345  -0.290 124.885  0.00  0.00    -0.418 OA
ATOM      6  C   LIG A   1      -9.252   1.003 124.385  0.00  0.00    +0.341 A 
ATOM      7  C   LIG A   1      -8.116   1.290 123.481  0.00  0.00    +0.045 A 
ATOM      8  C   LIG A   1      -7.218   0.340 123.184  0.00  0.00    +0.022 A 
ATOM      9  O   LIG A   1     -10.090   1.856 124.650  0.00  0.00    -0.245 OA
ATOM     10  C   LIG A   1      -7.323  -0.993 123.761  0.00  0.00    +0.025 A 
ATOM     11  C   LIG A   1      -6.348  -1.966 123.507  0.00  0.00    +0.057 A 
ENDROOT
BRANCH   1  13
ATOM     12  C   LIG A   1      -4.251  -3.889 123.536  0.00  0.00    +0.277 C 
ATOM     13  O   LIG A   1      -5.573  -4.259 123.909  0.00  0.00    -0.495 OA
ENDBRANCH   1  13
BRANCH   3  14
ATOM     14  O   LIG A   1      -9.540  -3.013 125.982  0.00  0.00    -0.491 OA
ATOM     15  C   LIG A   1      -9.129  -3.624 127.199  0.00  0.00    +0.277 C 
ENDBRANCH   3  14
BRANCH   7  16
ATOM     16  C   LIG A   1      -8.047   2.685 122.926  0.00  0.00    +0.116 C 
BRANCH  16  17
ATOM     17  C   LIG A   1      -6.626   3.226 122.990  0.00  0.00    +0.135 C 
ATOM     18  C   LIG A   1      -5.941   3.491 121.675  0.00  0.00    +0.086 C 
ATOM     19  O   LIG A   1      -6.038   3.417 124.055  0.00  0.00    -0.297 OA
ENDBRANCH  16  17
ENDBRANCH   7  16
TORSDOF 4
ENDMDL
MODEL 5
REMARK VINA RESULT:      -6.5      9.188     11.054
REMARK  Name = NuBBE_250
REMARK  7 active torsions:
REMARK  status: ('A' for Active; 'I' for Inactive)
REMARK    1  A    between atoms: C_1  and  O_2
REMARK    2  A    between atoms: O_2  and  C_3
REMARK    3  A    between atoms: C_5  and  O_6
REMARK    4  A    between atoms: O_6  and  C_7
REMARK    5  A    between atoms: C_11  and  C_12
REMARK    6  A    between atoms: C_12  and  C_13
REMARK    7  A    between atoms: C_13  and  C_14
REMARK                            x       y       z     vdW  Elec       q    Type
REMARK                         _______ _______ _______ _____ _____    ______ ____
ROOT
ATOM      1  C   LIG A   1      -6.101   3.611 121.529  0.00  0.00    +0.124 A 
ATOM      2  C   LIG A   1      -7.213   3.881 120.729  0.00  0.00    +0.095 A 
ATOM      3  C   LIG A   1      -8.494   3.454 121.096  0.00  0.00    +0.166 A 
ATOM      4  C   LIG A   1      -8.639   2.735 122.286  0.00  0.00    +0.181 A 
ATOM      5  O   LIG A   1      -9.901   2.226 122.652  0.00  0.00    -0.418 OA
ATOM      6  C   LIG A   1     -10.115   1.486 123.808  0.00  0.00    +0.341 A 
ATOM      7  C   LIG A   1      -8.943   1.264 124.685  0.00  0.00    +0.045 A 
ATOM      8  C   LIG A   1      -7.736   1.745 124.354  0.00  0.00    +0.022 A 
ATOM      9  O   LIG A   1     -11.226   1.068 124.108  0.00  0.00    -0.245 OA
ATOM     10  C   LIG A   1      -7.541   2.480 123.111  0.00  0.00    +0.025 A 
ATOM     11  C   LIG A   1      -6.268   2.923 122.731  0.00  0.00    +0.057 A 
ENDROOT
BRANCH   1  13
ATOM     12  C   LIG A   1      -4.986   5.275 120.266  0.00  0.00    +0.277 C 
ATOM     13  O   LIG A   1      -4.911   4.092 121.053  0.00  0.00    -0.495 OA
ENDBRANCH   1  13
BRANCH   3  14
ATOM     14  O   LIG A   1      -9.463   3.760 120.181  0.00  0.00    -0.491 OA
ATOM     15  C   LIG A   1      -9.027   4.233 118.911  0.00  0.00    +0.277 C 
ENDBRANCH   3  14
BRANCH   7  16
ATOM     16  C   LIG A   1      -9.197   0.486 125.946  0.00  0.00    +0.116 C 
BRANCH  16  17
ATOM     17  C   LIG A   1      -8.870  -0.987 125.752  0.00  0.00    +0.135 C 
ATOM     18  C   LIG A   1      -7.686  -1.526 126.511  0.00  0.00    +0.086 C 
ATOM     19  O   LIG A   1      -9.514  -1.713 124.992  0.00  0.00    -0.297 OA
ENDBRANCH  16  17
ENDBRANCH   7  16
TORSDOF 4
ENDMDL
MODEL 6
REMARK VINA RESULT:      -6.3      2.311      2.526
REMARK  Name = NuBBE_250
REMARK  7 active torsions:
REMARK  status: ('A' for Active; 'I' for Inactive)
REMARK    1  A    between atoms: C_1  and  O_2
REMARK    2  A    between atoms: O_2  and  C_3
REMARK    3  A    between atoms: C_5  and  O_6
REMARK    4  A    between atoms: O_6  and  C_7
REMARK    5  A    between atoms: C_11  and  C_12
REMARK    6  A    between atoms: C_12  and  C_13
REMARK    7  A    between atoms: C_13  and  C_14
REMARK                            x       y       z     vdW  Elec       q    Type
REMARK                         _______ _______ _______ _____ _____    ______ ____
ROOT
ATOM      1  C   LIG A   1      -8.073   5.004 132.062  0.00  0.00    +0.124 A 
ATOM      2  C   LIG A   1      -7.701   4.060 131.101  0.00  0.00    +0.095 A 
ATOM      3  C   LIG A   1      -8.065   4.206 129.759  0.00  0.00    +0.166 A 
ATOM      4  C   LIG A   1      -8.826   5.320 129.394  0.00  0.00    +0.181 A 
ATOM      5  O   LIG A   1      -9.273   5.464 128.066  0.00  0.00    -0.418 OA
ATOM      6  C   LIG A   1     -10.049   6.534 127.636  0.00  0.00    +0.341 A 
ATOM      7  C   LIG A   1     -10.380   7.565 128.646  0.00  0.00    +0.045 A 
ATOM      8  C   LIG A   1      -9.960   7.446 129.913  0.00  0.00    +0.022 A 
ATOM      9  O   LIG A   1     -10.411   6.639 126.472  0.00  0.00    -0.245 OA
ATOM     10  C   LIG A   1      -9.184   6.288 130.337  0.00  0.00    +0.025 A 
ATOM     11  C   LIG A   1      -8.802   6.128 131.674  0.00  0.00    +0.057 A 
ENDROOT
BRANCH   1  13
ATOM     12  C   LIG A   1      -7.999   5.698 134.325  0.00  0.00    +0.277 C 
ATOM     13  O   LIG A   1      -7.645   4.740 133.334  0.00  0.00    -0.495 OA
ENDBRANCH   1  13
BRANCH   3  14
ATOM     14  O   LIG A   1      -7.660   3.172 128.960  0.00  0.00    -0.491 OA
ATOM     15  C   LIG A   1      -8.509   2.032 128.898  0.00  0.00    +0.277 C 
ENDBRANCH   3  14
BRANCH   7  16
ATOM     16  C   LIG A   1     -11.196   8.729 128.159  0.00  0.00    +0.116 C 
BRANCH  16  17
ATOM     17  C   LIG A   1     -12.619   8.657 128.691  0.00  0.00    +0.135 C 
ATOM     18  C   LIG A   1     -13.085   9.806 129.547  0.00  0.00    +0.086 C 
ATOM     19  O   LIG A   1     -13.362   7.699 128.466  0.00  0.00    -0.297 OA
ENDBRANCH  16  17
ENDBRANCH   7  16
TORSDOF 4
ENDMDL
MODEL 7
REMARK VINA RESULT:      -6.1      2.723      2.969
REMARK  Name = NuBBE_250
REMARK  7 active torsions:
REMARK  status: ('A' for Active; 'I' for Inactive)
REMARK    1  A    between atoms: C_1  and  O_2
REMARK    2  A    between atoms: O_2  and  C_3
REMARK    3  A    between atoms: C_5  and  O_6
REMARK    4  A    between atoms: O_6  and  C_7
REMARK    5  A    between atoms: C_11  and  C_12
REMARK    6  A    between atoms: C_12  and  C_13
REMARK    7  A    between atoms: C_13  and  C_14
REMARK                            x       y       z     vdW  Elec       q    Type
REMARK                         _______ _______ _______ _____ _____    ______ ____
ROOT
ATOM      1  C   LIG A   1      -9.303   2.658 130.564  0.00  0.00    +0.124 A 
ATOM      2  C   LIG A   1      -8.199   3.071 129.813  0.00  0.00    +0.095 A 
ATOM      3  C   LIG A   1      -8.123   4.362 129.281  0.00  0.00    +0.166 A 
ATOM      4  C   LIG A   1      -9.189   5.237 129.506  0.00  0.00    +0.181 A 
ATOM      5  O   LIG A   1      -9.182   6.521 128.925  0.00  0.00    -0.418 OA
ATOM      6  C   LIG A   1     -10.216   7.435 129.088  0.00  0.00    +0.341 A 
ATOM      7  C   LIG A   1     -11.350   7.014 129.942  0.00  0.00    +0.045 A 
ATOM      8  C   LIG A   1     -11.371   5.798 130.506  0.00  0.00    +0.022 A 
ATOM      9  O   LIG A   1     -10.175   8.549 128.582  0.00  0.00    -0.245 OA
ATOM     10  C   LIG A   1     -10.289   4.850 130.277  0.00  0.00    +0.025 A 
ATOM     11  C   LIG A   1     -10.342   3.556 130.809  0.00  0.00    +0.057 A 
ENDROOT
BRANCH   1  13
ATOM     12  C   LIG A   1      -7.965   0.749 130.977  0.00  0.00    +0.277 C 
ATOM     13  O   LIG A   1      -9.243   1.373 131.029  0.00  0.00    -0.495 OA
ENDBRANCH   1  13
BRANCH   3  14
ATOM     14  O   LIG A   1      -6.999   4.588 128.536  0.00  0.00    -0.491 OA
ATOM     15  C   LIG A   1      -5.809   3.922 128.942  0.00  0.00    +0.277 C 
ENDBRANCH   3  14
BRANCH   7  16
ATOM     16  C   LIG A   1     -12.445   8.024 130.132  0.00  0.00    +0.116 C 
BRANCH  16  17
ATOM     17  C   LIG A   1     -13.221   8.235 128.841  0.00  0.00    +0.135 C 
ATOM     18  C   LIG A   1     -13.740   7.001 128.150  0.00  0.00    +0.086 C 
ATOM     19  O   LIG A   1     -13.403   9.352 128.353  0.00  0.00    -0.297 OA
ENDBRANCH  16  17
ENDBRANCH   7  16
TORSDOF 4
ENDMDL
MODEL 8
REMARK VINA RESULT:      -6.0      7.572     10.482
REMARK  Name = NuBBE_250
REMARK  7 active torsions:
REMARK  status: ('A' for Active; 'I' for Inactive)
REMARK    1  A    between atoms: C_1  and  O_2
REMARK    2  A    between atoms: O_2  and  C_3
REMARK    3  A    between atoms: C_5  and  O_6
REMARK    4  A    between atoms: O_6  and  C_7
REMARK    5  A    between atoms: C_11  and  C_12
REMARK    6  A    between atoms: C_12  and  C_13
REMARK    7  A    between atoms: C_13  and  C_14
REMARK                            x       y       z     vdW  Elec       q    Type
REMARK                         _______ _______ _______ _____ _____    ______ ____
ROOT
ATOM      1  C   LIG A   1      -6.587   3.635 121.518  0.00  0.00    +0.124 A 
ATOM      2  C   LIG A   1      -7.822   3.161 121.968  0.00  0.00    +0.095 A 
ATOM      3  C   LIG A   1      -8.102   3.042 123.333  0.00  0.00    +0.166 A 
ATOM      4  C   LIG A   1      -7.107   3.398 124.249  0.00  0.00    +0.181 A 
ATOM      5  O   LIG A   1      -7.325   3.222 125.630  0.00  0.00    -0.418 OA
ATOM      6  C   LIG A   1      -6.375   3.535 126.595  0.00  0.00    +0.341 A 
ATOM      7  C   LIG A   1      -5.096   4.101 126.112  0.00  0.00    +0.045 A 
ATOM      8  C   LIG A   1      -4.873   4.279 124.802  0.00  0.00    +0.022 A 
ATOM      9  O   LIG A   1      -6.598   3.385 127.789  0.00  0.00    -0.245 OA
ATOM     10  C   LIG A   1      -5.876   3.899 123.816  0.00  0.00    +0.025 A 
ATOM     11  C   LIG A   1      -5.619   4.020 122.445  0.00  0.00    +0.057 A 
ENDROOT
BRANCH   1  13
ATOM     12  C   LIG A   1      -7.530   4.313 119.454  0.00  0.00    +0.277 C 
ATOM     13  O   LIG A   1      -6.452   3.707 120.159  0.00  0.00    -0.495 OA
ENDBRANCH   1  13
BRANCH   3  14
ATOM     14  O   LIG A   1      -9.337   2.520 123.602  0.00  0.00    -0.491 OA
ATOM     15  C   LIG A   1      -9.569   1.172 123.209  0.00  0.00    +0.277 C 
ENDBRANCH   3  14
BRANCH   7  16
ATOM     16  C   LIG A   1      -4.091   4.461 127.170  0.00  0.00    +0.116 C 
BRANCH  16  17
ATOM     17  C   LIG A   1      -3.187   3.279 127.486  0.00  0.00    +0.135 C 
ATOM     18  C   LIG A   1      -1.932   3.143 126.664  0.00  0.00    +0.086 C 
ATOM     19  O   LIG A   1      -3.465   2.445 128.350  0.00  0.00    -0.297 OA
ENDBRANCH  16  17
ENDBRANCH   7  16
TORSDOF 4
ENDMDL
MODEL 9
REMARK VINA RESULT:      -6.0      2.529      3.813
REMARK  Name = NuBBE_250
REMARK  7 active torsions:
REMARK  status: ('A' for Active; 'I' for Inactive)
REMARK    1  A    between atoms: C_1  and  O_2
REMARK    2  A    between atoms: O_2  and  C_3
REMARK    3  A    between atoms: C_5  and  O_6
REMARK    4  A    between atoms: O_6  and  C_7
REMARK    5  A    between atoms: C_11  and  C_12
REMARK    6  A    between atoms: C_12  and  C_13
REMARK    7  A    between atoms: C_13  and  C_14
REMARK                            x       y       z     vdW  Elec       q    Type
REMARK                         _______ _______ _______ _____ _____    ______ ____
ROOT
ATOM      1  C   LIG A   1      -7.655   5.162 134.795  0.00  0.00    +0.124 A 
ATOM      2  C   LIG A   1      -7.579   3.785 134.569  0.00  0.00    +0.095 A 
ATOM      3  C   LIG A   1      -8.234   3.188 133.487  0.00  0.00    +0.166 A 
ATOM      4  C   LIG A   1      -8.985   4.002 132.634  0.00  0.00    +0.181 A 
ATOM      5  O   LIG A   1      -9.718   3.428 131.576  0.00  0.00    -0.418 OA
ATOM      6  C   LIG A   1     -10.501   4.173 130.702  0.00  0.00    +0.341 A 
ATOM      7  C   LIG A   1     -10.519   5.639 130.907  0.00  0.00    +0.045 A 
ATOM      8  C   LIG A   1      -9.824   6.202 131.905  0.00  0.00    +0.022 A 
ATOM      9  O   LIG A   1     -11.116   3.647 129.783  0.00  0.00    -0.245 OA
ATOM     10  C   LIG A   1      -9.049   5.385 132.829  0.00  0.00    +0.025 A 
ATOM     11  C   LIG A   1      -8.378   5.964 133.913  0.00  0.00    +0.057 A 
ENDROOT
BRANCH   1  13
ATOM     12  C   LIG A   1      -7.692   6.415 136.803  0.00  0.00    +0.277 C 
ATOM     13  O   LIG A   1      -6.960   5.611 135.885  0.00  0.00    -0.495 OA
ENDBRANCH   1  13
BRANCH   3  14
ATOM     14  O   LIG A   1      -8.096   1.828 133.437  0.00  0.00    -0.491 OA
ATOM     15  C   LIG A   1      -7.026   1.316 132.651  0.00  0.00    +0.277 C 
ENDBRANCH   3  14
BRANCH   7  16
ATOM     16  C   LIG A   1     -11.347   6.432 129.936  0.00  0.00    +0.116 C 
BRANCH  16  17
ATOM     17  C   LIG A   1     -10.491   6.961 128.795  0.00  0.00    +0.135 C 
ATOM     18  C   LIG A   1     -10.543   8.444 128.537  0.00  0.00    +0.086 C 
ATOM     19  O   LIG A   1      -9.803   6.223 128.087  0.00  0.00    -0.297 OA
ENDBRANCH  16  17
ENDBRANCH   7  16
TORSDOF 4
ENDMDL
