MODEL 1
REMARK VINA RESULT:      -7.2      0.000      0.000
REMARK  Name = NuBBE_356
REMARK  5 active torsions:
REMARK  status: ('A' for Active; 'I' for Inactive)
REMARK    1  A    between atoms: C_2  and  C_3
REMARK    2  A    between atoms: C_2  and  O_16
REMARK    3  A    between atoms: C_10  and  C_11
REMARK    4  A    between atoms: C_10  and  C_12
REMARK    5  A    between atoms: O_16  and  C_17
REMARK                            x       y       z     vdW  Elec       q    Type
REMARK                         _______ _______ _______ _____ _____    ______ ____
ROOT
ATOM      1  C   LIG A   1     -11.218   7.729 129.666  0.00  0.00    +0.060 A 
ATOM      2  C   LIG A   1     -12.137   7.148 130.553  0.00  0.00    +0.018 A 
ATOM      3  C   LIG A   1     -11.684   6.389 131.635  0.00  0.00    +0.047 A 
ATOM      4  C   LIG A   1     -10.318   6.199 131.833  0.00  0.00    +0.132 A 
ATOM      5  C   LIG A   1      -9.405   6.788 130.961  0.00  0.00    +0.060 A 
ATOM      6  C   LIG A   1      -7.966   6.626 131.229  0.00  0.00    +0.170 C 
ATOM      7  C   LIG A   1      -7.599   5.966 132.527  0.00  0.00    +0.127 C 
ATOM      8  C   LIG A   1      -8.633   4.905 132.907  0.00  0.00    +0.112 C 
ATOM      9  C   LIG A   1      -8.567   3.667 131.998  0.00  0.00    +0.056 C 
ATOM     10  C   LIG A   1      -8.368   4.458 134.353  0.00  0.00    +0.056 C 
ATOM     11  O   LIG A   1      -9.971   5.434 132.912  0.00  0.00    -0.485 OA
ATOM     12  O   LIG A   1      -7.125   7.079 130.459  0.00  0.00    -0.292 OA
ATOM     13  C   LIG A   1      -9.846   7.545 129.869  0.00  0.00    +0.030 A 
ENDROOT
BRANCH   1  15
ATOM     14  O   LIG A   1     -12.745   9.089 128.432  0.00  0.00    -0.245 OA
ATOM     15  C   LIG A   1     -11.667   8.519 128.493  0.00  0.00    +0.339 C 
BRANCH  15  16
ATOM     16  O   LIG A   1     -10.720   8.485 127.524  0.00  0.00    -0.465 OA
ATOM     17  C   LIG A   1     -11.043   7.649 126.412  0.00  0.00    +0.280 C 
ENDBRANCH  15  16
ENDBRANCH   1  15
TORSDOF 2
ENDMDL
MODEL 2
REMARK VINA RESULT:      -6.3      8.798      9.821
REMARK  Name = NuBBE_356
REMARK  5 active torsions:
REMARK  status: ('A' for Active; 'I' for Inactive)
REMARK    1  A    between atoms: C_2  and  C_3
REMARK    2  A    between atoms: C_2  and  O_16
REMARK    3  A    between atoms: C_10  and  C_11
REMARK    4  A    between atoms: C_10  and  C_12
REMARK    5  A    between atoms: O_16  and  C_17
REMARK                            x       y       z     vdW  Elec       q    Type
REMARK                         _______ _______ _______ _____ _____    ______ ____
ROOT
ATOM      1  C   LIG A   1      -8.344   1.928 123.198  0.00  0.00    +0.060 A 
ATOM      2  C   LIG A   1      -9.538   1.931 123.935  0.00  0.00    +0.018 A 
ATOM      3  C   LIG A   1      -9.868   0.838 124.741  0.00  0.00    +0.047 A 
ATOM      4  C   LIG A   1      -9.017  -0.263 124.810  0.00  0.00    +0.132 A 
ATOM      5  C   LIG A   1      -7.825  -0.260 124.089  0.00  0.00    +0.060 A 
ATOM      6  C   LIG A   1      -6.911  -1.407 124.229  0.00  0.00    +0.170 C 
ATOM      7  C   LIG A   1      -7.272  -2.423 125.275  0.00  0.00    +0.127 C 
ATOM      8  C   LIG A   1      -8.790  -2.558 125.398  0.00  0.00    +0.112 C 
ATOM      9  C   LIG A   1      -9.420  -3.254 124.181  0.00  0.00    +0.056 C 
ATOM     10  C   LIG A   1      -9.108  -3.391 126.650  0.00  0.00    +0.056 C 
ATOM     11  O   LIG A   1      -9.428  -1.287 125.616  0.00  0.00    -0.485 OA
ATOM     12  O   LIG A   1      -5.877  -1.474 123.573  0.00  0.00    -0.292 OA
ATOM     13  C   LIG A   1      -7.485   0.825 123.273  0.00  0.00    +0.030 A 
ENDROOT
BRANCH   1  15
ATOM     14  O   LIG A   1      -8.690   3.473 121.410  0.00  0.00    -0.245 OA
ATOM     15  C   LIG A   1      -7.977   3.060 122.313  0.00  0.00    +0.339 C 
BRANCH  15  16
ATOM     16  O   LIG A   1      -6.752   3.531 122.649  0.00  0.00    -0.465 OA
ATOM     17  C   LIG A   1      -5.893   3.789 121.536  0.00  0.00    +0.280 C 
ENDBRANCH  15  16
ENDBRANCH   1  15
TORSDOF 2
ENDMDL
MODEL 3
REMARK VINA RESULT:      -6.3      7.888      9.279
REMARK  Name = NuBBE_356
REMARK  5 active torsions:
REMARK  status: ('A' for Active; 'I' for Inactive)
REMARK    1  A    between atoms: C_2  and  C_3
REMARK    2  A    between atoms: C_2  and  O_16
REMARK    3  A    between atoms: C_10  and  C_11
REMARK    4  A    between atoms: C_10  and  C_12
REMARK    5  A    between atoms: O_16  and  C_17
REMARK                            x       y       z     vdW  Elec       q    Type
REMARK                         _______ _______ _______ _____ _____    ______ ____
ROOT
ATOM      1  C   LIG A   1      -8.498   2.674 124.895  0.00  0.00    +0.060 A 
ATOM      2  C   LIG A   1      -8.995   2.517 123.592  0.00  0.00    +0.018 A 
ATOM      3  C   LIG A   1      -9.303   1.244 123.107  0.00  0.00    +0.047 A 
ATOM      4  C   LIG A   1      -9.111   0.123 123.912  0.00  0.00    +0.132 A 
ATOM      5  C   LIG A   1      -8.632   0.280 125.211  0.00  0.00    +0.060 A 
ATOM      6  C   LIG A   1      -8.498  -0.913 126.065  0.00  0.00    +0.170 C 
ATOM      7  C   LIG A   1      -9.050  -2.195 125.510  0.00  0.00    +0.127 C 
ATOM      8  C   LIG A   1      -8.881  -2.245 123.990  0.00  0.00    +0.112 C 
ATOM      9  C   LIG A   1      -7.415  -2.428 123.567  0.00  0.00    +0.056 C 
ATOM     10  C   LIG A   1      -9.694  -3.430 123.445  0.00  0.00    +0.056 C 
ATOM     11  O   LIG A   1      -9.431  -1.080 123.349  0.00  0.00    -0.485 OA
ATOM     12  O   LIG A   1      -8.029  -0.832 127.195  0.00  0.00    -0.292 OA
ATOM     13  C   LIG A   1      -8.313   1.549 125.707  0.00  0.00    +0.030 A 
ENDROOT
BRANCH   1  15
ATOM     14  O   LIG A   1      -8.943   4.911 125.605  0.00  0.00    -0.245 OA
ATOM     15  C   LIG A   1      -8.137   4.010 125.431  0.00  0.00    +0.339 C 
BRANCH  15  16
ATOM     16  O   LIG A   1      -6.804   4.067 125.666  0.00  0.00    -0.465 OA
ATOM     17  C   LIG A   1      -6.045   4.673 124.619  0.00  0.00    +0.280 C 
ENDBRANCH  15  16
ENDBRANCH   1  15
TORSDOF 2
ENDMDL
MODEL 4
REMARK VINA RESULT:      -6.2      1.704      2.755
REMARK  Name = NuBBE_356
REMARK  5 active torsions:
REMARK  status: ('A' for Active; 'I' for Inactive)
REMARK    1  A    between atoms: C_2  and  C_3
REMARK    2  A    between atoms: C_2  and  O_16
REMARK    3  A    between atoms: C_10  and  C_11
REMARK    4  A    between atoms: C_10  and  C_12
REMARK    5  A    between atoms: O_16  and  C_17
REMARK                            x       y       z     vdW  Elec       q    Type
REMARK                         _______ _______ _______ _____ _____    ______ ____
ROOT
ATOM      1  C   LIG A   1     -10.171   7.182 129.747  0.00  0.00    +0.060 A 
ATOM      2  C   LIG A   1      -8.911   7.495 130.280  0.00  0.00    +0.018 A 
ATOM      3  C   LIG A   1      -8.170   6.518 130.949  0.00  0.00    +0.047 A 
ATOM      4  C   LIG A   1      -8.681   5.230 131.097  0.00  0.00    +0.132 A 
ATOM      5  C   LIG A   1      -9.925   4.915 130.555  0.00  0.00    +0.060 A 
ATOM      6  C   LIG A   1     -10.416   3.531 130.667  0.00  0.00    +0.170 C 
ATOM      7  C   LIG A   1      -9.450   2.524 131.223  0.00  0.00    +0.127 C 
ATOM      8  C   LIG A   1      -8.543   3.166 132.274  0.00  0.00    +0.112 C 
ATOM      9  C   LIG A   1      -9.293   3.500 133.574  0.00  0.00    +0.056 C 
ATOM     10  C   LIG A   1      -7.409   2.185 132.609  0.00  0.00    +0.056 C 
ATOM     11  O   LIG A   1      -7.889   4.346 131.773  0.00  0.00    -0.485 OA
ATOM     12  O   LIG A   1     -11.528   3.219 130.255  0.00  0.00    -0.292 OA
ATOM     13  C   LIG A   1     -10.681   5.886 129.888  0.00  0.00    +0.030 A 
ENDROOT
BRANCH   1  15
ATOM     14  O   LIG A   1     -12.032   8.660 129.509  0.00  0.00    -0.245 OA
ATOM     15  C   LIG A   1     -10.994   8.203 129.054  0.00  0.00    +0.339 C 
BRANCH  15  16
ATOM     16  O   LIG A   1     -10.433   8.518 127.862  0.00  0.00    -0.465 OA
ATOM     17  C   LIG A   1     -10.969   7.801 126.749  0.00  0.00    +0.280 C 
ENDBRANCH  15  16
ENDBRANCH   1  15
TORSDOF 2
ENDMDL
MODEL 5
REMARK VINA RESULT:      -6.1      2.197      5.669
REMARK  Name = NuBBE_356
REMARK  5 active torsions:
REMARK  status: ('A' for Active; 'I' for Inactive)
REMARK    1  A    between atoms: C_2  and  C_3
REMARK    2  A    between atoms: C_2  and  O_16
REMARK    3  A    between atoms: C_10  and  C_11
REMARK    4  A    between atoms: C_10  and  C_12
REMARK    5  A    between atoms: O_16  and  C_17
REMARK                            x       y       z     vdW  Elec       q    Type
REMARK                         _______ _______ _______ _____ _____    ______ ____
ROOT
ATOM      1  C   LIG A   1      -8.705   3.873 131.217  0.00  0.00    +0.060 A 
ATOM      2  C   LIG A   1      -9.852   3.082 131.049  0.00  0.00    +0.018 A 
ATOM      3  C   LIG A   1     -10.997   3.624 130.461  0.00  0.00    +0.047 A 
ATOM      4  C   LIG A   1     -11.008   4.955 130.045  0.00  0.00    +0.132 A 
ATOM      5  C   LIG A   1      -9.864   5.735 130.198  0.00  0.00    +0.060 A 
ATOM      6  C   LIG A   1      -9.878   7.118 129.692  0.00  0.00    +0.170 C 
ATOM      7  C   LIG A   1     -11.086   7.525 128.899  0.00  0.00    +0.127 C 
ATOM      8  C   LIG A   1     -12.341   6.826 129.424  0.00  0.00    +0.112 C 
ATOM      9  C   LIG A   1     -12.782   7.361 130.797  0.00  0.00    +0.056 C 
ATOM     10  C   LIG A   1     -13.486   7.056 128.425  0.00  0.00    +0.056 C 
ATOM     11  O   LIG A   1     -12.175   5.398 129.489  0.00  0.00    -0.485 OA
ATOM     12  O   LIG A   1      -8.915   7.860 129.854  0.00  0.00    -0.292 OA
ATOM     13  C   LIG A   1      -8.712   5.206 130.792  0.00  0.00    +0.030 A 
ENDROOT
BRANCH   1  15
ATOM     14  O   LIG A   1      -6.884   2.346 131.464  0.00  0.00    -0.245 OA
ATOM     15  C   LIG A   1      -7.482   3.335 131.862  0.00  0.00    +0.339 C 
BRANCH  15  16
ATOM     16  O   LIG A   1      -7.162   4.086 132.943  0.00  0.00    -0.465 OA
ATOM     17  C   LIG A   1      -7.858   3.729 134.138  0.00  0.00    +0.280 C 
ENDBRANCH  15  16
ENDBRANCH   1  15
TORSDOF 2
ENDMDL
MODEL 6
REMARK VINA RESULT:      -6.1      9.807     10.356
REMARK  Name = NuBBE_356
REMARK  5 active torsions:
REMARK  status: ('A' for Active; 'I' for Inactive)
REMARK    1  A    between atoms: C_2  and  C_3
REMARK    2  A    between atoms: C_2  and  O_16
REMARK    3  A    between atoms: C_10  and  C_11
REMARK    4  A    between atoms: C_10  and  C_12
REMARK    5  A    between atoms: O_16  and  C_17
REMARK                            x       y       z     vdW  Elec       q    Type
REMARK                         _______ _______ _______ _____ _____    ______ ____
ROOT
ATOM      1  C   LIG A   1      -8.069  -2.753 126.338  0.00  0.00    +0.060 A 
ATOM      2  C   LIG A   1      -9.013  -3.545 127.011  0.00  0.00    +0.018 A 
ATOM      3  C   LIG A   1      -8.888  -3.772 128.384  0.00  0.00    +0.047 A 
ATOM      4  C   LIG A   1      -7.821  -3.218 129.090  0.00  0.00    +0.132 A 
ATOM      5  C   LIG A   1      -6.893  -2.420 128.425  0.00  0.00    +0.060 A 
ATOM      6  C   LIG A   1      -5.812  -1.793 129.205  0.00  0.00    +0.170 C 
ATOM      7  C   LIG A   1      -5.896  -1.940 130.698  0.00  0.00    +0.127 C 
ATOM      8  C   LIG A   1      -6.513  -3.287 131.077  0.00  0.00    +0.112 C 
ATOM      9  C   LIG A   1      -5.571  -4.467 130.787  0.00  0.00    +0.056 C 
ATOM     10  C   LIG A   1      -6.827  -3.277 132.581  0.00  0.00    +0.056 C 
ATOM     11  O   LIG A   1      -7.778  -3.502 130.426  0.00  0.00    -0.485 OA
ATOM     12  O   LIG A   1      -4.940  -1.128 128.656  0.00  0.00    -0.292 OA
ATOM     13  C   LIG A   1      -7.003  -2.191 127.049  0.00  0.00    +0.030 A 
ENDROOT
BRANCH   1  15
ATOM     14  O   LIG A   1      -7.191  -2.285 124.167  0.00  0.00    -0.245 OA
ATOM     15  C   LIG A   1      -8.159  -2.515 124.877  0.00  0.00    +0.339 C 
BRANCH  15  16
ATOM     16  O   LIG A   1      -9.452  -2.574 124.478  0.00  0.00    -0.465 OA
ATOM     17  C   LIG A   1      -9.678  -3.386 123.324  0.00  0.00    +0.280 C 
ENDBRANCH  15  16
ENDBRANCH   1  15
TORSDOF 2
ENDMDL
MODEL 7
REMARK VINA RESULT:      -6.0      3.278      5.029
REMARK  Name = NuBBE_356
REMARK  5 active torsions:
REMARK  status: ('A' for Active; 'I' for Inactive)
REMARK    1  A    between atoms: C_2  and  C_3
REMARK    2  A    between atoms: C_2  and  O_16
REMARK    3  A    between atoms: C_10  and  C_11
REMARK    4  A    between atoms: C_10  and  C_12
REMARK    5  A    between atoms: O_16  and  C_17
REMARK                            x       y       z     vdW  Elec       q    Type
REMARK                         _______ _______ _______ _____ _____    ______ ____
ROOT
ATOM      1  C   LIG A   1      -7.737   6.583 131.526  0.00  0.00    +0.060 A 
ATOM      2  C   LIG A   1      -7.509   5.844 132.697  0.00  0.00    +0.018 A 
ATOM      3  C   LIG A   1      -6.204   5.624 133.145  0.00  0.00    +0.047 A 
ATOM      4  C   LIG A   1      -5.123   6.131 132.427  0.00  0.00    +0.132 A 
ATOM      5  C   LIG A   1      -5.350   6.877 131.273  0.00  0.00    +0.060 A 
ATOM      6  C   LIG A   1      -4.194   7.457 130.567  0.00  0.00    +0.170 C 
ATOM      7  C   LIG A   1      -2.863   7.329 131.250  0.00  0.00    +0.127 C 
ATOM      8  C   LIG A   1      -2.779   6.018 132.032  0.00  0.00    +0.112 C 
ATOM      9  C   LIG A   1      -2.679   4.790 131.112  0.00  0.00    +0.056 C 
ATOM     10  C   LIG A   1      -1.527   6.057 132.923  0.00  0.00    +0.056 C 
ATOM     11  O   LIG A   1      -3.885   5.858 132.938  0.00  0.00    -0.485 OA
ATOM     12  O   LIG A   1      -4.340   8.074 129.517  0.00  0.00    -0.292 OA
ATOM     13  C   LIG A   1      -6.652   7.098 130.809  0.00  0.00    +0.030 A 
ENDROOT
BRANCH   1  15
ATOM     14  O   LIG A   1      -9.351   7.184 129.871  0.00  0.00    -0.245 OA
ATOM     15  C   LIG A   1      -9.109   6.811 131.009  0.00  0.00    +0.339 C 
BRANCH  15  16
ATOM     16  O   LIG A   1     -10.016   6.564 131.984  0.00  0.00    -0.465 OA
ATOM     17  C   LIG A   1     -11.366   6.469 131.524  0.00  0.00    +0.280 C 
ENDBRANCH  15  16
ENDBRANCH   1  15
TORSDOF 2
ENDMDL
MODEL 8
REMARK VINA RESULT:      -5.9      1.778      3.041
REMARK  Name = NuBBE_356
REMARK  5 active torsions:
REMARK  status: ('A' for Active; 'I' for Inactive)
REMARK    1  A    between atoms: C_2  and  C_3
REMARK    2  A    between atoms: C_2  and  O_16
REMARK    3  A    between atoms: C_10  and  C_11
REMARK    4  A    between atoms: C_10  and  C_12
REMARK    5  A    between atoms: O_16  and  C_17
REMARK                            x       y       z     vdW  Elec       q    Type
REMARK                         _______ _______ _______ _____ _____    ______ ____
ROOT
ATOM      1  C   LIG A   1     -11.335   6.854 130.437  0.00  0.00    +0.060 A 
ATOM      2  C   LIG A   1     -10.821   6.551 129.166  0.00  0.00    +0.018 A 
ATOM      3  C   LIG A   1      -9.520   6.059 129.034  0.00  0.00    +0.047 A 
ATOM      4  C   LIG A   1      -8.724   5.874 130.163  0.00  0.00    +0.132 A 
ATOM      5  C   LIG A   1      -9.239   6.161 131.426  0.00  0.00    +0.060 A 
ATOM      6  C   LIG A   1      -8.402   5.896 132.608  0.00  0.00    +0.170 C 
ATOM      7  C   LIG A   1      -7.106   5.179 132.360  0.00  0.00    +0.127 C 
ATOM      8  C   LIG A   1      -6.518   5.574 131.004  0.00  0.00    +0.112 C 
ATOM      9  C   LIG A   1      -5.984   7.016 130.993  0.00  0.00    +0.056 C 
ATOM     10  C   LIG A   1      -5.355   4.625 130.678  0.00  0.00    +0.056 C 
ATOM     11  O   LIG A   1      -7.464   5.398 129.935  0.00  0.00    -0.485 OA
ATOM     12  O   LIG A   1      -8.790   6.184 133.735  0.00  0.00    -0.292 OA
ATOM     13  C   LIG A   1     -10.538   6.661 131.571  0.00  0.00    +0.030 A 
ENDROOT
BRANCH   1  15
ATOM     14  O   LIG A   1     -13.367   7.260 131.623  0.00  0.00    -0.245 OA
ATOM     15  C   LIG A   1     -12.702   7.403 130.609  0.00  0.00    +0.339 C 
BRANCH  15  16
ATOM     16  O   LIG A   1     -13.085   8.050 129.482  0.00  0.00    -0.465 OA
ATOM     17  C   LIG A   1     -12.940   9.470 129.539  0.00  0.00    +0.280 C 
ENDBRANCH  15  16
ENDBRANCH   1  15
TORSDOF 2
ENDMDL
MODEL 9
REMARK VINA RESULT:      -5.7      2.331      3.327
REMARK  Name = NuBBE_356
REMARK  5 active torsions:
REMARK  status: ('A' for Active; 'I' for Inactive)
REMARK    1  A    between atoms: C_2  and  C_3
REMARK    2  A    between atoms: C_2  and  O_16
REMARK    3  A    between atoms: C_10  and  C_11
REMARK    4  A    between atoms: C_10  and  C_12
REMARK    5  A    between atoms: O_16  and  C_17
REMARK                            x       y       z     vdW  Elec       q    Type
REMARK                         _______ _______ _______ _____ _____    ______ ____
ROOT
ATOM      1  C   LIG A   1      -9.365   6.508 131.444  0.00  0.00    +0.060 A 
ATOM      2  C   LIG A   1      -9.438   5.865 132.690  0.00  0.00    +0.018 A 
ATOM      3  C   LIG A   1      -8.269   5.557 133.389  0.00  0.00    +0.047 A 
ATOM      4  C   LIG A   1      -7.025   5.879 132.850  0.00  0.00    +0.132 A 
ATOM      5  C   LIG A   1      -6.953   6.531 131.621  0.00  0.00    +0.060 A 
ATOM      6  C   LIG A   1      -5.630   6.919 131.102  0.00  0.00    +0.170 C 
ATOM      7  C   LIG A   1      -4.466   6.721 132.030  0.00  0.00    +0.127 C 
ATOM      8  C   LIG A   1      -4.678   5.488 132.910  0.00  0.00    +0.112 C 
ATOM      9  C   LIG A   1      -4.562   4.174 132.120  0.00  0.00    +0.056 C 
ATOM     10  C   LIG A   1      -3.609   5.484 134.014  0.00  0.00    +0.056 C 
ATOM     11  O   LIG A   1      -5.938   5.531 133.602  0.00  0.00    -0.485 OA
ATOM     12  O   LIG A   1      -5.513   7.444 130.000  0.00  0.00    -0.292 OA
ATOM     13  C   LIG A   1      -8.116   6.839 130.906  0.00  0.00    +0.030 A 
ENDROOT
BRANCH   1  15
ATOM     14  O   LIG A   1     -11.680   6.328 130.885  0.00  0.00    -0.245 OA
ATOM     15  C   LIG A   1     -10.586   6.825 130.664  0.00  0.00    +0.339 C 
BRANCH  15  16
ATOM     16  O   LIG A   1     -10.290   7.713 129.684  0.00  0.00    -0.465 OA
ATOM     17  C   LIG A   1     -11.429   8.237 128.998  0.00  0.00    +0.280 C 
ENDBRANCH  15  16
ENDBRANCH   1  15
TORSDOF 2
ENDMDL
