MODEL 1
REMARK VINA RESULT:      -8.1      0.000      0.000
REMARK  Name = NuBBE_1815
REMARK  6 active torsions:
REMARK  status: ('A' for Active; 'I' for Inactive)
REMARK    1  A    between atoms: C_6  and  O_7
REMARK    2  A    between atoms: O_7  and  C_8
REMARK    3  A    between atoms: C_22  and  O_23
REMARK    4  A    between atoms: O_23  and  C_24
REMARK    5  A    between atoms: C_25  and  O_26
REMARK    6  A    between atoms: O_26  and  C_27
REMARK                            x       y       z     vdW  Elec       q    Type
REMARK                         _______ _______ _______ _____ _____    ______ ____
ROOT
ATOM      1  O   LIG A   1      -9.649   2.417 131.153  0.00  0.00    -0.289 OA
ATOM      2  C   LIG A   1      -9.640   3.595 131.474  0.00  0.00    +0.199 C 
ATOM      3  C   LIG A   1      -8.950   4.042 132.699  0.00  0.00    +0.062 A 
ATOM      4  C   LIG A   1      -8.071   3.183 133.361  0.00  0.00    +0.019 A 
ATOM      5  C   LIG A   1      -7.374   3.638 134.482  0.00  0.00    +0.046 A 
ATOM      6  C   LIG A   1      -7.554   4.946 134.937  0.00  0.00    +0.124 A 
ATOM      7  C   LIG A   1      -8.465   5.785 134.287  0.00  0.00    +0.092 A 
ATOM      8  C   LIG A   1      -9.165   5.334 133.167  0.00  0.00    +0.136 A 
ATOM      9  O   LIG A   1     -10.016   6.231 132.584  0.00  0.00    -0.480 OA
ATOM     10  C   LIG A   1     -10.946   5.655 131.654  0.00  0.00    +0.240 C 
ATOM     11  C   LIG A   1     -10.301   4.686 130.664  0.00  0.00    +0.234 C 
ATOM     12  O   LIG A   1      -9.329   5.362 129.869  0.00  0.00    -0.360 OA
ATOM     13  C   LIG A   1      -9.942   6.306 128.980  0.00  0.00    +0.200 C 
ATOM     14  C   LIG A   1     -11.046   7.138 129.604  0.00  0.00    +0.030 A 
ATOM     15  C   LIG A   1     -11.537   6.814 130.887  0.00  0.00    +0.005 A 
ATOM     16  C   LIG A   1     -12.548   7.589 131.460  0.00  0.00    +0.011 A 
ATOM     17  C   LIG A   1     -13.102   8.650 130.749  0.00  0.00    +0.050 A 
ATOM     18  C   LIG A   1     -12.673   8.949 129.448  0.00  0.00    +0.162 A 
ATOM     19  C   LIG A   1     -11.617   8.209 128.883  0.00  0.00    +0.167 A 
ENDROOT
BRANCH   6  20
ATOM     20  O   LIG A   1      -6.931   5.487 136.028  0.00  0.00    -0.495 OA
ATOM     21  C   LIG A   1      -7.710   6.412 136.780  0.00  0.00    +0.277 C 
ENDBRANCH   6  20
BRANCH  18  22
ATOM     22  O   LIG A   1     -13.258   9.943 128.706  0.00  0.00    -0.491 OA
ATOM     23  C   LIG A   1     -13.752  11.054 129.452  0.00  0.00    +0.277 C 
ENDBRANCH  18  22
BRANCH  19  24
ATOM     24  O   LIG A   1     -11.152   8.345 127.597  0.00  0.00    -0.491 OA
ATOM     25  C   LIG A   1     -11.784   7.547 126.602  0.00  0.00    +0.277 C 
ENDBRANCH  19  24
TORSDOF 3
ENDMDL
MODEL 2
REMARK VINA RESULT:      -7.8      6.955     10.766
REMARK  Name = NuBBE_1815
REMARK  6 active torsions:
REMARK  status: ('A' for Active; 'I' for Inactive)
REMARK    1  A    between atoms: C_6  and  O_7
REMARK    2  A    between atoms: O_7  and  C_8
REMARK    3  A    between atoms: C_22  and  O_23
REMARK    4  A    between atoms: O_23  and  C_24
REMARK    5  A    between atoms: C_25  and  O_26
REMARK    6  A    between atoms: O_26  and  C_27
REMARK                            x       y       z     vdW  Elec       q    Type
REMARK                         _______ _______ _______ _____ _____    ______ ____
ROOT
ATOM      1  O   LIG A   1      -9.514   2.241 123.047  0.00  0.00    -0.289 OA
ATOM      2  C   LIG A   1      -8.448   2.793 123.279  0.00  0.00    +0.199 C 
ATOM      3  C   LIG A   1      -7.628   3.347 122.185  0.00  0.00    +0.062 A 
ATOM      4  C   LIG A   1      -8.172   3.498 120.909  0.00  0.00    +0.019 A 
ATOM      5  C   LIG A   1      -7.409   4.085 119.898  0.00  0.00    +0.046 A 
ATOM      6  C   LIG A   1      -6.108   4.519 120.163  0.00  0.00    +0.124 A 
ATOM      7  C   LIG A   1      -5.562   4.329 121.436  0.00  0.00    +0.092 A 
ATOM      8  C   LIG A   1      -6.321   3.742 122.449  0.00  0.00    +0.136 A 
ATOM      9  O   LIG A   1      -5.712   3.618 123.667  0.00  0.00    -0.480 OA
ATOM     10  C   LIG A   1      -6.381   2.737 124.583  0.00  0.00    +0.240 C 
ATOM     11  C   LIG A   1      -7.888   2.973 124.670  0.00  0.00    +0.234 C 
ATOM     12  O   LIG A   1      -8.157   4.293 125.139  0.00  0.00    -0.360 OA
ATOM     13  C   LIG A   1      -7.767   4.454 126.510  0.00  0.00    +0.200 C 
ATOM     14  C   LIG A   1      -6.426   3.838 126.862  0.00  0.00    +0.030 A 
ATOM     15  C   LIG A   1      -5.766   3.002 125.937  0.00  0.00    +0.005 A 
ATOM     16  C   LIG A   1      -4.528   2.445 126.263  0.00  0.00    +0.011 A 
ATOM     17  C   LIG A   1      -3.966   2.679 127.516  0.00  0.00    +0.050 A 
ATOM     18  C   LIG A   1      -4.634   3.455 128.473  0.00  0.00    +0.162 A 
ATOM     19  C   LIG A   1      -5.857   4.065 128.134  0.00  0.00    +0.167 A 
ENDROOT
BRANCH   6  20
ATOM     20  O   LIG A   1      -5.273   5.095 119.245  0.00  0.00    -0.495 OA
ATOM     21  C   LIG A   1      -5.906   5.940 118.289  0.00  0.00    +0.277 C 
ENDBRANCH   6  20
BRANCH  18  22
ATOM     22  O   LIG A   1      -4.131   3.634 129.736  0.00  0.00    -0.491 OA
ATOM     23  C   LIG A   1      -3.136   4.649 129.860  0.00  0.00    +0.277 C 
ENDBRANCH  18  22
BRANCH  19  24
ATOM     24  O   LIG A   1      -6.651   4.784 128.996  0.00  0.00    -0.491 OA
ATOM     25  C   LIG A   1      -7.389   4.038 129.956  0.00  0.00    +0.277 C 
ENDBRANCH  19  24
TORSDOF 3
ENDMDL
MODEL 3
REMARK VINA RESULT:      -7.3      2.354      7.109
REMARK  Name = NuBBE_1815
REMARK  6 active torsions:
REMARK  status: ('A' for Active; 'I' for Inactive)
REMARK    1  A    between atoms: C_6  and  O_7
REMARK    2  A    between atoms: O_7  and  C_8
REMARK    3  A    between atoms: C_22  and  O_23
REMARK    4  A    between atoms: O_23  and  C_24
REMARK    5  A    between atoms: C_25  and  O_26
REMARK    6  A    between atoms: O_26  and  C_27
REMARK                            x       y       z     vdW  Elec       q    Type
REMARK                         _______ _______ _______ _____ _____    ______ ____
ROOT
ATOM      1  O   LIG A   1     -11.293   3.484 130.186  0.00  0.00    -0.289 OA
ATOM      2  C   LIG A   1     -10.737   4.544 130.428  0.00  0.00    +0.199 C 
ATOM      3  C   LIG A   1     -11.291   5.821 129.941  0.00  0.00    +0.062 A 
ATOM      4  C   LIG A   1     -12.592   5.873 129.437  0.00  0.00    +0.019 A 
ATOM      5  C   LIG A   1     -13.131   7.098 129.040  0.00  0.00    +0.046 A 
ATOM      6  C   LIG A   1     -12.372   8.266 129.149  0.00  0.00    +0.124 A 
ATOM      7  C   LIG A   1     -11.058   8.196 129.621  0.00  0.00    +0.092 A 
ATOM      8  C   LIG A   1     -10.515   6.973 130.018  0.00  0.00    +0.136 A 
ATOM      9  O   LIG A   1      -9.231   7.004 130.488  0.00  0.00    -0.480 OA
ATOM     10  C   LIG A   1      -8.597   5.719 130.581  0.00  0.00    +0.240 C 
ATOM     11  C   LIG A   1      -9.469   4.653 131.243  0.00  0.00    +0.234 C 
ATOM     12  O   LIG A   1      -9.779   5.028 132.584  0.00  0.00    -0.360 OA
ATOM     13  C   LIG A   1      -8.615   5.000 133.421  0.00  0.00    +0.200 C 
ATOM     14  C   LIG A   1      -7.369   5.594 132.791  0.00  0.00    +0.030 A 
ATOM     15  C   LIG A   1      -7.359   5.928 131.420  0.00  0.00    +0.005 A 
ATOM     16  C   LIG A   1      -6.212   6.483 130.849  0.00  0.00    +0.011 A 
ATOM     17  C   LIG A   1      -5.067   6.664 131.618  0.00  0.00    +0.050 A 
ATOM     18  C   LIG A   1      -5.034   6.280 132.966  0.00  0.00    +0.162 A 
ATOM     19  C   LIG A   1      -6.202   5.771 133.566  0.00  0.00    +0.167 A 
ENDROOT
BRANCH   6  20
ATOM     20  O   LIG A   1     -12.798   9.513 128.779  0.00  0.00    -0.495 OA
ATOM     21  C   LIG A   1     -13.261  10.340 129.842  0.00  0.00    +0.277 C 
ENDBRANCH   6  20
BRANCH  18  22
ATOM     22  O   LIG A   1      -3.893   6.384 133.719  0.00  0.00    -0.491 OA
ATOM     23  C   LIG A   1      -3.018   7.451 133.362  0.00  0.00    +0.277 C 
ENDBRANCH  18  22
BRANCH  19  24
ATOM     24  O   LIG A   1      -6.289   5.288 134.850  0.00  0.00    -0.491 OA
ATOM     25  C   LIG A   1      -6.319   6.253 135.894  0.00  0.00    +0.277 C 
ENDBRANCH  19  24
TORSDOF 3
ENDMDL
MODEL 4
REMARK VINA RESULT:      -7.3      7.670     11.307
REMARK  Name = NuBBE_1815
REMARK  6 active torsions:
REMARK  status: ('A' for Active; 'I' for Inactive)
REMARK    1  A    between atoms: C_6  and  O_7
REMARK    2  A    between atoms: O_7  and  C_8
REMARK    3  A    between atoms: C_22  and  O_23
REMARK    4  A    between atoms: O_23  and  C_24
REMARK    5  A    between atoms: C_25  and  O_26
REMARK    6  A    between atoms: O_26  and  C_27
REMARK                            x       y       z     vdW  Elec       q    Type
REMARK                         _______ _______ _______ _____ _____    ______ ____
ROOT
ATOM      1  O   LIG A   1      -9.568  -0.479 124.728  0.00  0.00    -0.289 OA
ATOM      2  C   LIG A   1      -8.645  -0.916 125.398  0.00  0.00    +0.199 C 
ATOM      3  C   LIG A   1      -7.503  -1.598 124.762  0.00  0.00    +0.062 A 
ATOM      4  C   LIG A   1      -7.319  -1.516 123.381  0.00  0.00    +0.019 A 
ATOM      5  C   LIG A   1      -6.198  -2.111 122.796  0.00  0.00    +0.046 A 
ATOM      6  C   LIG A   1      -5.267  -2.782 123.591  0.00  0.00    +0.124 A 
ATOM      7  C   LIG A   1      -5.481  -2.889 124.969  0.00  0.00    +0.092 A 
ATOM      8  C   LIG A   1      -6.600  -2.297 125.556  0.00  0.00    +0.136 A 
ATOM      9  O   LIG A   1      -6.715  -2.434 126.912  0.00  0.00    -0.480 OA
ATOM     10  C   LIG A   1      -8.010  -2.105 127.438  0.00  0.00    +0.240 C 
ATOM     11  C   LIG A   1      -8.574  -0.790 126.902  0.00  0.00    +0.234 C 
ATOM     12  O   LIG A   1      -7.725   0.297 127.262  0.00  0.00    -0.360 OA
ATOM     13  C   LIG A   1      -7.748   0.537 128.677  0.00  0.00    +0.200 C 
ATOM     14  C   LIG A   1      -7.693  -0.716 129.531  0.00  0.00    +0.030 A 
ATOM     15  C   LIG A   1      -7.832  -1.987 128.934  0.00  0.00    +0.005 A 
ATOM     16  C   LIG A   1      -7.772  -3.136 129.723  0.00  0.00    +0.011 A 
ATOM     17  C   LIG A   1      -7.621  -3.028 131.103  0.00  0.00    +0.050 A 
ATOM     18  C   LIG A   1      -7.544  -1.774 131.724  0.00  0.00    +0.162 A 
ATOM     19  C   LIG A   1      -7.549  -0.610 130.931  0.00  0.00    +0.167 A 
ENDROOT
BRANCH   6  20
ATOM     20  O   LIG A   1      -4.144  -3.407 123.120  0.00  0.00    -0.495 OA
ATOM     21  C   LIG A   1      -4.004  -4.774 123.494  0.00  0.00    +0.277 C 
ENDBRANCH   6  20
BRANCH  18  22
ATOM     22  O   LIG A   1      -7.469  -1.647 133.087  0.00  0.00    -0.491 OA
ATOM     23  C   LIG A   1      -7.921  -2.775 133.834  0.00  0.00    +0.277 C 
ENDBRANCH  18  22
BRANCH  19  24
ATOM     24  O   LIG A   1      -7.558   0.677 131.411  0.00  0.00    -0.491 OA
ATOM     25  C   LIG A   1      -8.782   1.143 131.966  0.00  0.00    +0.277 C 
ENDBRANCH  19  24
TORSDOF 3
ENDMDL
MODEL 5
REMARK VINA RESULT:      -7.2      9.569     10.242
REMARK  Name = NuBBE_1815
REMARK  6 active torsions:
REMARK  status: ('A' for Active; 'I' for Inactive)
REMARK    1  A    between atoms: C_6  and  O_7
REMARK    2  A    between atoms: O_7  and  C_8
REMARK    3  A    between atoms: C_22  and  O_23
REMARK    4  A    between atoms: O_23  and  C_24
REMARK    5  A    between atoms: C_25  and  O_26
REMARK    6  A    between atoms: O_26  and  C_27
REMARK                            x       y       z     vdW  Elec       q    Type
REMARK                         _______ _______ _______ _____ _____    ______ ____
ROOT
ATOM      1  O   LIG A   1      -3.482  -3.776 131.058  0.00  0.00    -0.289 OA
ATOM      2  C   LIG A   1      -4.646  -3.414 130.979  0.00  0.00    +0.199 C 
ATOM      3  C   LIG A   1      -5.469  -3.235 132.190  0.00  0.00    +0.062 A 
ATOM      4  C   LIG A   1      -4.866  -3.209 133.448  0.00  0.00    +0.019 A 
ATOM      5  C   LIG A   1      -5.646  -2.974 134.583  0.00  0.00    +0.046 A 
ATOM      6  C   LIG A   1      -7.021  -2.765 134.457  0.00  0.00    +0.124 A 
ATOM      7  C   LIG A   1      -7.618  -2.831 133.195  0.00  0.00    +0.092 A 
ATOM      8  C   LIG A   1      -6.843  -3.066 132.059  0.00  0.00    +0.136 A 
ATOM      9  O   LIG A   1      -7.510  -3.091 130.865  0.00  0.00    -0.480 OA
ATOM     10  C   LIG A   1      -6.761  -3.645 129.773  0.00  0.00    +0.240 C 
ATOM     11  C   LIG A   1      -5.336  -3.104 129.671  0.00  0.00    +0.234 C 
ATOM     12  O   LIG A   1      -5.354  -1.695 129.449  0.00  0.00    -0.360 OA
ATOM     13  C   LIG A   1      -5.872  -1.374 128.150  0.00  0.00    +0.200 C 
ATOM     14  C   LIG A   1      -7.098  -2.170 127.744  0.00  0.00    +0.030 A 
ATOM     15  C   LIG A   1      -7.517  -3.271 128.520  0.00  0.00    +0.005 A 
ATOM     16  C   LIG A   1      -8.651  -3.994 128.145  0.00  0.00    +0.011 A 
ATOM     17  C   LIG A   1      -9.341  -3.658 126.984  0.00  0.00    +0.050 A 
ATOM     18  C   LIG A   1      -8.905  -2.608 126.164  0.00  0.00    +0.162 A 
ATOM     19  C   LIG A   1      -7.795  -1.838 126.561  0.00  0.00    +0.167 A 
ENDROOT
BRANCH   6  20
ATOM     20  O   LIG A   1      -7.876  -2.539 135.502  0.00  0.00    -0.495 OA
ATOM     21  C   LIG A   1      -8.398  -3.706 136.128  0.00  0.00    +0.277 C 
ENDBRANCH   6  20
BRANCH  18  22
ATOM     22  O   LIG A   1      -9.528  -2.310 124.980  0.00  0.00    -0.491 OA
ATOM     23  C   LIG A   1      -9.388  -3.287 123.950  0.00  0.00    +0.277 C 
ENDBRANCH  18  22
BRANCH  19  24
ATOM     24  O   LIG A   1      -7.218  -0.835 125.820  0.00  0.00    -0.491 OA
ATOM     25  C   LIG A   1      -6.368  -1.238 124.753  0.00  0.00    +0.277 C 
ENDBRANCH  19  24
TORSDOF 3
ENDMDL
MODEL 6
REMARK VINA RESULT:      -7.1      4.158      7.421
REMARK  Name = NuBBE_1815
REMARK  6 active torsions:
REMARK  status: ('A' for Active; 'I' for Inactive)
REMARK    1  A    between atoms: C_6  and  O_7
REMARK    2  A    between atoms: O_7  and  C_8
REMARK    3  A    between atoms: C_22  and  O_23
REMARK    4  A    between atoms: O_23  and  C_24
REMARK    5  A    between atoms: C_25  and  O_26
REMARK    6  A    between atoms: O_26  and  C_27
REMARK                            x       y       z     vdW  Elec       q    Type
REMARK                         _______ _______ _______ _____ _____    ______ ____
ROOT
ATOM      1  O   LIG A   1      -9.159   5.456 133.435  0.00  0.00    -0.289 OA
ATOM      2  C   LIG A   1      -8.898   5.695 132.266  0.00  0.00    +0.199 C 
ATOM      3  C   LIG A   1      -9.949   6.130 131.327  0.00  0.00    +0.062 A 
ATOM      4  C   LIG A   1     -11.192   6.541 131.811  0.00  0.00    +0.019 A 
ATOM      5  C   LIG A   1     -12.158   7.014 130.919  0.00  0.00    +0.046 A 
ATOM      6  C   LIG A   1     -11.879   7.076 129.552  0.00  0.00    +0.124 A 
ATOM      7  C   LIG A   1     -10.643   6.627 129.077  0.00  0.00    +0.092 A 
ATOM      8  C   LIG A   1      -9.676   6.153 129.964  0.00  0.00    +0.136 A 
ATOM      9  O   LIG A   1      -8.490   5.757 129.411  0.00  0.00    -0.480 OA
ATOM     10  C   LIG A   1      -7.651   4.987 130.285  0.00  0.00    +0.240 C 
ATOM     11  C   LIG A   1      -7.508   5.587 131.683  0.00  0.00    +0.234 C 
ATOM     12  O   LIG A   1      -6.906   6.878 131.610  0.00  0.00    -0.360 OA
ATOM     13  C   LIG A   1      -5.535   6.796 131.197  0.00  0.00    +0.200 C 
ATOM     14  C   LIG A   1      -5.274   5.829 130.057  0.00  0.00    +0.030 A 
ATOM     15  C   LIG A   1      -6.291   4.950 129.628  0.00  0.00    +0.005 A 
ATOM     16  C   LIG A   1      -6.048   4.069 128.573  0.00  0.00    +0.011 A 
ATOM     17  C   LIG A   1      -4.791   4.026 127.975  0.00  0.00    +0.050 A 
ATOM     18  C   LIG A   1      -3.748   4.846 128.427  0.00  0.00    +0.162 A 
ATOM     19  C   LIG A   1      -3.999   5.776 129.454  0.00  0.00    +0.167 A 
ENDROOT
BRANCH   6  20
ATOM     20  O   LIG A   1     -12.755   7.511 128.595  0.00  0.00    -0.495 OA
ATOM     21  C   LIG A   1     -12.923   8.923 128.517  0.00  0.00    +0.277 C 
ENDBRANCH   6  20
BRANCH  18  22
ATOM     22  O   LIG A   1      -2.485   4.765 127.900  0.00  0.00    -0.491 OA
ATOM     23  C   LIG A   1      -2.229   3.612 127.099  0.00  0.00    +0.277 C 
ENDBRANCH  18  22
BRANCH  19  24
ATOM     24  O   LIG A   1      -3.054   6.582 130.043  0.00  0.00    -0.491 OA
ATOM     25  C   LIG A   1      -2.171   5.960 130.968  0.00  0.00    +0.277 C 
ENDBRANCH  19  24
TORSDOF 3
ENDMDL
MODEL 7
REMARK VINA RESULT:      -7.0      3.109      7.688
REMARK  Name = NuBBE_1815
REMARK  6 active torsions:
REMARK  status: ('A' for Active; 'I' for Inactive)
REMARK    1  A    between atoms: C_6  and  O_7
REMARK    2  A    between atoms: O_7  and  C_8
REMARK    3  A    between atoms: C_22  and  O_23
REMARK    4  A    between atoms: O_23  and  C_24
REMARK    5  A    between atoms: C_25  and  O_26
REMARK    6  A    between atoms: O_26  and  C_27
REMARK                            x       y       z     vdW  Elec       q    Type
REMARK                         _______ _______ _______ _____ _____    ______ ____
ROOT
ATOM      1  O   LIG A   1      -7.292   6.815 130.589  0.00  0.00    -0.289 OA
ATOM      2  C   LIG A   1      -8.123   5.942 130.386  0.00  0.00    +0.199 C 
ATOM      3  C   LIG A   1      -9.534   6.283 130.128  0.00  0.00    +0.062 A 
ATOM      4  C   LIG A   1      -9.894   7.600 129.838  0.00  0.00    +0.019 A 
ATOM      5  C   LIG A   1     -11.223   7.901 129.531  0.00  0.00    +0.046 A 
ATOM      6  C   LIG A   1     -12.184   6.889 129.512  0.00  0.00    +0.124 A 
ATOM      7  C   LIG A   1     -11.818   5.580 129.840  0.00  0.00    +0.092 A 
ATOM      8  C   LIG A   1     -10.492   5.275 130.149  0.00  0.00    +0.136 A 
ATOM      9  O   LIG A   1     -10.222   3.965 130.434  0.00  0.00    -0.480 OA
ATOM     10  C   LIG A   1      -8.946   3.738 131.052  0.00  0.00    +0.240 C 
ATOM     11  C   LIG A   1      -7.794   4.467 130.364  0.00  0.00    +0.234 C 
ATOM     12  O   LIG A   1      -7.655   4.017 129.018  0.00  0.00    -0.360 OA
ATOM     13  C   LIG A   1      -7.202   2.657 128.962  0.00  0.00    +0.200 C 
ATOM     14  C   LIG A   1      -7.873   1.726 129.953  0.00  0.00    +0.030 A 
ATOM     15  C   LIG A   1      -8.703   2.250 130.967  0.00  0.00    +0.005 A 
ATOM     16  C   LIG A   1      -9.326   1.386 131.870  0.00  0.00    +0.011 A 
ATOM     17  C   LIG A   1      -9.092   0.016 131.800  0.00  0.00    +0.050 A 
ATOM     18  C   LIG A   1      -8.222  -0.520 130.840  0.00  0.00    +0.162 A 
ATOM     19  C   LIG A   1      -7.632   0.336 129.891  0.00  0.00    +0.167 A 
ENDROOT
BRANCH   6  20
ATOM     20  O   LIG A   1     -13.512   7.076 129.236  0.00  0.00    -0.495 OA
ATOM     21  C   LIG A   1     -13.833   7.224 127.856  0.00  0.00    +0.277 C 
ENDBRANCH   6  20
BRANCH  18  22
ATOM     22  O   LIG A   1      -7.923  -1.857 130.803  0.00  0.00    -0.491 OA
ATOM     23  C   LIG A   1      -7.349  -2.391 131.995  0.00  0.00    +0.277 C 
ENDBRANCH  18  22
BRANCH  19  24
ATOM     24  O   LIG A   1      -6.705  -0.042 128.949  0.00  0.00    -0.491 OA
ATOM     25  C   LIG A   1      -7.207  -0.688 127.785  0.00  0.00    +0.277 C 
ENDBRANCH  19  24
TORSDOF 3
ENDMDL
MODEL 8
REMARK VINA RESULT:      -6.9      4.400      6.897
REMARK  Name = NuBBE_1815
REMARK  6 active torsions:
REMARK  status: ('A' for Active; 'I' for Inactive)
REMARK    1  A    between atoms: C_6  and  O_7
REMARK    2  A    between atoms: O_7  and  C_8
REMARK    3  A    between atoms: C_22  and  O_23
REMARK    4  A    between atoms: O_23  and  C_24
REMARK    5  A    between atoms: C_25  and  O_26
REMARK    6  A    between atoms: O_26  and  C_27
REMARK                            x       y       z     vdW  Elec       q    Type
REMARK                         _______ _______ _______ _____ _____    ______ ____
ROOT
ATOM      1  O   LIG A   1      -6.576   4.199 132.065  0.00  0.00    -0.289 OA
ATOM      2  C   LIG A   1      -7.356   4.203 131.125  0.00  0.00    +0.199 C 
ATOM      3  C   LIG A   1      -8.706   4.781 131.261  0.00  0.00    +0.062 A 
ATOM      4  C   LIG A   1      -9.020   5.573 132.367  0.00  0.00    +0.019 A 
ATOM      5  C   LIG A   1     -10.280   6.169 132.453  0.00  0.00    +0.046 A 
ATOM      6  C   LIG A   1     -11.219   5.974 131.438  0.00  0.00    +0.124 A 
ATOM      7  C   LIG A   1     -10.905   5.148 130.355  0.00  0.00    +0.092 A 
ATOM      8  C   LIG A   1      -9.648   4.550 130.265  0.00  0.00    +0.136 A 
ATOM      9  O   LIG A   1      -9.423   3.778 129.158  0.00  0.00    -0.480 OA
ATOM     10  C   LIG A   1      -8.267   2.930 129.246  0.00  0.00    +0.240 C 
ATOM     11  C   LIG A   1      -7.020   3.647 129.761  0.00  0.00    +0.234 C 
ATOM     12  O   LIG A   1      -6.655   4.705 128.878  0.00  0.00    -0.360 OA
ATOM     13  C   LIG A   1      -6.191   4.201 127.617  0.00  0.00    +0.200 C 
ATOM     14  C   LIG A   1      -7.014   3.060 127.051  0.00  0.00    +0.030 A 
ATOM     15  C   LIG A   1      -8.005   2.441 127.841  0.00  0.00    +0.005 A 
ATOM     16  C   LIG A   1      -8.765   1.397 127.312  0.00  0.00    +0.011 A 
ATOM     17  C   LIG A   1      -8.515   0.936 126.022  0.00  0.00    +0.050 A 
ATOM     18  C   LIG A   1      -7.493   1.495 125.241  0.00  0.00    +0.162 A 
ATOM     19  C   LIG A   1      -6.757   2.584 125.746  0.00  0.00    +0.167 A 
ENDROOT
BRANCH   6  20
ATOM     20  O   LIG A   1     -12.482   6.501 131.430  0.00  0.00    -0.495 OA
ATOM     21  C   LIG A   1     -12.855   7.175 130.232  0.00  0.00    +0.277 C 
ENDBRANCH   6  20
BRANCH  18  22
ATOM     22  O   LIG A   1      -7.185   1.005 123.998  0.00  0.00    -0.491 OA
ATOM     23  C   LIG A   1      -6.926  -0.396 123.938  0.00  0.00    +0.277 C 
ENDBRANCH  18  22
BRANCH  19  24
ATOM     24  O   LIG A   1      -5.684   3.174 125.123  0.00  0.00    -0.491 OA
ATOM     25  C   LIG A   1      -5.979   4.098 124.083  0.00  0.00    +0.277 C 
ENDBRANCH  19  24
TORSDOF 3
ENDMDL
MODEL 9
REMARK VINA RESULT:      -6.8      4.893      6.924
REMARK  Name = NuBBE_1815
REMARK  6 active torsions:
REMARK  status: ('A' for Active; 'I' for Inactive)
REMARK    1  A    between atoms: C_6  and  O_7
REMARK    2  A    between atoms: O_7  and  C_8
REMARK    3  A    between atoms: C_22  and  O_23
REMARK    4  A    between atoms: O_23  and  C_24
REMARK    5  A    between atoms: C_25  and  O_26
REMARK    6  A    between atoms: O_26  and  C_27
REMARK                            x       y       z     vdW  Elec       q    Type
REMARK                         _______ _______ _______ _____ _____    ______ ____
ROOT
ATOM      1  O   LIG A   1      -5.253   5.142 129.088  0.00  0.00    -0.289 OA
ATOM      2  C   LIG A   1      -6.403   4.783 128.885  0.00  0.00    +0.199 C 
ATOM      3  C   LIG A   1      -7.471   5.071 129.860  0.00  0.00    +0.062 A 
ATOM      4  C   LIG A   1      -7.251   5.989 130.889  0.00  0.00    +0.019 A 
ATOM      5  C   LIG A   1      -8.290   6.304 131.767  0.00  0.00    +0.046 A 
ATOM      6  C   LIG A   1      -9.542   5.705 131.615  0.00  0.00    +0.124 A 
ATOM      7  C   LIG A   1      -9.740   4.761 130.603  0.00  0.00    +0.092 A 
ATOM      8  C   LIG A   1      -8.704   4.442 129.724  0.00  0.00    +0.136 A 
ATOM      9  O   LIG A   1      -8.995   3.525 128.752  0.00  0.00    -0.480 OA
ATOM     10  C   LIG A   1      -7.849   2.983 128.078  0.00  0.00    +0.240 C 
ATOM     11  C   LIG A   1      -6.838   4.042 127.642  0.00  0.00    +0.234 C 
ATOM     12  O   LIG A   1      -7.436   4.948 126.717  0.00  0.00    -0.360 OA
ATOM     13  C   LIG A   1      -7.729   4.307 125.467  0.00  0.00    +0.200 C 
ATOM     14  C   LIG A   1      -8.337   2.923 125.595  0.00  0.00    +0.030 A 
ATOM     15  C   LIG A   1      -8.382   2.282 126.851  0.00  0.00    +0.005 A 
ATOM     16  C   LIG A   1      -8.951   1.012 126.963  0.00  0.00    +0.011 A 
ATOM     17  C   LIG A   1      -9.432   0.360 125.831  0.00  0.00    +0.050 A 
ATOM     18  C   LIG A   1      -9.339   0.952 124.564  0.00  0.00    +0.162 A 
ATOM     19  C   LIG A   1      -8.817   2.254 124.448  0.00  0.00    +0.167 A 
ENDROOT
BRANCH   6  20
ATOM     20  O   LIG A   1     -10.622   5.934 132.424  0.00  0.00    -0.495 OA
ATOM     21  C   LIG A   1     -11.747   6.531 131.788  0.00  0.00    +0.277 C 
ENDBRANCH   6  20
BRANCH  18  22
ATOM     22  O   LIG A   1      -9.740   0.294 123.429  0.00  0.00    -0.491 OA
ATOM     23  C   LIG A   1      -9.024  -0.903 123.130  0.00  0.00    +0.277 C 
ENDBRANCH  18  22
BRANCH  19  24
ATOM     24  O   LIG A   1      -8.600   2.920 123.265  0.00  0.00    -0.491 OA
ATOM     25  C   LIG A   1      -7.408   2.593 122.560  0.00  0.00    +0.277 C 
ENDBRANCH  19  24
TORSDOF 3
ENDMDL
