REMARK  Name = NuBBE_2265
REMARK  6 active torsions:
REMARK  status: ('A' for Active; 'I' for Inactive)
REMARK    1  A    between atoms: C_2  and  C_17
REMARK    2  A    between atoms: C_3  and  O_15
REMARK    3  A    between atoms: C_4  and  O_13
REMARK    4  A    between atoms: C_7  and  C_12
REMARK    5  A    between atoms: C_10  and  C_11
REMARK    6  A    between atoms: C_17  and  C_19
REMARK                            x       y       z     vdW  Elec       q    Type
REMARK                         _______ _______ _______ _____ _____    ______ ____
ROOT
ATOM      1  C   LIG A   1       0.409  -1.125  -0.009  0.00  0.00    +0.000 A 
ATOM      2  C   LIG A   1       1.671  -0.482  -0.020  0.00  0.00    +0.000 A 
ATOM      3  C   LIG A   1       1.658   0.963  -0.037  0.00  0.00    +0.000 A 
ATOM      4  C   LIG A   1       0.429   1.656  -0.027  0.00  0.00    +0.000 A 
ATOM      5  C   LIG A   1      -0.819   0.979  -0.017  0.00  0.00    +0.000 A 
ATOM      6  C   LIG A   1      -0.821  -0.442  -0.012  0.00  0.00    +0.000 A 
ATOM      7  C   LIG A   1      -2.068  -1.152  -0.011  0.00  0.00    +0.000 A 
ATOM      8  C   LIG A   1      -3.264  -0.432  -0.012  0.00  0.00    +0.000 A 
ATOM      9  C   LIG A   1      -3.269   0.950  -0.014  0.00  0.00    +0.000 A 
ATOM     10  C   LIG A   1      -2.075   1.677  -0.017  0.00  0.00    +0.000 A 
ATOM     11  C   LIG A   1      -2.197   3.185  -0.021  0.00  0.00    +0.000 C 
ATOM     12  C   LIG A   1      -2.217  -2.664  -0.012  0.00  0.00    +0.000 C 
ENDROOT
BRANCH   2  13
ATOM     13  C   LIG A   1       2.933  -1.374  -0.016  0.00  0.00    +0.000 C 
ATOM     14  C   LIG A   1       4.112  -0.994   0.544  0.00  0.00    +0.000 C 
ATOM     15  C   LIG A   1       2.982  -2.732  -0.639  0.00  0.00    +0.000 C 
ENDBRANCH   2  13
BRANCH   4  16
ATOM     16  O   LIG A   1       0.460   3.008  -0.034  0.00  0.00    +0.000 OA
ATOM     17 AC   LIG A   1      -1.242   4.431   0.986  0.00  0.00    +0.000 Ac
ENDBRANCH   4  16
BRANCH   3  18
ATOM     18  O   LIG A   1       2.749   1.770  -0.079  0.00  0.00    +0.000 OA
ATOM     19 AC   LIG A   1       3.908   3.881   0.446  0.00  0.00    +0.000 Ac
ENDBRANCH   3  18
TORSDOF 3
