MODEL 1
REMARK VINA RESULT:      -9.3      0.000      0.000
REMARK  Name = NuBBE_609
REMARK  10 active torsions:
REMARK  status: ('A' for Active; 'I' for Inactive)
REMARK    1  A    between atoms: C_3  and  C_48
REMARK    2  A    between atoms: C_6  and  C_10
REMARK    3  A    between atoms: C_10  and  C_11
REMARK    4  A    between atoms: C_20  and  O_22
REMARK    5  A    between atoms: O_22  and  C_23
REMARK    6  A    between atoms: C_23  and  C_24
REMARK    7  A    between atoms: C_30  and  O_31
REMARK    8  A    between atoms: C_30  and  C_45
REMARK    9  A    between atoms: C_33  and  C_43
REMARK   10  A    between atoms: C_40  and  O_42
REMARK                            x       y       z     vdW  Elec       q    Type
REMARK                         _______ _______ _______ _____ _____    ______ ____
ROOT
ATOM      1  C   LIG A   1      -6.719   2.678 134.138  0.00  0.00    +0.010 C 
ATOM      2  C   LIG A   1      -7.439   2.987 133.041  0.00  0.00    -0.045 C 
ATOM      3  C   LIG A   1      -7.682   4.380 132.472  0.00  0.00    +0.020 C 
ATOM      4  C   LIG A   1      -7.414   4.508 130.923  0.00  0.00    +0.036 C 
ATOM      5  C   LIG A   1      -8.397   5.507 130.205  0.00  0.00    +0.082 C 
ATOM      6  N   LIG A   1      -9.432   4.622 129.748  0.00  0.00    -0.311 N 
ATOM      7  H   LIG A   1     -10.332   4.919 129.388  0.00  0.00    +0.149 HD
ATOM      8  C   LIG A   1      -7.583   3.164 130.047  0.00  0.00    +0.100 C 
ATOM      9  C   LIG A   1      -9.043   3.307 129.626  0.00  0.00    +0.224 C 
ATOM     10  O   LIG A   1      -9.763   2.429 129.204  0.00  0.00    -0.275 OA
ATOM     11  C   LIG A   1      -6.640   3.129 128.764  0.00  0.00    +0.224 C 
ATOM     12  C   LIG A   1      -7.221   2.459 127.532  0.00  0.00    +0.192 C 
ATOM     13  C   LIG A   1      -6.893   1.122 126.810  0.00  0.00    +0.190 C 
ATOM     14  C   LIG A   1      -5.938  -0.025 127.136  0.00  0.00    +0.149 C 
ATOM     15  C   LIG A   1      -6.759  -1.289 127.557  0.00  0.00    +0.170 C 
ATOM     16  C   LIG A   1      -6.278  -2.232 128.663  0.00  0.00    +0.059 C 
ATOM     17  C   LIG A   1      -7.026  -1.902 129.959  0.00  0.00    +0.037 C 
ATOM     18  C   LIG A   1      -6.758  -0.519 130.472  0.00  0.00    -0.030 C 
ATOM     19  C   LIG A   1      -7.573   0.526 130.246  0.00  0.00    -0.024 C 
ATOM     20  C   LIG A   1      -7.333   1.876 130.889  0.00  0.00    +0.063 C 
ATOM     21  C   LIG A   1      -8.066   1.887 132.240  0.00  0.00    +0.148 C 
ATOM     22  C   LIG A   1      -4.777  -2.398 128.855  0.00  0.00    +0.016 C 
ATOM     23  O   LIG A   1      -7.848  -1.534 127.018  0.00  0.00    -0.294 OA
ATOM     24  C   LIG A   1      -5.212  -0.447 125.845  0.00  0.00    +0.052 C 
ATOM     25  O   LIG A   1      -6.249   2.354 126.470  0.00  0.00    -0.361 OA
ATOM     26  C   LIG A   1      -6.862   5.443 133.226  0.00  0.00    +0.013 C 
ENDROOT
BRANCH  14  27
ATOM     27  O   LIG A   1      -4.921   0.396 128.022  0.00  0.00    -0.379 OA
ATOM     28  H   LIG A   1      -4.375  -0.371 128.239  0.00  0.00    +0.211 HD
ENDBRANCH  14  27
BRANCH  21  29
ATOM     29  O   LIG A   1      -9.457   2.140 132.135  0.00  0.00    -0.387 OA
ATOM     30  H   LIG A   1      -9.572   3.056 131.821  0.00  0.00    +0.210 HD
ENDBRANCH  21  29
BRANCH   5  31
ATOM     31  C   LIG A   1      -8.962   6.741 130.956  0.00  0.00    +0.057 C 
BRANCH  31  32
ATOM     32  C   LIG A   1     -10.307   7.212 130.414  0.00  0.00    -0.046 A 
ATOM     33  C   LIG A   1     -10.390   7.933 129.211  0.00  0.00    +0.003 A 
ATOM     34  C   LIG A   1     -11.608   8.474 128.785  0.00  0.00    +0.000 A 
ATOM     35  C   LIG A   1     -12.759   8.292 129.547  0.00  0.00    +0.000 A 
ATOM     36  C   LIG A   1     -12.703   7.523 130.708  0.00  0.00    +0.000 A 
ATOM     37  C   LIG A   1     -11.488   6.977 131.133  0.00  0.00    +0.003 A 
ENDBRANCH  31  32
ENDBRANCH   5  31
BRANCH  11  38
ATOM     38  O   LIG A   1      -6.291   4.481 128.367  0.00  0.00    -0.458 OA
BRANCH  38  39
ATOM     39  C   LIG A   1      -4.969   4.802 128.333  0.00  0.00    +0.304 C 
ATOM     40  C   LIG A   1      -4.161   3.791 129.091  0.00  0.00    +0.136 C 
ATOM     41  O   LIG A   1      -4.474   5.731 127.714  0.00  0.00    -0.251 OA
ENDBRANCH  38  39
ENDBRANCH  11  38
TORSDOF 6
ENDMDL
MODEL 2
REMARK VINA RESULT:      -9.1      2.346      3.882
REMARK  Name = NuBBE_609
REMARK  10 active torsions:
REMARK  status: ('A' for Active; 'I' for Inactive)
REMARK    1  A    between atoms: C_3  and  C_48
REMARK    2  A    between atoms: C_6  and  C_10
REMARK    3  A    between atoms: C_10  and  C_11
REMARK    4  A    between atoms: C_20  and  O_22
REMARK    5  A    between atoms: O_22  and  C_23
REMARK    6  A    between atoms: C_23  and  C_24
REMARK    7  A    between atoms: C_30  and  O_31
REMARK    8  A    between atoms: C_30  and  C_45
REMARK    9  A    between atoms: C_33  and  C_43
REMARK   10  A    between atoms: C_40  and  O_42
REMARK                            x       y       z     vdW  Elec       q    Type
REMARK                         _______ _______ _______ _____ _____    ______ ____
ROOT
ATOM      1  C   LIG A   1      -4.654   6.173 132.647  0.00  0.00    +0.010 C 
ATOM      2  C   LIG A   1      -5.908   5.689 132.736  0.00  0.00    -0.045 C 
ATOM      3  C   LIG A   1      -7.123   6.151 131.940  0.00  0.00    +0.020 C 
ATOM      4  C   LIG A   1      -7.952   4.985 131.276  0.00  0.00    +0.036 C 
ATOM      5  C   LIG A   1      -9.501   5.267 131.242  0.00  0.00    +0.082 C 
ATOM      6  N   LIG A   1      -9.942   4.623 132.448  0.00  0.00    -0.311 N 
ATOM      7  H   LIG A   1     -10.860   4.735 132.862  0.00  0.00    +0.149 HD
ATOM      8  C   LIG A   1      -7.876   3.544 131.998  0.00  0.00    +0.100 C 
ATOM      9  C   LIG A   1      -9.092   3.646 132.915  0.00  0.00    +0.224 C 
ATOM     10  O   LIG A   1      -9.325   2.960 133.886  0.00  0.00    -0.275 OA
ATOM     11  C   LIG A   1      -8.049   2.326 130.986  0.00  0.00    +0.224 C 
ATOM     12  C   LIG A   1      -8.789   1.115 131.527  0.00  0.00    +0.192 C 
ATOM     13  C   LIG A   1      -8.323  -0.318 131.905  0.00  0.00    +0.190 C 
ATOM     14  C   LIG A   1      -6.948  -0.982 131.952  0.00  0.00    +0.149 C 
ATOM     15  C   LIG A   1      -6.538  -1.234 133.441  0.00  0.00    +0.170 C 
ATOM     16  C   LIG A   1      -5.092  -1.070 133.919  0.00  0.00    +0.059 C 
ATOM     17  C   LIG A   1      -4.946   0.290 134.607  0.00  0.00    +0.037 C 
ATOM     18  C   LIG A   1      -5.198   1.455 133.698  0.00  0.00    -0.030 C 
ATOM     19  C   LIG A   1      -6.375   2.101 133.630  0.00  0.00    -0.024 C 
ATOM     20  C   LIG A   1      -6.549   3.351 132.793  0.00  0.00    +0.063 C 
ATOM     21  C   LIG A   1      -6.195   4.559 133.677  0.00  0.00    +0.148 C 
ATOM     22  C   LIG A   1      -3.976  -1.371 132.927  0.00  0.00    +0.016 C 
ATOM     23  O   LIG A   1      -7.395  -1.543 134.282  0.00  0.00    -0.294 OA
ATOM     24  C   LIG A   1      -7.056  -2.389 131.337  0.00  0.00    +0.052 C 
ATOM     25  O   LIG A   1      -8.776   0.017 130.589  0.00  0.00    -0.361 OA
ATOM     26  C   LIG A   1      -6.728   7.180 130.864  0.00  0.00    +0.013 C 
ENDROOT
BRANCH  14  27
ATOM     27  O   LIG A   1      -6.019  -0.287 131.146  0.00  0.00    -0.379 OA
ATOM     28  H   LIG A   1      -5.305  -0.896 130.918  0.00  0.00    +0.211 HD
ENDBRANCH  14  27
BRANCH  21  29
ATOM     29  O   LIG A   1      -7.237   4.952 134.553  0.00  0.00    -0.387 OA
ATOM     30  H   LIG A   1      -7.149   5.910 134.712  0.00  0.00    +0.210 HD
ENDBRANCH  21  29
BRANCH   5  31
ATOM     31  C   LIG A   1     -10.040   6.715 131.112  0.00  0.00    +0.057 C 
BRANCH  31  32
ATOM     32  C   LIG A   1     -10.879   6.934 129.858  0.00  0.00    -0.046 A 
ATOM     33  C   LIG A   1     -10.430   7.773 128.825  0.00  0.00    +0.003 A 
ATOM     34  C   LIG A   1     -11.258   8.074 127.738  0.00  0.00    +0.000 A 
ATOM     35  C   LIG A   1     -12.538   7.532 127.662  0.00  0.00    +0.000 A 
ATOM     36  C   LIG A   1     -12.972   6.647 128.648  0.00  0.00    +0.000 A 
ATOM     37  C   LIG A   1     -12.144   6.341 129.733  0.00  0.00    +0.003 A 
ENDBRANCH  31  32
ENDBRANCH   5  31
BRANCH  11  38
ATOM     38  O   LIG A   1      -8.779   2.759 129.809  0.00  0.00    -0.458 OA
BRANCH  38  39
ATOM     39  C   LIG A   1      -8.276   2.405 128.595  0.00  0.00    +0.304 C 
ATOM     40  C   LIG A   1      -6.802   2.679 128.535  0.00  0.00    +0.136 C 
ATOM     41  O   LIG A   1      -8.896   1.865 127.692  0.00  0.00    -0.251 OA
ENDBRANCH  38  39
ENDBRANCH  11  38
TORSDOF 6
ENDMDL
MODEL 3
REMARK VINA RESULT:      -9.0      3.010      4.399
REMARK  Name = NuBBE_609
REMARK  10 active torsions:
REMARK  status: ('A' for Active; 'I' for Inactive)
REMARK    1  A    between atoms: C_3  and  C_48
REMARK    2  A    between atoms: C_6  and  C_10
REMARK    3  A    between atoms: C_10  and  C_11
REMARK    4  A    between atoms: C_20  and  O_22
REMARK    5  A    between atoms: O_22  and  C_23
REMARK    6  A    between atoms: C_23  and  C_24
REMARK    7  A    between atoms: C_30  and  O_31
REMARK    8  A    between atoms: C_30  and  C_45
REMARK    9  A    between atoms: C_33  and  C_43
REMARK   10  A    between atoms: C_40  and  O_42
REMARK                            x       y       z     vdW  Elec       q    Type
REMARK                         _______ _______ _______ _____ _____    ______ ____
ROOT
ATOM      1  C   LIG A   1      -4.625  -0.009 130.529  0.00  0.00    +0.010 C 
ATOM      2  C   LIG A   1      -5.584   0.925 130.376  0.00  0.00    -0.045 C 
ATOM      3  C   LIG A   1      -5.517   2.382 130.818  0.00  0.00    +0.020 C 
ATOM      4  C   LIG A   1      -5.939   3.421 129.709  0.00  0.00    +0.036 C 
ATOM      5  C   LIG A   1      -6.688   4.678 130.291  0.00  0.00    +0.082 C 
ATOM      6  N   LIG A   1      -8.063   4.286 130.161  0.00  0.00    -0.311 N 
ATOM      7  H   LIG A   1      -8.846   4.767 130.590  0.00  0.00    +0.149 HD
ATOM      8  C   LIG A   1      -6.965   2.896 128.581  0.00  0.00    +0.100 C 
ATOM      9  C   LIG A   1      -8.289   3.309 129.219  0.00  0.00    +0.224 C 
ATOM     10  O   LIG A   1      -9.390   2.892 128.933  0.00  0.00    -0.275 OA
ATOM     11  C   LIG A   1      -6.780   3.624 127.176  0.00  0.00    +0.224 C 
ATOM     12  C   LIG A   1      -8.050   3.862 126.380  0.00  0.00    +0.192 C 
ATOM     13  C   LIG A   1      -8.601   3.234 125.069  0.00  0.00    +0.190 C 
ATOM     14  C   LIG A   1      -8.104   2.100 124.174  0.00  0.00    +0.149 C 
ATOM     15  C   LIG A   1      -9.056   0.866 124.313  0.00  0.00    +0.170 C 
ATOM     16  C   LIG A   1      -8.524  -0.570 124.304  0.00  0.00    +0.059 C 
ATOM     17  C   LIG A   1      -8.435  -1.078 125.746  0.00  0.00    +0.037 C 
ATOM     18  C   LIG A   1      -7.475  -0.304 126.598  0.00  0.00    -0.030 C 
ATOM     19  C   LIG A   1      -7.851   0.686 127.428  0.00  0.00    -0.024 C 
ATOM     20  C   LIG A   1      -6.867   1.355 128.365  0.00  0.00    +0.063 C 
ATOM     21  C   LIG A   1      -6.860   0.561 129.681  0.00  0.00    +0.148 C 
ATOM     22  C   LIG A   1      -7.277  -0.862 123.480  0.00  0.00    +0.016 C 
ATOM     23  O   LIG A   1     -10.275   1.032 124.470  0.00  0.00    -0.294 OA
ATOM     24  C   LIG A   1      -8.243   2.532 122.703  0.00  0.00    +0.052 C 
ATOM     25  O   LIG A   1      -7.769   4.398 125.070  0.00  0.00    -0.361 OA
ATOM     26  C   LIG A   1      -4.118   2.740 131.354  0.00  0.00    +0.013 C 
ENDROOT
BRANCH  14  27
ATOM     27  O   LIG A   1      -6.725   1.863 124.371  0.00  0.00    -0.379 OA
ATOM     28  H   LIG A   1      -6.542   0.944 124.136  0.00  0.00    +0.211 HD
ENDBRANCH  14  27
BRANCH  21  29
ATOM     29  O   LIG A   1      -7.947   0.865 130.539  0.00  0.00    -0.387 OA
ATOM     30  H   LIG A   1      -7.600   0.934 131.449  0.00  0.00    +0.210 HD
ENDBRANCH  21  29
BRANCH   5  31
ATOM     31  C   LIG A   1      -6.355   5.214 131.708  0.00  0.00    +0.057 C 
BRANCH  31  32
ATOM     32  C   LIG A   1      -5.236   6.250 131.712  0.00  0.00    -0.046 A 
ATOM     33  C   LIG A   1      -5.017   7.082 130.602  0.00  0.00    +0.003 A 
ATOM     34  C   LIG A   1      -3.912   7.939 130.559  0.00  0.00    +0.000 A 
ATOM     35  C   LIG A   1      -3.020   7.985 131.627  0.00  0.00    +0.000 A 
ATOM     36  C   LIG A   1      -3.262   7.213 132.761  0.00  0.00    +0.000 A 
ATOM     37  C   LIG A   1      -4.369   6.359 132.809  0.00  0.00    +0.003 A 
ENDBRANCH  31  32
ENDBRANCH   5  31
BRANCH  11  38
ATOM     38  O   LIG A   1      -6.169   4.927 127.369  0.00  0.00    -0.458 OA
BRANCH  38  39
ATOM     39  C   LIG A   1      -4.860   5.062 127.022  0.00  0.00    +0.304 C 
ATOM     40  C   LIG A   1      -4.417   3.906 126.174  0.00  0.00    +0.136 C 
ATOM     41  O   LIG A   1      -4.146   6.017 127.284  0.00  0.00    -0.251 OA
ENDBRANCH  38  39
ENDBRANCH  11  38
TORSDOF 6
ENDMDL
MODEL 4
REMARK VINA RESULT:      -8.9      1.679      2.276
REMARK  Name = NuBBE_609
REMARK  10 active torsions:
REMARK  status: ('A' for Active; 'I' for Inactive)
REMARK    1  A    between atoms: C_3  and  C_48
REMARK    2  A    between atoms: C_6  and  C_10
REMARK    3  A    between atoms: C_10  and  C_11
REMARK    4  A    between atoms: C_20  and  O_22
REMARK    5  A    between atoms: O_22  and  C_23
REMARK    6  A    between atoms: C_23  and  C_24
REMARK    7  A    between atoms: C_30  and  O_31
REMARK    8  A    between atoms: C_30  and  C_45
REMARK    9  A    between atoms: C_33  and  C_43
REMARK   10  A    between atoms: C_40  and  O_42
REMARK                            x       y       z     vdW  Elec       q    Type
REMARK                         _______ _______ _______ _____ _____    ______ ____
ROOT
ATOM      1  C   LIG A   1      -5.822   4.852 133.586  0.00  0.00    +0.010 C 
ATOM      2  C   LIG A   1      -6.910   4.259 133.057  0.00  0.00    -0.045 C 
ATOM      3  C   LIG A   1      -8.024   4.934 132.266  0.00  0.00    +0.020 C 
ATOM      4  C   LIG A   1      -8.393   4.214 130.912  0.00  0.00    +0.036 C 
ATOM      5  C   LIG A   1      -9.927   4.297 130.564  0.00  0.00    +0.082 C 
ATOM      6  N   LIG A   1     -10.420   3.068 131.119  0.00  0.00    -0.311 N 
ATOM      7  H   LIG A   1     -11.399   2.840 131.245  0.00  0.00    +0.149 HD
ATOM      8  C   LIG A   1      -8.104   2.630 130.835  0.00  0.00    +0.100 C 
ATOM      9  C   LIG A   1      -9.461   2.093 131.283  0.00  0.00    +0.224 C 
ATOM     10  O   LIG A   1      -9.700   0.976 131.686  0.00  0.00    -0.275 OA
ATOM     11  C   LIG A   1      -7.771   2.124 129.362  0.00  0.00    +0.224 C 
ATOM     12  C   LIG A   1      -8.278   0.737 129.006  0.00  0.00    +0.192 C 
ATOM     13  C   LIG A   1      -7.553  -0.616 128.765  0.00  0.00    +0.190 C 
ATOM     14  C   LIG A   1      -6.093  -1.047 128.888  0.00  0.00    +0.149 C 
ATOM     15  C   LIG A   1      -5.929  -2.003 130.115  0.00  0.00    +0.170 C 
ATOM     16  C   LIG A   1      -4.689  -1.958 131.014  0.00  0.00    +0.059 C 
ATOM     17  C   LIG A   1      -5.021  -1.164 132.281  0.00  0.00    +0.037 C 
ATOM     18  C   LIG A   1      -5.373   0.269 132.018  0.00  0.00    -0.030 C 
ATOM     19  C   LIG A   1      -6.638   0.718 131.927  0.00  0.00    -0.024 C 
ATOM     20  C   LIG A   1      -6.951   2.193 131.789  0.00  0.00    +0.063 C 
ATOM     21  C   LIG A   1      -7.084   2.778 133.204  0.00  0.00    +0.148 C 
ATOM     22  C   LIG A   1      -3.364  -1.560 130.379  0.00  0.00    +0.016 C 
ATOM     23  O   LIG A   1      -6.829  -2.803 130.408  0.00  0.00    -0.294 OA
ATOM     24  C   LIG A   1      -5.728  -1.915 127.670  0.00  0.00    +0.052 C 
ATOM     25  O   LIG A   1      -7.812   0.313 127.708  0.00  0.00    -0.361 OA
ATOM     26  C   LIG A   1      -7.695   6.413 131.990  0.00  0.00    +0.013 C 
ENDROOT
BRANCH  14  27
ATOM     27  O   LIG A   1      -5.227   0.069 128.831  0.00  0.00    -0.379 OA
ATOM     28  H   LIG A   1      -4.976   0.207 127.908  0.00  0.00    +0.211 HD
ENDBRANCH  14  27
BRANCH  21  29
ATOM     29  O   LIG A   1      -8.341   2.527 133.811  0.00  0.00    -0.387 OA
ATOM     30  H   LIG A   1      -8.288   2.819 134.740  0.00  0.00    +0.210 HD
ENDBRANCH  21  29
BRANCH   5  31
ATOM     31  C   LIG A   1     -10.772   5.523 130.997  0.00  0.00    +0.057 C 
BRANCH  31  32
ATOM     32  C   LIG A   1     -11.100   6.465 129.843  0.00  0.00    -0.046 A 
ATOM     33  C   LIG A   1     -10.142   7.368 129.352  0.00  0.00    +0.003 A 
ATOM     34  C   LIG A   1     -10.485   8.317 128.384  0.00  0.00    +0.000 A 
ATOM     35  C   LIG A   1     -11.784   8.371 127.886  0.00  0.00    +0.000 A 
ATOM     36  C   LIG A   1     -12.727   7.439 128.317  0.00  0.00    +0.000 A 
ATOM     37  C   LIG A   1     -12.384   6.486 129.281  0.00  0.00    +0.003 A 
ENDBRANCH  31  32
ENDBRANCH   5  31
BRANCH  11  38
ATOM     38  O   LIG A   1      -8.343   3.031 128.384  0.00  0.00    -0.458 OA
BRANCH  38  39
ATOM     39  C   LIG A   1      -7.480   3.717 127.587  0.00  0.00    +0.304 C 
ATOM     40  C   LIG A   1      -7.822   3.514 126.141  0.00  0.00    +0.136 C 
ATOM     41  O   LIG A   1      -6.592   4.464 127.969  0.00  0.00    -0.251 OA
ENDBRANCH  38  39
ENDBRANCH  11  38
TORSDOF 6
ENDMDL
MODEL 5
REMARK VINA RESULT:      -8.9      2.429      3.936
REMARK  Name = NuBBE_609
REMARK  10 active torsions:
REMARK  status: ('A' for Active; 'I' for Inactive)
REMARK    1  A    between atoms: C_3  and  C_48
REMARK    2  A    between atoms: C_6  and  C_10
REMARK    3  A    between atoms: C_10  and  C_11
REMARK    4  A    between atoms: C_20  and  O_22
REMARK    5  A    between atoms: O_22  and  C_23
REMARK    6  A    between atoms: C_23  and  C_24
REMARK    7  A    between atoms: C_30  and  O_31
REMARK    8  A    between atoms: C_30  and  C_45
REMARK    9  A    between atoms: C_33  and  C_43
REMARK   10  A    between atoms: C_40  and  O_42
REMARK                            x       y       z     vdW  Elec       q    Type
REMARK                         _______ _______ _______ _____ _____    ______ ____
ROOT
ATOM      1  C   LIG A   1      -3.094   4.364 130.895  0.00  0.00    +0.010 C 
ATOM      2  C   LIG A   1      -4.157   3.932 131.602  0.00  0.00    -0.045 C 
ATOM      3  C   LIG A   1      -5.516   4.612 131.712  0.00  0.00    +0.020 C 
ATOM      4  C   LIG A   1      -6.747   3.657 131.465  0.00  0.00    +0.036 C 
ATOM      5  C   LIG A   1      -7.996   4.013 132.354  0.00  0.00    +0.082 C 
ATOM      6  N   LIG A   1      -7.808   3.146 133.484  0.00  0.00    -0.311 N 
ATOM      7  H   LIG A   1      -8.321   3.210 134.355  0.00  0.00    +0.149 HD
ATOM      8  C   LIG A   1      -6.523   2.093 131.788  0.00  0.00    +0.100 C 
ATOM      9  C   LIG A   1      -7.010   2.052 133.234  0.00  0.00    +0.224 C 
ATOM     10  O   LIG A   1      -6.784   1.185 134.049  0.00  0.00    -0.275 OA
ATOM     11  C   LIG A   1      -7.410   1.131 130.880  0.00  0.00    +0.224 C 
ATOM     12  C   LIG A   1      -7.920  -0.131 131.553  0.00  0.00    +0.192 C 
ATOM     13  C   LIG A   1      -7.560  -1.633 131.379  0.00  0.00    +0.190 C 
ATOM     14  C   LIG A   1      -6.508  -2.356 130.540  0.00  0.00    +0.149 C 
ATOM     15  C   LIG A   1      -5.401  -2.942 131.478  0.00  0.00    +0.170 C 
ATOM     16  C   LIG A   1      -3.924  -2.953 131.074  0.00  0.00    +0.059 C 
ATOM     17  C   LIG A   1      -3.211  -1.782 131.757  0.00  0.00    +0.037 C 
ATOM     18  C   LIG A   1      -3.727  -0.438 131.338  0.00  0.00    -0.030 C 
ATOM     19  C   LIG A   1      -4.630   0.262 132.046  0.00  0.00    -0.024 C 
ATOM     20  C   LIG A   1      -5.028   1.671 131.655  0.00  0.00    +0.063 C 
ATOM     21  C   LIG A   1      -4.063   2.641 132.356  0.00  0.00    +0.148 C 
ATOM     22  C   LIG A   1      -3.591  -3.086 129.594  0.00  0.00    +0.016 C 
ATOM     23  O   LIG A   1      -5.700  -3.384 132.597  0.00  0.00    -0.294 OA
ATOM     24  C   LIG A   1      -7.157  -3.591 129.888  0.00  0.00    +0.052 C 
ATOM     25  O   LIG A   1      -8.595  -1.001 130.618  0.00  0.00    -0.361 OA
ATOM     26  C   LIG A   1      -5.611   5.829 130.772  0.00  0.00    +0.013 C 
ENDROOT
BRANCH  14  27
ATOM     27  O   LIG A   1      -6.069  -1.548 129.467  0.00  0.00    -0.379 OA
ATOM     28  H   LIG A   1      -5.108  -1.467 129.526  0.00  0.00    +0.211 HD
ENDBRANCH  14  27
BRANCH  21  29
ATOM     29  O   LIG A   1      -4.382   2.885 133.715  0.00  0.00    -0.387 OA
ATOM     30  H   LIG A   1      -3.619   3.333 134.126  0.00  0.00    +0.210 HD
ENDBRANCH  21  29
BRANCH   5  31
ATOM     31  C   LIG A   1      -8.279   5.479 132.773  0.00  0.00    +0.057 C 
BRANCH  31  32
ATOM     32  C   LIG A   1      -9.329   6.162 131.902  0.00  0.00    -0.046 A 
ATOM     33  C   LIG A   1     -10.695   6.088 132.224  0.00  0.00    +0.003 A 
ATOM     34  C   LIG A   1     -11.662   6.603 131.355  0.00  0.00    +0.000 A 
ATOM     35  C   LIG A   1     -11.279   7.209 130.161  0.00  0.00    +0.000 A 
ATOM     36  C   LIG A   1      -9.925   7.347 129.862  0.00  0.00    +0.000 A 
ATOM     37  C   LIG A   1      -8.956   6.837 130.731  0.00  0.00    +0.003 A 
ENDBRANCH  31  32
ENDBRANCH   5  31
BRANCH  11  38
ATOM     38  O   LIG A   1      -8.583   1.842 130.403  0.00  0.00    -0.458 OA
BRANCH  38  39
ATOM     39  C   LIG A   1      -8.556   2.305 129.124  0.00  0.00    +0.304 C 
ATOM     40  C   LIG A   1      -7.965   1.278 128.203  0.00  0.00    +0.136 C 
ATOM     41  O   LIG A   1      -9.013   3.370 128.738  0.00  0.00    -0.251 OA
ENDBRANCH  38  39
ENDBRANCH  11  38
TORSDOF 6
ENDMDL
MODEL 6
REMARK VINA RESULT:      -8.8      2.672      7.604
REMARK  Name = NuBBE_609
REMARK  10 active torsions:
REMARK  status: ('A' for Active; 'I' for Inactive)
REMARK    1  A    between atoms: C_3  and  C_48
REMARK    2  A    between atoms: C_6  and  C_10
REMARK    3  A    between atoms: C_10  and  C_11
REMARK    4  A    between atoms: C_20  and  O_22
REMARK    5  A    between atoms: O_22  and  C_23
REMARK    6  A    between atoms: C_23  and  C_24
REMARK    7  A    between atoms: C_30  and  O_31
REMARK    8  A    between atoms: C_30  and  C_45
REMARK    9  A    between atoms: C_33  and  C_43
REMARK   10  A    between atoms: C_40  and  O_42
REMARK                            x       y       z     vdW  Elec       q    Type
REMARK                         _______ _______ _______ _____ _____    ______ ____
ROOT
ATOM      1  C   LIG A   1      -2.944   3.030 127.350  0.00  0.00    +0.010 C 
ATOM      2  C   LIG A   1      -4.274   3.162 127.176  0.00  0.00    -0.045 C 
ATOM      3  C   LIG A   1      -5.198   2.198 126.442  0.00  0.00    +0.020 C 
ATOM      4  C   LIG A   1      -6.503   1.811 127.239  0.00  0.00    +0.036 C 
ATOM      5  C   LIG A   1      -7.758   1.607 126.310  0.00  0.00    +0.082 C 
ATOM      6  N   LIG A   1      -8.365   2.908 126.347  0.00  0.00    -0.311 N 
ATOM      7  H   LIG A   1      -9.106   3.220 125.730  0.00  0.00    +0.149 HD
ATOM      8  C   LIG A   1      -7.038   2.886 128.315  0.00  0.00    +0.100 C 
ATOM      9  C   LIG A   1      -8.017   3.666 127.442  0.00  0.00    +0.224 C 
ATOM     10  O   LIG A   1      -8.471   4.766 127.670  0.00  0.00    -0.275 OA
ATOM     11  C   LIG A   1      -7.804   2.218 129.542  0.00  0.00    +0.224 C 
ATOM     12  C   LIG A   1      -8.974   3.008 130.102  0.00  0.00    +0.192 C 
ATOM     13  C   LIG A   1      -9.178   3.776 131.438  0.00  0.00    +0.190 C 
ATOM     14  C   LIG A   1      -8.249   4.081 132.611  0.00  0.00    +0.149 C 
ATOM     15  C   LIG A   1      -7.903   5.607 132.623  0.00  0.00    +0.170 C 
ATOM     16  C   LIG A   1      -6.511   6.116 133.009  0.00  0.00    +0.059 C 
ATOM     17  C   LIG A   1      -5.725   6.434 131.733  0.00  0.00    +0.037 C 
ATOM     18  C   LIG A   1      -5.484   5.238 130.861  0.00  0.00    -0.030 C 
ATOM     19  C   LIG A   1      -6.246   4.929 129.798  0.00  0.00    -0.024 C 
ATOM     20  C   LIG A   1      -5.892   3.787 128.869  0.00  0.00    +0.063 C 
ATOM     21  C   LIG A   1      -4.978   4.345 127.767  0.00  0.00    +0.148 C 
ATOM     22  C   LIG A   1      -5.714   5.309 134.026  0.00  0.00    +0.016 C 
ATOM     23  O   LIG A   1      -8.752   6.443 132.282  0.00  0.00    -0.294 OA
ATOM     24  C   LIG A   1      -9.018   3.849 133.925  0.00  0.00    +0.052 C 
ATOM     25  O   LIG A   1      -9.515   2.392 131.290  0.00  0.00    -0.361 OA
ATOM     26  C   LIG A   1      -4.452   0.919 126.022  0.00  0.00    +0.013 C 
ENDROOT
BRANCH  14  27
ATOM     27  O   LIG A   1      -7.160   3.182 132.645  0.00  0.00    -0.379 OA
ATOM     28  H   LIG A   1      -6.896   2.995 131.735  0.00  0.00    +0.211 HD
ENDBRANCH  14  27
BRANCH  21  29
ATOM     29  O   LIG A   1      -5.673   5.021 126.734  0.00  0.00    -0.387 OA
ATOM     30  H   LIG A   1      -6.013   5.860 127.100  0.00  0.00    +0.210 HD
ENDBRANCH  21  29
BRANCH   5  31
ATOM     31  C   LIG A   1      -7.596   1.070 124.864  0.00  0.00    +0.057 C 
BRANCH  31  32
ATOM     32  C   LIG A   1      -7.812  -0.436 124.754  0.00  0.00    -0.046 A 
ATOM     33  C   LIG A   1      -8.918  -1.054 125.361  0.00  0.00    +0.003 A 
ATOM     34  C   LIG A   1      -9.042  -2.448 125.367  0.00  0.00    +0.000 A 
ATOM     35  C   LIG A   1      -8.072  -3.240 124.759  0.00  0.00    +0.000 A 
ATOM     36  C   LIG A   1      -7.005  -2.636 124.097  0.00  0.00    +0.000 A 
ATOM     37  C   LIG A   1      -6.881  -1.243 124.084  0.00  0.00    +0.003 A 
ENDBRANCH  31  32
ENDBRANCH   5  31
BRANCH  11  38
ATOM     38  O   LIG A   1      -8.334   0.925 129.151  0.00  0.00    -0.458 OA
BRANCH  38  39
ATOM     39  C   LIG A   1      -7.836  -0.172 129.782  0.00  0.00    +0.304 C 
ATOM     40  C   LIG A   1      -7.608  -1.286 128.803  0.00  0.00    +0.136 C 
ATOM     41  O   LIG A   1      -7.533  -0.243 130.963  0.00  0.00    -0.251 OA
ENDBRANCH  38  39
ENDBRANCH  11  38
TORSDOF 6
ENDMDL
MODEL 7
REMARK VINA RESULT:      -8.7      2.593      5.078
REMARK  Name = NuBBE_609
REMARK  10 active torsions:
REMARK  status: ('A' for Active; 'I' for Inactive)
REMARK    1  A    between atoms: C_3  and  C_48
REMARK    2  A    between atoms: C_6  and  C_10
REMARK    3  A    between atoms: C_10  and  C_11
REMARK    4  A    between atoms: C_20  and  O_22
REMARK    5  A    between atoms: O_22  and  C_23
REMARK    6  A    between atoms: C_23  and  C_24
REMARK    7  A    between atoms: C_30  and  O_31
REMARK    8  A    between atoms: C_30  and  C_45
REMARK    9  A    between atoms: C_33  and  C_43
REMARK   10  A    between atoms: C_40  and  O_42
REMARK                            x       y       z     vdW  Elec       q    Type
REMARK                         _______ _______ _______ _____ _____    ______ ____
ROOT
ATOM      1  C   LIG A   1      -5.956   2.274 126.725  0.00  0.00    +0.010 C 
ATOM      2  C   LIG A   1      -5.720   2.608 128.009  0.00  0.00    -0.045 C 
ATOM      3  C   LIG A   1      -6.466   3.653 128.831  0.00  0.00    +0.020 C 
ATOM      4  C   LIG A   1      -6.936   3.153 130.251  0.00  0.00    +0.036 C 
ATOM      5  C   LIG A   1      -6.882   4.276 131.353  0.00  0.00    +0.082 C 
ATOM      6  N   LIG A   1      -5.584   4.060 131.929  0.00  0.00    -0.311 N 
ATOM      7  H   LIG A   1      -5.116   4.701 132.559  0.00  0.00    +0.149 HD
ATOM      8  C   LIG A   1      -6.072   1.967 130.921  0.00  0.00    +0.100 C 
ATOM      9  C   LIG A   1      -5.081   2.793 131.737  0.00  0.00    +0.224 C 
ATOM     10  O   LIG A   1      -4.027   2.412 132.196  0.00  0.00    -0.275 OA
ATOM     11  C   LIG A   1      -6.931   1.030 131.881  0.00  0.00    +0.224 C 
ATOM     12  C   LIG A   1      -6.209   0.495 133.105  0.00  0.00    +0.192 C 
ATOM     13  C   LIG A   1      -5.715  -0.925 133.496  0.00  0.00    +0.190 C 
ATOM     14  C   LIG A   1      -5.702  -2.259 132.752  0.00  0.00    +0.149 C 
ATOM     15  C   LIG A   1      -4.230  -2.637 132.378  0.00  0.00    +0.170 C 
ATOM     16  C   LIG A   1      -3.884  -3.318 131.051  0.00  0.00    +0.059 C 
ATOM     17  C   LIG A   1      -3.359  -2.264 130.071  0.00  0.00    +0.037 C 
ATOM     18  C   LIG A   1      -4.366  -1.209 129.725  0.00  0.00    -0.030 C 
ATOM     19  C   LIG A   1      -4.413  -0.005 130.322  0.00  0.00    -0.024 C 
ATOM     20  C   LIG A   1      -5.364   1.077 129.854  0.00  0.00    +0.063 C 
ATOM     21  C   LIG A   1      -4.644   1.895 128.769  0.00  0.00    +0.148 C 
ATOM     22  C   LIG A   1      -4.920  -4.252 130.439  0.00  0.00    +0.016 C 
ATOM     23  O   LIG A   1      -3.298  -2.356 133.146  0.00  0.00    -0.294 OA
ATOM     24  C   LIG A   1      -6.153  -3.370 133.718  0.00  0.00    +0.052 C 
ATOM     25  O   LIG A   1      -7.021  -0.448 133.837  0.00  0.00    -0.361 OA
ATOM     26  C   LIG A   1      -7.673   4.215 128.057  0.00  0.00    +0.013 C 
ENDROOT
BRANCH  14  27
ATOM     27  O   LIG A   1      -6.646  -2.265 131.702  0.00  0.00    -0.379 OA
ATOM     28  H   LIG A   1      -6.528  -3.080 131.196  0.00  0.00    +0.211 HD
ENDBRANCH  14  27
BRANCH  21  29
ATOM     29  O   LIG A   1      -3.738   2.856 129.283  0.00  0.00    -0.387 OA
ATOM     30  H   LIG A   1      -3.329   2.483 130.086  0.00  0.00    +0.210 HD
ENDBRANCH  21  29
BRANCH   5  31
ATOM     31  C   LIG A   1      -7.125   5.762 130.982  0.00  0.00    +0.057 C 
BRANCH  31  32
ATOM     32  C   LIG A   1      -8.579   6.193 131.144  0.00  0.00    -0.046 A 
ATOM     33  C   LIG A   1      -9.289   5.912 132.324  0.00  0.00    +0.003 A 
ATOM     34  C   LIG A   1     -10.657   6.192 132.418  0.00  0.00    +0.000 A 
ATOM     35  C   LIG A   1     -11.329   6.767 131.343  0.00  0.00    +0.000 A 
ATOM     36  C   LIG A   1     -10.623   7.110 130.191  0.00  0.00    +0.000 A 
ATOM     37  C   LIG A   1      -9.255   6.835 130.097  0.00  0.00    +0.003 A 
ENDBRANCH  31  32
ENDBRANCH   5  31
BRANCH  11  38
ATOM     38  O   LIG A   1      -8.089   1.753 132.374  0.00  0.00    -0.458 OA
BRANCH  38  39
ATOM     39  C   LIG A   1      -9.315   1.316 131.977  0.00  0.00    +0.304 C 
ATOM     40  C   LIG A   1     -10.184   2.471 131.579  0.00  0.00    +0.136 C 
ATOM     41  O   LIG A   1      -9.659   0.149 131.875  0.00  0.00    -0.251 OA
ENDBRANCH  38  39
ENDBRANCH  11  38
TORSDOF 6
ENDMDL
MODEL 8
REMARK VINA RESULT:      -8.5      2.905      3.918
REMARK  Name = NuBBE_609
REMARK  10 active torsions:
REMARK  status: ('A' for Active; 'I' for Inactive)
REMARK    1  A    between atoms: C_3  and  C_48
REMARK    2  A    between atoms: C_6  and  C_10
REMARK    3  A    between atoms: C_10  and  C_11
REMARK    4  A    between atoms: C_20  and  O_22
REMARK    5  A    between atoms: O_22  and  C_23
REMARK    6  A    between atoms: C_23  and  C_24
REMARK    7  A    between atoms: C_30  and  O_31
REMARK    8  A    between atoms: C_30  and  C_45
REMARK    9  A    between atoms: C_33  and  C_43
REMARK   10  A    between atoms: C_40  and  O_42
REMARK                            x       y       z     vdW  Elec       q    Type
REMARK                         _______ _______ _______ _____ _____    ______ ____
ROOT
ATOM      1  C   LIG A   1      -5.273  -0.128 132.107  0.00  0.00    +0.010 C 
ATOM      2  C   LIG A   1      -6.063   0.799 131.531  0.00  0.00    -0.045 C 
ATOM      3  C   LIG A   1      -5.891   2.312 131.595  0.00  0.00    +0.020 C 
ATOM      4  C   LIG A   1      -5.975   3.039 130.197  0.00  0.00    +0.036 C 
ATOM      5  C   LIG A   1      -6.649   4.460 130.278  0.00  0.00    +0.082 C 
ATOM      6  N   LIG A   1      -8.019   4.152 129.974  0.00  0.00    -0.311 N 
ATOM      7  H   LIG A   1      -8.797   4.789 130.098  0.00  0.00    +0.149 HD
ATOM      8  C   LIG A   1      -6.844   2.305 129.054  0.00  0.00    +0.100 C 
ATOM      9  C   LIG A   1      -8.197   2.975 129.283  0.00  0.00    +0.224 C 
ATOM     10  O   LIG A   1      -9.274   2.580 128.894  0.00  0.00    -0.275 OA
ATOM     11  C   LIG A   1      -6.323   2.607 127.579  0.00  0.00    +0.224 C 
ATOM     12  C   LIG A   1      -7.392   2.714 126.507  0.00  0.00    +0.192 C 
ATOM     13  C   LIG A   1      -7.778   1.797 125.313  0.00  0.00    +0.190 C 
ATOM     14  C   LIG A   1      -7.279   0.428 124.855  0.00  0.00    +0.149 C 
ATOM     15  C   LIG A   1      -8.389  -0.646 125.103  0.00  0.00    +0.170 C 
ATOM     16  C   LIG A   1      -8.050  -2.066 125.566  0.00  0.00    +0.059 C 
ATOM     17  C   LIG A   1      -8.283  -2.167 127.076  0.00  0.00    +0.037 C 
ATOM     18  C   LIG A   1      -7.397  -1.265 127.882  0.00  0.00    -0.030 C 
ATOM     19  C   LIG A   1      -7.785  -0.062 128.340  0.00  0.00    -0.024 C 
ATOM     20  C   LIG A   1      -6.906   0.761 129.258  0.00  0.00    +0.063 C 
ATOM     21  C   LIG A   1      -7.233   0.357 130.705  0.00  0.00    +0.148 C 
ATOM     22  C   LIG A   1      -6.725  -2.665 125.114  0.00  0.00    +0.016 C 
ATOM     23  O   LIG A   1      -9.585  -0.352 124.962  0.00  0.00    -0.294 OA
ATOM     24  C   LIG A   1      -7.100   0.452 123.325  0.00  0.00    +0.052 C 
ATOM     25  O   LIG A   1      -6.818   2.851 125.190  0.00  0.00    -0.361 OA
ATOM     26  C   LIG A   1      -4.575   2.696 132.297  0.00  0.00    +0.013 C 
ENDROOT
BRANCH  14  27
ATOM     27  O   LIG A   1      -5.997   0.150 125.381  0.00  0.00    -0.379 OA
ATOM     28  H   LIG A   1      -5.705   0.923 125.883  0.00  0.00    +0.211 HD
ENDBRANCH  14  27
BRANCH  21  29
ATOM     29  O   LIG A   1      -8.406   0.964 131.219  0.00  0.00    -0.387 OA
ATOM     30  H   LIG A   1      -8.577   1.772 130.699  0.00  0.00    +0.210 HD
ENDBRANCH  21  29
BRANCH   5  31
ATOM     31  C   LIG A   1      -6.507   5.334 131.551  0.00  0.00    +0.057 C 
BRANCH  31  32
ATOM     32  C   LIG A   1      -5.267   6.222 131.535  0.00  0.00    -0.046 A 
ATOM     33  C   LIG A   1      -4.423   6.306 132.655  0.00  0.00    +0.003 A 
ATOM     34  C   LIG A   1      -3.363   7.218 132.684  0.00  0.00    +0.000 A 
ATOM     35  C   LIG A   1      -3.125   8.050 131.593  0.00  0.00    +0.000 A 
ATOM     36  C   LIG A   1      -3.915   7.931 130.451  0.00  0.00    +0.000 A 
ATOM     37  C   LIG A   1      -4.972   7.016 130.417  0.00  0.00    +0.003 A 
ENDBRANCH  31  32
ENDBRANCH   5  31
BRANCH  11  38
ATOM     38  O   LIG A   1      -5.596   3.863 127.557  0.00  0.00    -0.458 OA
BRANCH  38  39
ATOM     39  C   LIG A   1      -4.288   3.822 127.182  0.00  0.00    +0.304 C 
ATOM     40  C   LIG A   1      -3.546   5.008 127.725  0.00  0.00    +0.136 C 
ATOM     41  O   LIG A   1      -3.750   2.921 126.559  0.00  0.00    -0.251 OA
ENDBRANCH  38  39
ENDBRANCH  11  38
TORSDOF 6
ENDMDL
MODEL 9
REMARK VINA RESULT:      -8.5      3.369      6.002
REMARK  Name = NuBBE_609
REMARK  10 active torsions:
REMARK  status: ('A' for Active; 'I' for Inactive)
REMARK    1  A    between atoms: C_3  and  C_48
REMARK    2  A    between atoms: C_6  and  C_10
REMARK    3  A    between atoms: C_10  and  C_11
REMARK    4  A    between atoms: C_20  and  O_22
REMARK    5  A    between atoms: O_22  and  C_23
REMARK    6  A    between atoms: C_23  and  C_24
REMARK    7  A    between atoms: C_30  and  O_31
REMARK    8  A    between atoms: C_30  and  C_45
REMARK    9  A    between atoms: C_33  and  C_43
REMARK   10  A    between atoms: C_40  and  O_42
REMARK                            x       y       z     vdW  Elec       q    Type
REMARK                         _______ _______ _______ _____ _____    ______ ____
ROOT
ATOM      1  C   LIG A   1      -1.606   6.957 132.463  0.00  0.00    +0.010 C 
ATOM      2  C   LIG A   1      -2.388   5.916 132.814  0.00  0.00    -0.045 C 
ATOM      3  C   LIG A   1      -3.366   5.863 133.981  0.00  0.00    +0.020 C 
ATOM      4  C   LIG A   1      -4.803   5.330 133.607  0.00  0.00    +0.036 C 
ATOM      5  C   LIG A   1      -5.469   4.484 134.756  0.00  0.00    +0.082 C 
ATOM      6  N   LIG A   1      -5.097   3.147 134.388  0.00  0.00    -0.311 N 
ATOM      7  H   LIG A   1      -5.198   2.333 134.983  0.00  0.00    +0.149 HD
ATOM      8  C   LIG A   1      -4.896   4.334 132.342  0.00  0.00    +0.100 C 
ATOM      9  C   LIG A   1      -4.780   2.991 133.057  0.00  0.00    +0.224 C 
ATOM     10  O   LIG A   1      -4.496   1.926 132.554  0.00  0.00    -0.275 OA
ATOM     11  C   LIG A   1      -6.286   4.429 131.570  0.00  0.00    +0.224 C 
ATOM     12  C   LIG A   1      -6.813   3.128 130.991  0.00  0.00    +0.192 C 
ATOM     13  C   LIG A   1      -6.961   2.611 129.533  0.00  0.00    +0.190 C 
ATOM     14  C   LIG A   1      -6.547   3.189 128.181  0.00  0.00    +0.149 C 
ATOM     15  C   LIG A   1      -5.363   2.353 127.592  0.00  0.00    +0.170 C 
ATOM     16  C   LIG A   1      -4.217   3.009 126.818  0.00  0.00    +0.059 C 
ATOM     17  C   LIG A   1      -3.012   3.169 127.750  0.00  0.00    +0.037 C 
ATOM     18  C   LIG A   1      -3.272   4.073 128.918  0.00  0.00    -0.030 C 
ATOM     19  C   LIG A   1      -3.611   3.626 130.140  0.00  0.00    -0.024 C 
ATOM     20  C   LIG A   1      -3.739   4.564 131.323  0.00  0.00    +0.063 C 
ATOM     21  C   LIG A   1      -2.358   4.665 131.991  0.00  0.00    +0.148 C 
ATOM     22  C   LIG A   1      -4.529   4.262 126.010  0.00  0.00    +0.016 C 
ATOM     23  O   LIG A   1      -5.313   1.127 127.774  0.00  0.00    -0.294 OA
ATOM     24  C   LIG A   1      -7.700   2.986 127.181  0.00  0.00    +0.052 C 
ATOM     25  O   LIG A   1      -8.000   3.337 130.197  0.00  0.00    -0.361 OA
ATOM     26  C   LIG A   1      -3.488   7.234 134.672  0.00  0.00    +0.013 C 
ENDROOT
BRANCH  14  27
ATOM     27  O   LIG A   1      -6.358   4.588 128.262  0.00  0.00    -0.379 OA
ATOM     28  H   LIG A   1      -5.620   4.825 127.686  0.00  0.00    +0.211 HD
ENDBRANCH  14  27
BRANCH  21  29
ATOM     29  O   LIG A   1      -2.051   3.572 132.839  0.00  0.00    -0.387 OA
ATOM     30  H   LIG A   1      -2.730   3.535 133.539  0.00  0.00    +0.210 HD
ENDBRANCH  21  29
BRANCH   5  31
ATOM     31  C   LIG A   1      -5.167   4.794 136.245  0.00  0.00    +0.057 C 
BRANCH  31  32
ATOM     32  C   LIG A   1      -6.303   5.531 136.948  0.00  0.00    -0.046 A 
ATOM     33  C   LIG A   1      -7.366   6.088 136.217  0.00  0.00    +0.003 A 
ATOM     34  C   LIG A   1      -8.335   6.873 136.851  0.00  0.00    +0.000 A 
ATOM     35  C   LIG A   1      -8.262   7.102 138.222  0.00  0.00    +0.000 A 
ATOM     36  C   LIG A   1      -7.250   6.502 138.969  0.00  0.00    +0.000 A 
ATOM     37  C   LIG A   1      -6.283   5.712 138.338  0.00  0.00    +0.003 A 
ENDBRANCH  31  32
ENDBRANCH   5  31
BRANCH  11  38
ATOM     38  O   LIG A   1      -7.317   4.925 132.463  0.00  0.00    -0.458 OA
BRANCH  38  39
ATOM     39  C   LIG A   1      -7.935   6.088 132.119  0.00  0.00    +0.304 C 
ATOM     40  C   LIG A   1      -7.128   6.833 131.097  0.00  0.00    +0.136 C 
ATOM     41  O   LIG A   1      -9.030   6.459 132.512  0.00  0.00    -0.251 OA
ENDBRANCH  38  39
ENDBRANCH  11  38
TORSDOF 6
ENDMDL
