MODEL 1
REMARK VINA RESULT:      -5.4      0.000      0.000
REMARK  Name = NuBBE_1154
REMARK  13 active torsions:
REMARK  status: ('A' for Active; 'I' for Inactive)
REMARK    1  A    between atoms: C_2  and  O_3
REMARK    2  A    between atoms: C_2  and  C_5
REMARK    3  A    between atoms: O_3  and  C_4
REMARK    4  A    between atoms: C_5  and  C_6
REMARK    5  A    between atoms: C_6  and  C_7
REMARK    6  A    between atoms: C_7  and  C_8
REMARK    7  A    between atoms: C_8  and  C_9
REMARK    8  A    between atoms: C_9  and  C_10
REMARK    9  A    between atoms: C_10  and  C_11
REMARK   10  A    between atoms: C_11  and  C_12
REMARK   11  A    between atoms: C_12  and  C_13
REMARK   12  A    between atoms: C_13  and  C_14
REMARK   13  A    between atoms: C_14  and  C_15
REMARK                            x       y       z     vdW  Elec       q    Type
REMARK                         _______ _______ _______ _____ _____    ______ ____
ROOT
ATOM      1  C   LIG A   1      -7.589  -2.007 128.109  0.00  0.00    -0.000 C 
ENDROOT
BRANCH   1   2
ATOM      2  C   LIG A   1      -6.098  -2.252 127.866  0.00  0.00    -0.000 C 
BRANCH   2   3
ATOM      3  C   LIG A   1      -5.513  -1.238 126.882  0.00  0.00    +0.000 C 
BRANCH   3   4
ATOM      4  C   LIG A   1      -6.601  -0.298 126.360  0.00  0.00    +0.000 C 
BRANCH   4   5
ATOM      5  C   LIG A   1      -6.089   0.585 125.218  0.00  0.00    +0.011 C 
BRANCH   5   6
ATOM      6  C   LIG A   1      -7.213   1.331 124.499  0.00  0.00    +0.120 C 
BRANCH   6   8
ATOM      7  O   LIG A   1      -5.790   3.288 124.347  0.00  0.00    -0.251 OA
ATOM      8  C   LIG A   1      -6.771   2.663 123.955  0.00  0.00    +0.307 C 
BRANCH   8   9
ATOM      9  O   LIG A   1      -7.623   3.091 122.982  0.00  0.00    -0.468 OA
ATOM     10  C   LIG A   1      -8.901   2.454 123.014  0.00  0.00    +0.280 C 
ENDBRANCH   8   9
ENDBRANCH   6   8
ENDBRANCH   5   6
ENDBRANCH   4   5
ENDBRANCH   3   4
ENDBRANCH   2   3
ENDBRANCH   1   2
BRANCH   1  11
ATOM     11  C   LIG A   1      -8.306  -3.326 128.390  0.00  0.00    +0.000 C 
BRANCH  11  12
ATOM     12  C   LIG A   1      -9.096  -3.829 127.180  0.00  0.00    +0.000 C 
BRANCH  12  13
ATOM     13  C   LIG A   1      -9.299  -2.739 126.122  0.00  0.00    +0.005 C 
BRANCH  13  14
ATOM     14  C   LIG A   1      -9.190  -3.271 124.688  0.00  0.00    +0.035 C 
BRANCH  14  15
ATOM     15  C   LIG A   1      -7.827  -3.048 124.085  0.00  0.00    -0.047 A 
ATOM     16  C   LIG A   1      -6.721  -3.785 124.531  0.00  0.00    +0.003 A 
ATOM     17  C   LIG A   1      -5.460  -3.578 123.972  0.00  0.00    +0.000 A 
ATOM     18  C   LIG A   1      -5.291  -2.622 122.972  0.00  0.00    +0.000 A 
ATOM     19  C   LIG A   1      -6.380  -1.871 122.536  0.00  0.00    +0.000 A 
ATOM     20  C   LIG A   1      -7.643  -2.081 123.091  0.00  0.00    +0.003 A 
ENDBRANCH  14  15
ENDBRANCH  13  14
ENDBRANCH  12  13
ENDBRANCH  11  12
ENDBRANCH   1  11
TORSDOF 12
ENDMDL
MODEL 2
REMARK VINA RESULT:      -5.0      1.516      3.011
REMARK  Name = NuBBE_1154
REMARK  13 active torsions:
REMARK  status: ('A' for Active; 'I' for Inactive)
REMARK    1  A    between atoms: C_2  and  O_3
REMARK    2  A    between atoms: C_2  and  C_5
REMARK    3  A    between atoms: O_3  and  C_4
REMARK    4  A    between atoms: C_5  and  C_6
REMARK    5  A    between atoms: C_6  and  C_7
REMARK    6  A    between atoms: C_7  and  C_8
REMARK    7  A    between atoms: C_8  and  C_9
REMARK    8  A    between atoms: C_9  and  C_10
REMARK    9  A    between atoms: C_10  and  C_11
REMARK   10  A    between atoms: C_11  and  C_12
REMARK   11  A    between atoms: C_12  and  C_13
REMARK   12  A    between atoms: C_13  and  C_14
REMARK   13  A    between atoms: C_14  and  C_15
REMARK                            x       y       z     vdW  Elec       q    Type
REMARK                         _______ _______ _______ _____ _____    ______ ____
ROOT
ATOM      1  C   LIG A   1      -7.242   0.466 126.999  0.00  0.00    -0.000 C 
ENDROOT
BRANCH   1   2
ATOM      2  C   LIG A   1      -8.692   0.938 127.132  0.00  0.00    -0.000 C 
BRANCH   2   3
ATOM      3  C   LIG A   1      -9.523   0.555 125.908  0.00  0.00    +0.000 C 
BRANCH   3   4
ATOM      4  C   LIG A   1      -8.691   0.669 124.629  0.00  0.00    +0.000 C 
BRANCH   4   5
ATOM      5  C   LIG A   1      -9.368   1.568 123.590  0.00  0.00    +0.011 C 
BRANCH   5   6
ATOM      6  C   LIG A   1      -8.539   2.808 123.254  0.00  0.00    +0.120 C 
BRANCH   6   8
ATOM      7  O   LIG A   1      -8.778   4.164 125.250  0.00  0.00    -0.251 OA
ATOM      8  C   LIG A   1      -8.056   3.535 124.481  0.00  0.00    +0.307 C 
BRANCH   8   9
ATOM      9  O   LIG A   1      -6.706   3.417 124.610  0.00  0.00    -0.468 OA
ATOM     10  C   LIG A   1      -5.971   4.019 123.543  0.00  0.00    +0.280 C 
ENDBRANCH   8   9
ENDBRANCH   6   8
ENDBRANCH   5   6
ENDBRANCH   4   5
ENDBRANCH   3   4
ENDBRANCH   2   3
ENDBRANCH   1   2
BRANCH   1  11
ATOM     11  C   LIG A   1      -6.774  -0.187 128.298  0.00  0.00    +0.000 C 
BRANCH  11  12
ATOM     12  C   LIG A   1      -7.729  -1.284 128.776  0.00  0.00    +0.000 C 
BRANCH  12  13
ATOM     13  C   LIG A   1      -7.404  -2.649 128.160  0.00  0.00    +0.005 C 
BRANCH  13  14
ATOM     14  C   LIG A   1      -8.553  -3.211 127.315  0.00  0.00    +0.035 C 
BRANCH  14  15
ATOM     15  C   LIG A   1      -8.350  -2.995 125.837  0.00  0.00    -0.047 A 
ATOM     16  C   LIG A   1      -9.426  -3.111 124.945  0.00  0.00    +0.003 A 
ATOM     17  C   LIG A   1      -9.236  -2.911 123.578  0.00  0.00    +0.000 A 
ATOM     18  C   LIG A   1      -7.968  -2.607 123.089  0.00  0.00    +0.000 A 
ATOM     19  C   LIG A   1      -6.889  -2.508 123.965  0.00  0.00    +0.000 A 
ATOM     20  C   LIG A   1      -7.077  -2.704 125.333  0.00  0.00    +0.003 A 
ENDBRANCH  14  15
ENDBRANCH  13  14
ENDBRANCH  12  13
ENDBRANCH  11  12
ENDBRANCH   1  11
TORSDOF 12
ENDMDL
MODEL 3
REMARK VINA RESULT:      -5.0      1.669      2.296
REMARK  Name = NuBBE_1154
REMARK  13 active torsions:
REMARK  status: ('A' for Active; 'I' for Inactive)
REMARK    1  A    between atoms: C_2  and  O_3
REMARK    2  A    between atoms: C_2  and  C_5
REMARK    3  A    between atoms: O_3  and  C_4
REMARK    4  A    between atoms: C_5  and  C_6
REMARK    5  A    between atoms: C_6  and  C_7
REMARK    6  A    between atoms: C_7  and  C_8
REMARK    7  A    between atoms: C_8  and  C_9
REMARK    8  A    between atoms: C_9  and  C_10
REMARK    9  A    between atoms: C_10  and  C_11
REMARK   10  A    between atoms: C_11  and  C_12
REMARK   11  A    between atoms: C_12  and  C_13
REMARK   12  A    between atoms: C_13  and  C_14
REMARK   13  A    between atoms: C_14  and  C_15
REMARK                            x       y       z     vdW  Elec       q    Type
REMARK                         _______ _______ _______ _____ _____    ______ ____
ROOT
ATOM      1  C   LIG A   1      -7.917  -2.191 129.456  0.00  0.00    -0.000 C 
ENDROOT
BRANCH   1   2
ATOM      2  C   LIG A   1      -7.035  -1.115 128.819  0.00  0.00    -0.000 C 
BRANCH   2   3
ATOM      3  C   LIG A   1      -5.785  -1.718 128.178  0.00  0.00    +0.000 C 
BRANCH   3   4
ATOM      4  C   LIG A   1      -5.484  -1.047 126.836  0.00  0.00    +0.000 C 
BRANCH   4   5
ATOM      5  C   LIG A   1      -6.718  -0.340 126.267  0.00  0.00    +0.011 C 
BRANCH   5   6
ATOM      6  C   LIG A   1      -6.374   0.975 125.567  0.00  0.00    +0.120 C 
BRANCH   6   8
ATOM      7  O   LIG A   1      -6.281   2.429 127.505  0.00  0.00    -0.251 OA
ATOM      8  C   LIG A   1      -5.746   1.981 126.495  0.00  0.00    +0.307 C 
BRANCH   8   9
ATOM      9  O   LIG A   1      -4.511   2.342 126.049  0.00  0.00    -0.468 OA
ATOM     10  C   LIG A   1      -3.626   2.767 127.085  0.00  0.00    +0.280 C 
ENDBRANCH   8   9
ENDBRANCH   6   8
ENDBRANCH   5   6
ENDBRANCH   4   5
ENDBRANCH   3   4
ENDBRANCH   2   3
ENDBRANCH   1   2
BRANCH   1  11
ATOM     11  C   LIG A   1      -7.756  -3.518 128.715  0.00  0.00    +0.000 C 
BRANCH  11  12
ATOM     12  C   LIG A   1      -9.001  -3.889 127.906  0.00  0.00    +0.000 C 
BRANCH  12  13
ATOM     13  C   LIG A   1      -9.004  -3.251 126.513  0.00  0.00    +0.005 C 
BRANCH  13  14
ATOM     14  C   LIG A   1      -8.340  -4.134 125.451  0.00  0.00    +0.035 C 
BRANCH  14  15
ATOM     15  C   LIG A   1      -7.578  -3.337 124.423  0.00  0.00    -0.047 A 
ATOM     16  C   LIG A   1      -6.190  -3.487 124.290  0.00  0.00    +0.003 A 
ATOM     17  C   LIG A   1      -5.487  -2.749 123.338  0.00  0.00    +0.000 A 
ATOM     18  C   LIG A   1      -6.162  -1.845 122.520  0.00  0.00    +0.000 A 
ATOM     19  C   LIG A   1      -7.538  -1.676 122.658  0.00  0.00    +0.000 A 
ATOM     20  C   LIG A   1      -8.244  -2.416 123.607  0.00  0.00    +0.003 A 
ENDBRANCH  14  15
ENDBRANCH  13  14
ENDBRANCH  12  13
ENDBRANCH  11  12
ENDBRANCH   1  11
TORSDOF 12
ENDMDL
MODEL 4
REMARK VINA RESULT:      -4.9      2.403      4.594
REMARK  Name = NuBBE_1154
REMARK  13 active torsions:
REMARK  status: ('A' for Active; 'I' for Inactive)
REMARK    1  A    between atoms: C_2  and  O_3
REMARK    2  A    between atoms: C_2  and  C_5
REMARK    3  A    between atoms: O_3  and  C_4
REMARK    4  A    between atoms: C_5  and  C_6
REMARK    5  A    between atoms: C_6  and  C_7
REMARK    6  A    between atoms: C_7  and  C_8
REMARK    7  A    between atoms: C_8  and  C_9
REMARK    8  A    between atoms: C_9  and  C_10
REMARK    9  A    between atoms: C_10  and  C_11
REMARK   10  A    between atoms: C_11  and  C_12
REMARK   11  A    between atoms: C_12  and  C_13
REMARK   12  A    between atoms: C_13  and  C_14
REMARK   13  A    between atoms: C_14  and  C_15
REMARK                            x       y       z     vdW  Elec       q    Type
REMARK                         _______ _______ _______ _____ _____    ______ ____
ROOT
ATOM      1  C   LIG A   1      -8.277  -4.061 124.903  0.00  0.00    -0.000 C 
ENDROOT
BRANCH   1   2
ATOM      2  C   LIG A   1      -6.998  -3.506 124.273  0.00  0.00    -0.000 C 
BRANCH   2   3
ATOM      3  C   LIG A   1      -6.246  -2.590 125.239  0.00  0.00    +0.000 C 
BRANCH   3   4
ATOM      4  C   LIG A   1      -5.826  -1.294 124.543  0.00  0.00    +0.000 C 
BRANCH   4   5
ATOM      5  C   LIG A   1      -6.845  -0.172 124.770  0.00  0.00    +0.011 C 
BRANCH   5   6
ATOM      6  C   LIG A   1      -7.662   0.145 123.518  0.00  0.00    +0.120 C 
BRANCH   6   8
ATOM      7  O   LIG A   1      -9.511  -1.279 122.858  0.00  0.00    -0.251 OA
ATOM      8  C   LIG A   1      -9.065  -0.397 123.586  0.00  0.00    +0.307 C 
BRANCH   8   9
ATOM      9  O   LIG A   1      -9.780   0.242 124.554  0.00  0.00    -0.468 OA
ATOM     10  C   LIG A   1     -10.048   1.614 124.261  0.00  0.00    +0.280 C 
ENDBRANCH   8   9
ENDBRANCH   6   8
ENDBRANCH   5   6
ENDBRANCH   4   5
ENDBRANCH   3   4
ENDBRANCH   2   3
ENDBRANCH   1   2
BRANCH   1  11
ATOM     11  C   LIG A   1      -8.835  -3.076 125.929  0.00  0.00    +0.000 C 
BRANCH  11  12
ATOM     12  C   LIG A   1      -8.884  -3.669 127.340  0.00  0.00    +0.000 C 
BRANCH  12  13
ATOM     13  C   LIG A   1      -8.290  -2.724 128.390  0.00  0.00    +0.005 C 
BRANCH  13  14
ATOM     14  C   LIG A   1      -7.816  -3.456 129.651  0.00  0.00    +0.035 C 
BRANCH  14  15
ATOM     15  C   LIG A   1      -6.316  -3.453 129.798  0.00  0.00    -0.047 A 
ATOM     16  C   LIG A   1      -5.706  -4.067 130.901  0.00  0.00    +0.003 A 
ATOM     17  C   LIG A   1      -4.318  -4.064 131.036  0.00  0.00    +0.000 A 
ATOM     18  C   LIG A   1      -3.528  -3.434 130.076  0.00  0.00    +0.000 A 
ATOM     19  C   LIG A   1      -4.125  -2.804 128.986  0.00  0.00    +0.000 A 
ATOM     20  C   LIG A   1      -5.514  -2.811 128.848  0.00  0.00    +0.003 A 
ENDBRANCH  14  15
ENDBRANCH  13  14
ENDBRANCH  12  13
ENDBRANCH  11  12
ENDBRANCH   1  11
TORSDOF 12
ENDMDL
MODEL 5
REMARK VINA RESULT:      -4.9      1.894      2.649
REMARK  Name = NuBBE_1154
REMARK  13 active torsions:
REMARK  status: ('A' for Active; 'I' for Inactive)
REMARK    1  A    between atoms: C_2  and  O_3
REMARK    2  A    between atoms: C_2  and  C_5
REMARK    3  A    between atoms: O_3  and  C_4
REMARK    4  A    between atoms: C_5  and  C_6
REMARK    5  A    between atoms: C_6  and  C_7
REMARK    6  A    between atoms: C_7  and  C_8
REMARK    7  A    between atoms: C_8  and  C_9
REMARK    8  A    between atoms: C_9  and  C_10
REMARK    9  A    between atoms: C_10  and  C_11
REMARK   10  A    between atoms: C_11  and  C_12
REMARK   11  A    between atoms: C_12  and  C_13
REMARK   12  A    between atoms: C_13  and  C_14
REMARK   13  A    between atoms: C_14  and  C_15
REMARK                            x       y       z     vdW  Elec       q    Type
REMARK                         _______ _______ _______ _____ _____    ______ ____
ROOT
ATOM      1  C   LIG A   1      -7.947  -1.654 130.357  0.00  0.00    -0.000 C 
ENDROOT
BRANCH   1   2
ATOM      2  C   LIG A   1      -7.169  -0.379 130.021  0.00  0.00    -0.000 C 
BRANCH   2   3
ATOM      3  C   LIG A   1      -7.825   0.396 128.878  0.00  0.00    +0.000 C 
BRANCH   3   4
ATOM      4  C   LIG A   1      -6.779   0.844 127.854  0.00  0.00    +0.000 C 
BRANCH   4   5
ATOM      5  C   LIG A   1      -7.390   1.026 126.462  0.00  0.00    +0.011 C 
BRANCH   5   6
ATOM      6  C   LIG A   1      -8.919   1.006 126.481  0.00  0.00    +0.120 C 
BRANCH   6   8
ATOM      7  O   LIG A   1     -10.036   0.239 124.470  0.00  0.00    -0.251 OA
ATOM      8  C   LIG A   1      -9.520   1.152 125.108  0.00  0.00    +0.307 C 
BRANCH   8   9
ATOM      9  O   LIG A   1      -9.392   2.432 124.662  0.00  0.00    -0.468 OA
ATOM     10  C   LIG A   1      -9.065   2.529 123.274  0.00  0.00    +0.280 C 
ENDBRANCH   8   9
ENDBRANCH   6   8
ENDBRANCH   5   6
ENDBRANCH   4   5
ENDBRANCH   3   4
ENDBRANCH   2   3
ENDBRANCH   1   2
BRANCH   1  11
ATOM     11  C   LIG A   1      -7.521  -2.795 129.435  0.00  0.00    +0.000 C 
BRANCH  11  12
ATOM     12  C   LIG A   1      -8.711  -3.621 128.941  0.00  0.00    +0.000 C 
BRANCH  12  13
ATOM     13  C   LIG A   1      -8.820  -3.631 127.412  0.00  0.00    +0.005 C 
BRANCH  13  14
ATOM     14  C   LIG A   1      -7.770  -2.743 126.734  0.00  0.00    +0.035 C 
BRANCH  14  15
ATOM     15  C   LIG A   1      -8.006  -2.587 125.253  0.00  0.00    -0.047 A 
ATOM     16  C   LIG A   1      -7.125  -1.833 124.466  0.00  0.00    +0.003 A 
ATOM     17  C   LIG A   1      -7.345  -1.689 123.096  0.00  0.00    +0.000 A 
ATOM     18  C   LIG A   1      -8.455  -2.287 122.504  0.00  0.00    +0.000 A 
ATOM     19  C   LIG A   1      -9.347  -3.023 123.281  0.00  0.00    +0.000 A 
ATOM     20  C   LIG A   1      -9.126  -3.171 124.651  0.00  0.00    +0.003 A 
ENDBRANCH  14  15
ENDBRANCH  13  14
ENDBRANCH  12  13
ENDBRANCH  11  12
ENDBRANCH   1  11
TORSDOF 12
ENDMDL
MODEL 6
REMARK VINA RESULT:      -4.9      1.187      3.767
REMARK  Name = NuBBE_1154
REMARK  13 active torsions:
REMARK  status: ('A' for Active; 'I' for Inactive)
REMARK    1  A    between atoms: C_2  and  O_3
REMARK    2  A    between atoms: C_2  and  C_5
REMARK    3  A    between atoms: O_3  and  C_4
REMARK    4  A    between atoms: C_5  and  C_6
REMARK    5  A    between atoms: C_6  and  C_7
REMARK    6  A    between atoms: C_7  and  C_8
REMARK    7  A    between atoms: C_8  and  C_9
REMARK    8  A    between atoms: C_9  and  C_10
REMARK    9  A    between atoms: C_10  and  C_11
REMARK   10  A    between atoms: C_11  and  C_12
REMARK   11  A    between atoms: C_12  and  C_13
REMARK   12  A    between atoms: C_13  and  C_14
REMARK   13  A    between atoms: C_14  and  C_15
REMARK                            x       y       z     vdW  Elec       q    Type
REMARK                         _______ _______ _______ _____ _____    ______ ____
ROOT
ATOM      1  C   LIG A   1      -6.616  -2.720 123.750  0.00  0.00    -0.000 C 
ENDROOT
BRANCH   1   2
ATOM      2  C   LIG A   1      -5.472  -2.352 124.698  0.00  0.00    -0.000 C 
BRANCH   2   3
ATOM      3  C   LIG A   1      -5.633  -0.937 125.252  0.00  0.00    +0.000 C 
BRANCH   3   4
ATOM      4  C   LIG A   1      -6.676  -0.155 124.451  0.00  0.00    +0.000 C 
BRANCH   4   5
ATOM      5  C   LIG A   1      -7.160   1.085 125.209  0.00  0.00    +0.011 C 
BRANCH   5   6
ATOM      6  C   LIG A   1      -6.273   2.307 124.970  0.00  0.00    +0.120 C 
BRANCH   6   8
ATOM      7  O   LIG A   1      -5.942   3.692 123.007  0.00  0.00    -0.251 OA
ATOM      8  C   LIG A   1      -6.707   3.115 123.776  0.00  0.00    +0.307 C 
BRANCH   8   9
ATOM      9  O   LIG A   1      -8.065   3.139 123.678  0.00  0.00    -0.468 OA
ATOM     10  C   LIG A   1      -8.550   2.968 122.346  0.00  0.00    +0.280 C 
ENDBRANCH   8   9
ENDBRANCH   6   8
ENDBRANCH   5   6
ENDBRANCH   4   5
ENDBRANCH   3   4
ENDBRANCH   2   3
ENDBRANCH   1   2
BRANCH   1  11
ATOM     11  C   LIG A   1      -7.516  -3.776 124.388  0.00  0.00    +0.000 C 
BRANCH  11  12
ATOM     12  C   LIG A   1      -8.986  -3.349 124.416  0.00  0.00    +0.000 C 
BRANCH  12  13
ATOM     13  C   LIG A   1      -9.413  -2.819 125.790  0.00  0.00    +0.005 C 
BRANCH  13  14
ATOM     14  C   LIG A   1      -8.868  -3.660 126.950  0.00  0.00    +0.035 C 
BRANCH  14  15
ATOM     15  C   LIG A   1      -8.281  -2.819 128.055  0.00  0.00    -0.047 A 
ATOM     16  C   LIG A   1      -8.167  -3.330 129.355  0.00  0.00    +0.003 A 
ATOM     17  C   LIG A   1      -7.624  -2.551 130.377  0.00  0.00    +0.000 A 
ATOM     18  C   LIG A   1      -7.203  -1.249 130.110  0.00  0.00    +0.000 A 
ATOM     19  C   LIG A   1      -7.329  -0.726 128.824  0.00  0.00    +0.000 A 
ATOM     20  C   LIG A   1      -7.869  -1.506 127.801  0.00  0.00    +0.003 A 
ENDBRANCH  14  15
ENDBRANCH  13  14
ENDBRANCH  12  13
ENDBRANCH  11  12
ENDBRANCH   1  11
TORSDOF 12
ENDMDL
MODEL 7
REMARK VINA RESULT:      -4.8      2.830      5.577
REMARK  Name = NuBBE_1154
REMARK  13 active torsions:
REMARK  status: ('A' for Active; 'I' for Inactive)
REMARK    1  A    between atoms: C_2  and  O_3
REMARK    2  A    between atoms: C_2  and  C_5
REMARK    3  A    between atoms: O_3  and  C_4
REMARK    4  A    between atoms: C_5  and  C_6
REMARK    5  A    between atoms: C_6  and  C_7
REMARK    6  A    between atoms: C_7  and  C_8
REMARK    7  A    between atoms: C_8  and  C_9
REMARK    8  A    between atoms: C_9  and  C_10
REMARK    9  A    between atoms: C_10  and  C_11
REMARK   10  A    between atoms: C_11  and  C_12
REMARK   11  A    between atoms: C_12  and  C_13
REMARK   12  A    between atoms: C_13  and  C_14
REMARK   13  A    between atoms: C_14  and  C_15
REMARK                            x       y       z     vdW  Elec       q    Type
REMARK                         _______ _______ _______ _____ _____    ______ ____
ROOT
ATOM      1  C   LIG A   1      -6.305  -1.579 125.999  0.00  0.00    -0.000 C 
ENDROOT
BRANCH   1   2
ATOM      2  C   LIG A   1      -5.723  -2.745 125.197  0.00  0.00    -0.000 C 
BRANCH   2   3
ATOM      3  C   LIG A   1      -6.505  -2.988 123.907  0.00  0.00    +0.000 C 
BRANCH   3   4
ATOM      4  C   LIG A   1      -7.834  -3.688 124.200  0.00  0.00    +0.000 C 
BRANCH   4   5
ATOM      5  C   LIG A   1      -8.999  -3.030 123.454  0.00  0.00    +0.011 C 
BRANCH   5   6
ATOM      6  C   LIG A   1      -8.637  -1.655 122.891  0.00  0.00    +0.120 C 
BRANCH   6   8
ATOM      7  O   LIG A   1      -9.599  -0.665 124.884  0.00  0.00    -0.251 OA
ATOM      8  C   LIG A   1      -9.110  -0.526 123.767  0.00  0.00    +0.307 C 
BRANCH   8   9
ATOM      9  O   LIG A   1      -8.940   0.672 123.141  0.00  0.00    -0.468 OA
ATOM     10  C   LIG A   1      -9.848   1.684 123.577  0.00  0.00    +0.280 C 
ENDBRANCH   8   9
ENDBRANCH   6   8
ENDBRANCH   5   6
ENDBRANCH   4   5
ENDBRANCH   3   4
ENDBRANCH   2   3
ENDBRANCH   1   2
BRANCH   1  11
ATOM     11  C   LIG A   1      -6.679  -2.037 127.408  0.00  0.00    +0.000 C 
BRANCH  11  12
ATOM     12  C   LIG A   1      -8.087  -2.636 127.472  0.00  0.00    +0.000 C 
BRANCH  12  13
ATOM     13  C   LIG A   1      -8.410  -3.218 128.852  0.00  0.00    +0.005 C 
BRANCH  13  14
ATOM     14  C   LIG A   1      -7.712  -2.470 129.994  0.00  0.00    +0.035 C 
BRANCH  14  15
ATOM     15  C   LIG A   1      -6.911  -3.384 130.886  0.00  0.00    -0.047 A 
ATOM     16  C   LIG A   1      -6.089  -4.377 130.336  0.00  0.00    +0.003 A 
ATOM     17  C   LIG A   1      -5.349  -5.222 131.164  0.00  0.00    +0.000 A 
ATOM     18  C   LIG A   1      -5.435  -5.089 132.548  0.00  0.00    +0.000 A 
ATOM     19  C   LIG A   1      -6.264  -4.118 133.104  0.00  0.00    +0.000 A 
ATOM     20  C   LIG A   1      -7.002  -3.269 132.278  0.00  0.00    +0.003 A 
ENDBRANCH  14  15
ENDBRANCH  13  14
ENDBRANCH  12  13
ENDBRANCH  11  12
ENDBRANCH   1  11
TORSDOF 12
ENDMDL
MODEL 8
REMARK VINA RESULT:      -4.8      1.796      4.080
REMARK  Name = NuBBE_1154
REMARK  13 active torsions:
REMARK  status: ('A' for Active; 'I' for Inactive)
REMARK    1  A    between atoms: C_2  and  O_3
REMARK    2  A    between atoms: C_2  and  C_5
REMARK    3  A    between atoms: O_3  and  C_4
REMARK    4  A    between atoms: C_5  and  C_6
REMARK    5  A    between atoms: C_6  and  C_7
REMARK    6  A    between atoms: C_7  and  C_8
REMARK    7  A    between atoms: C_8  and  C_9
REMARK    8  A    between atoms: C_9  and  C_10
REMARK    9  A    between atoms: C_10  and  C_11
REMARK   10  A    between atoms: C_11  and  C_12
REMARK   11  A    between atoms: C_12  and  C_13
REMARK   12  A    between atoms: C_13  and  C_14
REMARK   13  A    between atoms: C_14  and  C_15
REMARK                            x       y       z     vdW  Elec       q    Type
REMARK                         _______ _______ _______ _____ _____    ______ ____
ROOT
ATOM      1  C   LIG A   1      -9.166  -0.709 122.995  0.00  0.00    -0.000 C 
ENDROOT
BRANCH   1   2
ATOM      2  C   LIG A   1      -8.560   0.031 124.190  0.00  0.00    -0.000 C 
BRANCH   2   3
ATOM      3  C   LIG A   1      -9.559   0.156 125.340  0.00  0.00    +0.000 C 
BRANCH   3   4
ATOM      4  C   LIG A   1      -8.959   0.959 126.496  0.00  0.00    +0.000 C 
BRANCH   4   5
ATOM      5  C   LIG A   1      -7.547   1.456 126.169  0.00  0.00    +0.011 C 
BRANCH   5   6
ATOM      6  C   LIG A   1      -7.394   2.965 126.362  0.00  0.00    +0.120 C 
BRANCH   6   8
ATOM      7  O   LIG A   1      -8.600   3.573 124.348  0.00  0.00    -0.251 OA
ATOM      8  C   LIG A   1      -7.640   3.740 125.095  0.00  0.00    +0.307 C 
BRANCH   8   9
ATOM      9  O   LIG A   1      -6.639   4.638 124.879  0.00  0.00    -0.468 OA
ATOM     10  C   LIG A   1      -5.366   4.035 124.640  0.00  0.00    +0.280 C 
ENDBRANCH   8   9
ENDBRANCH   6   8
ENDBRANCH   5   6
ENDBRANCH   4   5
ENDBRANCH   3   4
ENDBRANCH   2   3
ENDBRANCH   1   2
BRANCH   1  11
ATOM     11  C   LIG A   1      -8.495  -2.070 122.817  0.00  0.00    +0.000 C 
BRANCH  11  12
ATOM     12  C   LIG A   1      -9.263  -3.195 123.516  0.00  0.00    +0.000 C 
BRANCH  12  13
ATOM     13  C   LIG A   1      -8.539  -3.706 124.766  0.00  0.00    +0.005 C 
BRANCH  13  14
ATOM     14  C   LIG A   1      -9.262  -3.339 126.067  0.00  0.00    +0.035 C 
BRANCH  14  15
ATOM     15  C   LIG A   1      -8.312  -3.036 127.198  0.00  0.00    -0.047 A 
ATOM     16  C   LIG A   1      -8.580  -3.493 128.496  0.00  0.00    +0.003 A 
ATOM     17  C   LIG A   1      -7.700  -3.212 129.541  0.00  0.00    +0.000 A 
ATOM     18  C   LIG A   1      -6.551  -2.461 129.300  0.00  0.00    +0.000 A 
ATOM     19  C   LIG A   1      -6.286  -1.986 128.017  0.00  0.00    +0.000 A 
ATOM     20  C   LIG A   1      -7.164  -2.270 126.970  0.00  0.00    +0.003 A 
ENDBRANCH  14  15
ENDBRANCH  13  14
ENDBRANCH  12  13
ENDBRANCH  11  12
ENDBRANCH   1  11
TORSDOF 12
ENDMDL
MODEL 9
REMARK VINA RESULT:      -4.8      3.303      5.462
REMARK  Name = NuBBE_1154
REMARK  13 active torsions:
REMARK  status: ('A' for Active; 'I' for Inactive)
REMARK    1  A    between atoms: C_2  and  O_3
REMARK    2  A    between atoms: C_2  and  C_5
REMARK    3  A    between atoms: O_3  and  C_4
REMARK    4  A    between atoms: C_5  and  C_6
REMARK    5  A    between atoms: C_6  and  C_7
REMARK    6  A    between atoms: C_7  and  C_8
REMARK    7  A    between atoms: C_8  and  C_9
REMARK    8  A    between atoms: C_9  and  C_10
REMARK    9  A    between atoms: C_10  and  C_11
REMARK   10  A    between atoms: C_11  and  C_12
REMARK   11  A    between atoms: C_12  and  C_13
REMARK   12  A    between atoms: C_13  and  C_14
REMARK   13  A    between atoms: C_14  and  C_15
REMARK                            x       y       z     vdW  Elec       q    Type
REMARK                         _______ _______ _______ _____ _____    ______ ____
ROOT
ATOM      1  C   LIG A   1      -6.881   0.721 125.684  0.00  0.00    -0.000 C 
ENDROOT
BRANCH   1   2
ATOM      2  C   LIG A   1      -5.594  -0.100 125.798  0.00  0.00    -0.000 C 
BRANCH   2   3
ATOM      3  C   LIG A   1      -5.684  -1.138 126.917  0.00  0.00    +0.000 C 
BRANCH   3   4
ATOM      4  C   LIG A   1      -7.132  -1.312 127.381  0.00  0.00    +0.000 C 
BRANCH   4   5
ATOM      5  C   LIG A   1      -7.361  -2.683 128.023  0.00  0.00    +0.011 C 
BRANCH   5   6
ATOM      6  C   LIG A   1      -8.046  -2.589 129.386  0.00  0.00    +0.120 C 
BRANCH   6   8
ATOM      7  O   LIG A   1      -7.251  -2.885 131.658  0.00  0.00    -0.251 OA
ATOM      8  C   LIG A   1      -7.251  -3.245 130.484  0.00  0.00    +0.307 C 
BRANCH   8   9
ATOM      9  O   LIG A   1      -6.513  -4.279 129.991  0.00  0.00    -0.468 OA
ATOM     10  C   LIG A   1      -5.178  -4.326 130.497  0.00  0.00    +0.280 C 
ENDBRANCH   8   9
ENDBRANCH   6   8
ENDBRANCH   5   6
ENDBRANCH   4   5
ENDBRANCH   3   4
ENDBRANCH   2   3
ENDBRANCH   1   2
BRANCH   1  11
ATOM     11  C   LIG A   1      -6.805   1.666 124.487  0.00  0.00    +0.000 C 
BRANCH  11  12
ATOM     12  C   LIG A   1      -7.752   1.254 123.357  0.00  0.00    +0.000 C 
BRANCH  12  13
ATOM     13  C   LIG A   1      -8.757   0.186 123.799  0.00  0.00    +0.005 C 
BRANCH  13  14
ATOM     14  C   LIG A   1      -8.726  -1.066 122.916  0.00  0.00    +0.035 C 
BRANCH  14  15
ATOM     15  C   LIG A   1      -7.603  -2.006 123.276  0.00  0.00    -0.047 A 
ATOM     16  C   LIG A   1      -7.812  -3.050 124.188  0.00  0.00    +0.003 A 
ATOM     17  C   LIG A   1      -6.773  -3.918 124.520  0.00  0.00    +0.000 A 
ATOM     18  C   LIG A   1      -5.512  -3.743 123.954  0.00  0.00    +0.000 A 
ATOM     19  C   LIG A   1      -5.290  -2.697 123.060  0.00  0.00    +0.000 A 
ATOM     20  C   LIG A   1      -6.330  -1.830 122.724  0.00  0.00    +0.003 A 
ENDBRANCH  14  15
ENDBRANCH  13  14
ENDBRANCH  12  13
ENDBRANCH  11  12
ENDBRANCH   1  11
TORSDOF 12
ENDMDL
