MODEL 1
REMARK VINA RESULT:      -7.6      0.000      0.000
REMARK  Name = NuBBE_436
REMARK  4 active torsions:
REMARK  status: ('A' for Active; 'I' for Inactive)
REMARK    1  A    between atoms: C_9  and  C_10
REMARK    2  A    between atoms: C_21  and  C_22
REMARK    3  A    between atoms: C_22  and  O_23
REMARK    4  A    between atoms: O_23  and  C_24
REMARK                            x       y       z     vdW  Elec       q    Type
REMARK                         _______ _______ _______ _____ _____    ______ ____
ROOT
ATOM      1  C   LIG A   1      -8.131   4.966 131.015  0.00  0.00    +0.065 C 
ATOM      2  C   LIG A   1      -7.961   6.450 130.818  0.00  0.00    -0.018 C 
ATOM      3  C   LIG A   1      -9.124   7.107 130.785  0.00  0.00    +0.020 C 
ATOM      4  C   LIG A   1     -10.276   6.174 130.946  0.00  0.00    +0.172 C 
ATOM      5  C   LIG A   1     -11.112   5.879 129.727  0.00  0.00    +0.207 C 
ATOM      6  C   LIG A   1     -12.285   6.748 129.952  0.00  0.00    +0.065 C 
ATOM      7  C   LIG A   1     -13.168   7.250 129.075  0.00  0.00    -0.017 C 
ATOM      8  C   LIG A   1     -13.177   6.981 127.605  0.00  0.00    +0.036 C 
ATOM      9  O   LIG A   1     -11.496   4.509 129.838  0.00  0.00    -0.329 OA
ATOM     10  O   LIG A   1     -11.159   6.634 131.965  0.00  0.00    -0.447 OA
ATOM     11  C   LIG A   1     -12.317   7.079 131.395  0.00  0.00    +0.338 C 
ATOM     12  O   LIG A   1     -13.214   7.650 131.984  0.00  0.00    -0.245 OA
ATOM     13  C   LIG A   1      -9.634   4.841 131.321  0.00  0.00    +0.120 C 
ATOM     14  C   LIG A   1     -10.443   3.815 130.529  0.00  0.00    +0.315 C 
ATOM     15  O   LIG A   1      -9.765   2.990 129.588  0.00  0.00    -0.470 OA
ATOM     16  C   LIG A   1      -8.478   3.261 129.261  0.00  0.00    +0.201 C 
ATOM     17  C   LIG A   1      -7.675   4.152 129.850  0.00  0.00    +0.078 C 
ENDROOT
BRANCH  17  18
ATOM     18  C   LIG A   1      -6.250   4.259 129.432  0.00  0.00    +0.338 C 
ATOM     19  O   LIG A   1      -5.317   3.883 130.126  0.00  0.00    -0.245 OA
BRANCH  18  20
ATOM     20  O   LIG A   1      -6.142   4.839 128.210  0.00  0.00    -0.465 OA
ATOM     21  C   LIG A   1      -4.999   4.436 127.455  0.00  0.00    +0.280 C 
ENDBRANCH  18  20
ENDBRANCH  17  18
TORSDOF 2
ENDMDL
MODEL 2
REMARK VINA RESULT:      -7.3      6.923      8.758
REMARK  Name = NuBBE_436
REMARK  4 active torsions:
REMARK  status: ('A' for Active; 'I' for Inactive)
REMARK    1  A    between atoms: C_9  and  C_10
REMARK    2  A    between atoms: C_21  and  C_22
REMARK    3  A    between atoms: C_22  and  O_23
REMARK    4  A    between atoms: O_23  and  C_24
REMARK                            x       y       z     vdW  Elec       q    Type
REMARK                         _______ _______ _______ _____ _____    ______ ____
ROOT
ATOM      1  C   LIG A   1      -8.590   0.223 125.071  0.00  0.00    +0.065 C 
ATOM      2  C   LIG A   1      -7.141   0.096 125.463  0.00  0.00    -0.018 C 
ATOM      3  C   LIG A   1      -6.429   1.192 125.184  0.00  0.00    +0.020 C 
ATOM      4  C   LIG A   1      -7.278   2.239 124.547  0.00  0.00    +0.172 C 
ATOM      5  C   LIG A   1      -7.091   2.488 123.072  0.00  0.00    +0.207 C 
ATOM      6  C   LIG A   1      -6.264   3.713 123.078  0.00  0.00    +0.065 C 
ATOM      7  C   LIG A   1      -5.438   4.200 122.140  0.00  0.00    -0.017 C 
ATOM      8  C   LIG A   1      -5.202   3.595 120.794  0.00  0.00    +0.036 C 
ATOM      9  O   LIG A   1      -8.388   2.783 122.557  0.00  0.00    -0.329 OA
ATOM     10  O   LIG A   1      -7.119   3.489 125.212  0.00  0.00    -0.447 OA
ATOM     11  C   LIG A   1      -6.429   4.348 124.405  0.00  0.00    +0.338 C 
ATOM     12  O   LIG A   1      -6.022   5.445 124.734  0.00  0.00    -0.245 OA
ATOM     13  C   LIG A   1      -8.702   1.708 124.684  0.00  0.00    +0.120 C 
ATOM     14  C   LIG A   1      -9.346   2.051 123.342  0.00  0.00    +0.315 C 
ATOM     15  O   LIG A   1      -9.858   0.994 122.540  0.00  0.00    -0.470 OA
ATOM     16  C   LIG A   1      -9.588  -0.293 122.871  0.00  0.00    +0.201 C 
ATOM     17  C   LIG A   1      -9.002  -0.722 123.993  0.00  0.00    +0.078 C 
ENDROOT
BRANCH  17  18
ATOM     18  C   LIG A   1      -8.865  -2.183 124.247  0.00  0.00    +0.338 C 
ATOM     19  O   LIG A   1      -8.074  -2.897 123.649  0.00  0.00    -0.245 OA
BRANCH  18  20
ATOM     20  O   LIG A   1      -9.739  -2.597 125.199  0.00  0.00    -0.465 OA
ATOM     21  C   LIG A   1      -9.134  -3.164 126.361  0.00  0.00    +0.280 C 
ENDBRANCH  18  20
ENDBRANCH  17  18
TORSDOF 2
ENDMDL
MODEL 3
REMARK VINA RESULT:      -7.3      2.368      5.388
REMARK  Name = NuBBE_436
REMARK  4 active torsions:
REMARK  status: ('A' for Active; 'I' for Inactive)
REMARK    1  A    between atoms: C_9  and  C_10
REMARK    2  A    between atoms: C_21  and  C_22
REMARK    3  A    between atoms: C_22  and  O_23
REMARK    4  A    between atoms: O_23  and  C_24
REMARK                            x       y       z     vdW  Elec       q    Type
REMARK                         _______ _______ _______ _____ _____    ______ ____
ROOT
ATOM      1  C   LIG A   1     -10.971   7.522 130.227  0.00  0.00    +0.065 C 
ATOM      2  C   LIG A   1     -11.976   7.157 131.288  0.00  0.00    -0.018 C 
ATOM      3  C   LIG A   1     -11.486   6.312 132.200  0.00  0.00    +0.020 C 
ATOM      4  C   LIG A   1     -10.069   5.958 131.902  0.00  0.00    +0.172 C 
ATOM      5  C   LIG A   1      -9.792   4.575 131.369  0.00  0.00    +0.207 C 
ATOM      6  C   LIG A   1      -9.304   3.880 132.579  0.00  0.00    +0.065 C 
ATOM      7  C   LIG A   1      -9.282   2.572 132.873  0.00  0.00    -0.017 C 
ATOM      8  C   LIG A   1      -9.732   1.472 131.966  0.00  0.00    +0.036 C 
ATOM      9  O   LIG A   1      -8.726   4.722 130.433  0.00  0.00    -0.329 OA
ATOM     10  O   LIG A   1      -9.250   6.141 133.053  0.00  0.00    -0.447 OA
ATOM     11  C   LIG A   1      -8.870   4.922 133.537  0.00  0.00    +0.338 C 
ATOM     12  O   LIG A   1      -8.276   4.737 134.582  0.00  0.00    -0.245 OA
ATOM     13  C   LIG A   1      -9.671   6.906 130.775  0.00  0.00    +0.120 C 
ATOM     14  C   LIG A   1      -8.846   6.025 129.837  0.00  0.00    +0.315 C 
ATOM     15  O   LIG A   1      -9.285   5.859 128.494  0.00  0.00    -0.470 OA
ATOM     16  C   LIG A   1     -10.512   6.302 128.128  0.00  0.00    +0.201 C 
ATOM     17  C   LIG A   1     -11.344   7.048 128.862  0.00  0.00    +0.078 C 
ENDROOT
BRANCH  17  18
ATOM     18  C   LIG A   1     -12.622   7.534 128.273  0.00  0.00    +0.338 C 
ATOM     19  O   LIG A   1     -13.586   6.811 128.072  0.00  0.00    -0.245 OA
BRANCH  18  20
ATOM     20  O   LIG A   1     -12.553   8.857 127.981  0.00  0.00    -0.465 OA
ATOM     21  C   LIG A   1     -13.484   9.676 128.689  0.00  0.00    +0.280 C 
ENDBRANCH  18  20
ENDBRANCH  17  18
TORSDOF 2
ENDMDL
MODEL 4
REMARK VINA RESULT:      -7.0      7.607      9.917
REMARK  Name = NuBBE_436
REMARK  4 active torsions:
REMARK  status: ('A' for Active; 'I' for Inactive)
REMARK    1  A    between atoms: C_9  and  C_10
REMARK    2  A    between atoms: C_21  and  C_22
REMARK    3  A    between atoms: C_22  and  O_23
REMARK    4  A    between atoms: O_23  and  C_24
REMARK                            x       y       z     vdW  Elec       q    Type
REMARK                         _______ _______ _______ _____ _____    ______ ____
ROOT
ATOM      1  C   LIG A   1      -7.882  -1.256 128.158  0.00  0.00    +0.065 C 
ATOM      2  C   LIG A   1      -6.538  -0.582 128.056  0.00  0.00    -0.018 C 
ATOM      3  C   LIG A   1      -6.027  -0.627 126.823  0.00  0.00    +0.020 C 
ATOM      4  C   LIG A   1      -6.935  -1.347 125.887  0.00  0.00    +0.172 C 
ATOM      5  C   LIG A   1      -6.528  -2.729 125.443  0.00  0.00    +0.207 C 
ATOM      6  C   LIG A   1      -5.986  -2.462 124.094  0.00  0.00    +0.065 C 
ATOM      7  C   LIG A   1      -5.115  -3.170 123.359  0.00  0.00    -0.017 C 
ATOM      8  C   LIG A   1      -4.510  -4.478 123.754  0.00  0.00    +0.036 C 
ATOM      9  O   LIG A   1      -7.737  -3.479 125.338  0.00  0.00    -0.329 OA
ATOM     10  O   LIG A   1      -7.165  -0.575 124.712  0.00  0.00    -0.447 OA
ATOM     11  C   LIG A   1      -6.526  -1.156 123.655  0.00  0.00    +0.338 C 
ATOM     12  O   LIG A   1      -6.422  -0.670 122.545  0.00  0.00    -0.245 OA
ATOM     13  C   LIG A   1      -8.220  -1.548 126.685  0.00  0.00    +0.120 C 
ATOM     14  C   LIG A   1      -8.655  -2.967 126.319  0.00  0.00    +0.315 C 
ATOM     15  O   LIG A   1      -8.779  -3.933 127.357  0.00  0.00    -0.470 OA
ATOM     16  C   LIG A   1      -8.318  -3.647 128.599  0.00  0.00    +0.201 C 
ATOM     17  C   LIG A   1      -7.880  -2.463 129.036  0.00  0.00    +0.078 C 
ENDROOT
BRANCH  17  18
ATOM     18  C   LIG A   1      -7.497  -2.293 130.465  0.00  0.00    +0.338 C 
ATOM     19  O   LIG A   1      -7.907  -1.380 131.165  0.00  0.00    -0.245 OA
BRANCH  18  20
ATOM     20  O   LIG A   1      -6.632  -3.262 130.857  0.00  0.00    -0.465 OA
ATOM     21  C   LIG A   1      -5.252  -2.942 130.681  0.00  0.00    +0.280 C 
ENDBRANCH  18  20
ENDBRANCH  17  18
TORSDOF 2
ENDMDL
MODEL 5
REMARK VINA RESULT:      -6.8      5.841      8.843
REMARK  Name = NuBBE_436
REMARK  4 active torsions:
REMARK  status: ('A' for Active; 'I' for Inactive)
REMARK    1  A    between atoms: C_9  and  C_10
REMARK    2  A    between atoms: C_21  and  C_22
REMARK    3  A    between atoms: C_22  and  O_23
REMARK    4  A    between atoms: O_23  and  C_24
REMARK                            x       y       z     vdW  Elec       q    Type
REMARK                         _______ _______ _______ _____ _____    ______ ____
ROOT
ATOM      1  C   LIG A   1      -9.132   2.003 125.176  0.00  0.00    +0.065 C 
ATOM      2  C   LIG A   1      -8.914   1.986 123.686  0.00  0.00    -0.018 C 
ATOM      3  C   LIG A   1      -8.726   0.754 123.202  0.00  0.00    +0.020 C 
ATOM      4  C   LIG A   1      -8.778  -0.266 124.287  0.00  0.00    +0.172 C 
ATOM      5  C   LIG A   1      -7.478  -0.900 124.713  0.00  0.00    +0.207 C 
ATOM      6  C   LIG A   1      -7.538  -2.202 124.017  0.00  0.00    +0.065 C 
ATOM      7  C   LIG A   1      -6.550  -3.034 123.657  0.00  0.00    -0.017 C 
ATOM      8  C   LIG A   1      -5.097  -2.828 123.942  0.00  0.00    +0.036 C 
ATOM      9  O   LIG A   1      -7.582  -1.099 126.122  0.00  0.00    -0.329 OA
ATOM     10  O   LIG A   1      -9.672  -1.321 123.945  0.00  0.00    -0.447 OA
ATOM     11  C   LIG A   1      -8.957  -2.453 123.677  0.00  0.00    +0.338 C 
ATOM     12  O   LIG A   1      -9.420  -3.486 123.232  0.00  0.00    -0.245 OA
ATOM     13  C   LIG A   1      -9.264   0.506 125.510  0.00  0.00    +0.120 C 
ATOM     14  C   LIG A   1      -8.412  -0.050 126.651  0.00  0.00    +0.315 C 
ATOM     15  O   LIG A   1      -7.582   0.845 127.382  0.00  0.00    -0.470 OA
ATOM     16  C   LIG A   1      -7.401   2.112 126.935  0.00  0.00    +0.201 C 
ATOM     17  C   LIG A   1      -8.054   2.705 125.931  0.00  0.00    +0.078 C 
ENDROOT
BRANCH  17  18
ATOM     18  C   LIG A   1      -7.803   4.141 125.627  0.00  0.00    +0.338 C 
ATOM     19  O   LIG A   1      -8.692   4.975 125.546  0.00  0.00    -0.245 OA
BRANCH  18  20
ATOM     20  O   LIG A   1      -6.480   4.376 125.437  0.00  0.00    -0.465 OA
ATOM     21  C   LIG A   1      -6.039   4.262 124.084  0.00  0.00    +0.280 C 
ENDBRANCH  18  20
ENDBRANCH  17  18
TORSDOF 2
ENDMDL
MODEL 6
REMARK VINA RESULT:      -6.8      2.109      5.739
REMARK  Name = NuBBE_436
REMARK  4 active torsions:
REMARK  status: ('A' for Active; 'I' for Inactive)
REMARK    1  A    between atoms: C_9  and  C_10
REMARK    2  A    between atoms: C_21  and  C_22
REMARK    3  A    between atoms: C_22  and  O_23
REMARK    4  A    between atoms: O_23  and  C_24
REMARK                            x       y       z     vdW  Elec       q    Type
REMARK                         _______ _______ _______ _____ _____    ______ ____
ROOT
ATOM      1  C   LIG A   1     -11.382   6.348 130.317  0.00  0.00    +0.065 C 
ATOM      2  C   LIG A   1     -11.708   4.891 130.108  0.00  0.00    -0.018 C 
ATOM      3  C   LIG A   1     -10.732   4.076 130.520  0.00  0.00    +0.020 C 
ATOM      4  C   LIG A   1      -9.579   4.847 131.067  0.00  0.00    +0.172 C 
ATOM      5  C   LIG A   1      -8.327   4.920 130.230  0.00  0.00    +0.207 C 
ATOM      6  C   LIG A   1      -7.468   3.915 130.889  0.00  0.00    +0.065 C 
ATOM      7  C   LIG A   1      -6.424   3.224 130.408  0.00  0.00    -0.017 C 
ATOM      8  C   LIG A   1      -5.848   3.367 129.037  0.00  0.00    +0.036 C 
ATOM      9  O   LIG A   1      -7.792   6.226 130.439  0.00  0.00    -0.329 OA
ATOM     10  O   LIG A   1      -9.205   4.352 132.349  0.00  0.00    -0.447 OA
ATOM     11  C   LIG A   1      -8.007   3.702 132.252  0.00  0.00    +0.338 C 
ATOM     12  O   LIG A   1      -7.484   3.060 133.142  0.00  0.00    -0.245 OA
ATOM     13  C   LIG A   1     -10.088   6.283 131.148  0.00  0.00    +0.120 C 
ATOM     14  C   LIG A   1      -8.896   7.116 130.680  0.00  0.00    +0.315 C 
ATOM     15  O   LIG A   1      -9.050   7.949 129.537  0.00  0.00    -0.470 OA
ATOM     16  C   LIG A   1     -10.162   7.838 128.769  0.00  0.00    +0.201 C 
ATOM     17  C   LIG A   1     -11.255   7.120 129.046  0.00  0.00    +0.078 C 
ENDROOT
BRANCH  17  18
ATOM     18  C   LIG A   1     -12.434   7.181 128.139  0.00  0.00    +0.338 C 
ATOM     19  O   LIG A   1     -12.444   6.696 127.018  0.00  0.00    -0.245 OA
BRANCH  18  20
ATOM     20  O   LIG A   1     -13.460   7.856 128.717  0.00  0.00    -0.465 OA
ATOM     21  C   LIG A   1     -13.419   9.273 128.542  0.00  0.00    +0.280 C 
ENDBRANCH  18  20
ENDBRANCH  17  18
TORSDOF 2
ENDMDL
MODEL 7
REMARK VINA RESULT:      -6.7      7.607      9.711
REMARK  Name = NuBBE_436
REMARK  4 active torsions:
REMARK  status: ('A' for Active; 'I' for Inactive)
REMARK    1  A    between atoms: C_9  and  C_10
REMARK    2  A    between atoms: C_21  and  C_22
REMARK    3  A    between atoms: C_22  and  O_23
REMARK    4  A    between atoms: O_23  and  C_24
REMARK                            x       y       z     vdW  Elec       q    Type
REMARK                         _______ _______ _______ _____ _____    ______ ____
ROOT
ATOM      1  C   LIG A   1      -8.860  -1.537 125.928  0.00  0.00    +0.065 C 
ATOM      2  C   LIG A   1      -9.017  -3.029 126.067  0.00  0.00    -0.018 C 
ATOM      3  C   LIG A   1      -8.467  -3.507 127.186  0.00  0.00    +0.020 C 
ATOM      4  C   LIG A   1      -7.837  -2.419 127.987  0.00  0.00    +0.172 C 
ATOM      5  C   LIG A   1      -6.331  -2.348 128.007  0.00  0.00    +0.207 C 
ATOM      6  C   LIG A   1      -6.021  -2.960 129.316  0.00  0.00    +0.065 C 
ATOM      7  C   LIG A   1      -4.897  -3.553 129.745  0.00  0.00    -0.017 C 
ATOM      8  C   LIG A   1      -3.632  -3.685 128.960  0.00  0.00    +0.036 C 
ATOM      9  O   LIG A   1      -6.005  -0.960 128.033  0.00  0.00    -0.329 OA
ATOM     10  O   LIG A   1      -8.278  -2.469 129.341  0.00  0.00    -0.447 OA
ATOM     11  C   LIG A   1      -7.251  -2.889 130.137  0.00  0.00    +0.338 C 
ATOM     12  O   LIG A   1      -7.344  -3.157 131.319  0.00  0.00    -0.245 OA
ATOM     13  C   LIG A   1      -8.287  -1.134 127.298  0.00  0.00    +0.120 C 
ATOM     14  C   LIG A   1      -7.037  -0.255 127.320  0.00  0.00    +0.315 C 
ATOM     15  O   LIG A   1      -6.494   0.191 126.083  0.00  0.00    -0.470 OA
ATOM     16  C   LIG A   1      -6.958  -0.327 124.919  0.00  0.00    +0.201 C 
ATOM     17  C   LIG A   1      -8.015  -1.130 124.768  0.00  0.00    +0.078 C 
ENDROOT
BRANCH  17  18
ATOM     18  C   LIG A   1      -8.451  -1.535 123.403  0.00  0.00    +0.338 C 
ATOM     19  O   LIG A   1      -7.718  -2.100 122.605  0.00  0.00    -0.245 OA
BRANCH  18  20
ATOM     20  O   LIG A   1      -9.739  -1.175 123.175  0.00  0.00    -0.465 OA
ATOM     21  C   LIG A   1      -9.907   0.125 122.610  0.00  0.00    +0.280 C 
ENDBRANCH  18  20
ENDBRANCH  17  18
TORSDOF 2
ENDMDL
MODEL 8
REMARK VINA RESULT:      -6.4      7.750      9.673
REMARK  Name = NuBBE_436
REMARK  4 active torsions:
REMARK  status: ('A' for Active; 'I' for Inactive)
REMARK    1  A    between atoms: C_9  and  C_10
REMARK    2  A    between atoms: C_21  and  C_22
REMARK    3  A    between atoms: C_22  and  O_23
REMARK    4  A    between atoms: O_23  and  C_24
REMARK                            x       y       z     vdW  Elec       q    Type
REMARK                         _______ _______ _______ _____ _____    ______ ____
ROOT
ATOM      1  C   LIG A   1      -8.087  -2.006 126.825  0.00  0.00    +0.065 C 
ATOM      2  C   LIG A   1      -8.711  -3.257 127.387  0.00  0.00    -0.018 C 
ATOM      3  C   LIG A   1      -8.475  -3.415 128.693  0.00  0.00    +0.020 C 
ATOM      4  C   LIG A   1      -7.643  -2.300 129.229  0.00  0.00    +0.172 C 
ATOM      5  C   LIG A   1      -6.203  -2.599 129.559  0.00  0.00    +0.207 C 
ATOM      6  C   LIG A   1      -6.256  -2.749 131.028  0.00  0.00    +0.065 C 
ATOM      7  C   LIG A   1      -5.430  -3.401 131.859  0.00  0.00    -0.017 C 
ATOM      8  C   LIG A   1      -4.182  -4.117 131.456  0.00  0.00    +0.036 C 
ATOM      9  O   LIG A   1      -5.470  -1.423 129.219  0.00  0.00    -0.329 OA
ATOM     10  O   LIG A   1      -8.239  -1.744 130.398  0.00  0.00    -0.447 OA
ATOM     11  C   LIG A   1      -7.495  -2.083 131.491  0.00  0.00    +0.338 C 
ATOM     12  O   LIG A   1      -7.809  -1.871 132.647  0.00  0.00    -0.245 OA
ATOM     13  C   LIG A   1      -7.589  -1.286 128.091  0.00  0.00    +0.120 C 
ATOM     14  C   LIG A   1      -6.141  -0.796 128.111  0.00  0.00    +0.315 C 
ATOM     15  O   LIG A   1      -5.341  -0.979 126.949  0.00  0.00    -0.470 OA
ATOM     16  C   LIG A   1      -5.797  -1.755 125.935  0.00  0.00    +0.201 C 
ATOM     17  C   LIG A   1      -7.024  -2.271 125.813  0.00  0.00    +0.078 C 
ENDROOT
BRANCH  17  18
ATOM     18  C   LIG A   1      -7.394  -3.025 124.584  0.00  0.00    +0.338 C 
ATOM     19  O   LIG A   1      -6.825  -4.045 124.225  0.00  0.00    -0.245 OA
BRANCH  18  20
ATOM     20  O   LIG A   1      -8.414  -2.418 123.927  0.00  0.00    -0.465 OA
ATOM     21  C   LIG A   1      -9.469  -3.290 123.521  0.00  0.00    +0.280 C 
ENDBRANCH  18  20
ENDBRANCH  17  18
TORSDOF 2
ENDMDL
MODEL 9
REMARK VINA RESULT:      -6.3      4.558      7.531
REMARK  Name = NuBBE_436
REMARK  4 active torsions:
REMARK  status: ('A' for Active; 'I' for Inactive)
REMARK    1  A    between atoms: C_9  and  C_10
REMARK    2  A    between atoms: C_21  and  C_22
REMARK    3  A    between atoms: C_22  and  O_23
REMARK    4  A    between atoms: O_23  and  C_24
REMARK                            x       y       z     vdW  Elec       q    Type
REMARK                         _______ _______ _______ _____ _____    ______ ____
ROOT
ATOM      1  C   LIG A   1      -3.719   5.460 131.111  0.00  0.00    +0.065 C 
ATOM      2  C   LIG A   1      -4.047   3.992 131.026  0.00  0.00    -0.018 C 
ATOM      3  C   LIG A   1      -3.864   3.489 129.802  0.00  0.00    +0.020 C 
ATOM      4  C   LIG A   1      -3.390   4.536 128.852  0.00  0.00    +0.172 C 
ATOM      5  C   LIG A   1      -4.371   5.045 127.828  0.00  0.00    +0.207 C 
ATOM      6  C   LIG A   1      -3.950   4.309 126.618  0.00  0.00    +0.065 C 
ATOM      7  C   LIG A   1      -4.640   4.005 125.509  0.00  0.00    -0.017 C 
ATOM      8  C   LIG A   1      -6.051   4.411 125.228  0.00  0.00    +0.036 C 
ATOM      9  O   LIG A   1      -4.087   6.435 127.671  0.00  0.00    -0.329 OA
ATOM     10  O   LIG A   1      -2.233   4.092 128.149  0.00  0.00    -0.447 OA
ATOM     11  C   LIG A   1      -2.561   3.849 126.846  0.00  0.00    +0.338 C 
ATOM     12  O   LIG A   1      -1.827   3.338 126.022  0.00  0.00    -0.245 OA
ATOM     13  C   LIG A   1      -3.079   5.738 129.739  0.00  0.00    +0.120 C 
ATOM     14  C   LIG A   1      -3.602   6.926 128.933  0.00  0.00    +0.315 C 
ATOM     15  O   LIG A   1      -4.613   7.748 129.505  0.00  0.00    -0.470 OA
ATOM     16  C   LIG A   1      -5.234   7.355 130.644  0.00  0.00    +0.201 C 
ATOM     17  C   LIG A   1      -4.899   6.320 131.420  0.00  0.00    +0.078 C 
ENDROOT
BRANCH  17  18
ATOM     18  C   LIG A   1      -5.629   6.080 132.696  0.00  0.00    +0.338 C 
ATOM     19  O   LIG A   1      -5.083   6.066 133.789  0.00  0.00    -0.245 OA
BRANCH  18  20
ATOM     20  O   LIG A   1      -6.949   5.863 132.470  0.00  0.00    -0.465 OA
ATOM     21  C   LIG A   1      -7.388   4.528 132.717  0.00  0.00    +0.280 C 
ENDBRANCH  18  20
ENDBRANCH  17  18
TORSDOF 2
ENDMDL
