MODEL 1
REMARK VINA RESULT:      -7.6      0.000      0.000
REMARK  Name = NuBBE_259
REMARK  7 active torsions:
REMARK  status: ('A' for Active; 'I' for Inactive)
REMARK    1  A    between atoms: O_1  and  C_2
REMARK    2  A    between atoms: C_2  and  C_3
REMARK    3  A    between atoms: C_3  and  C_4
REMARK    4  A    between atoms: C_4  and  C_5
REMARK    5  A    between atoms: C_7  and  O_8
REMARK    6  A    between atoms: O_8  and  C_9
REMARK    7  A    between atoms: C_12  and  C_13
REMARK                            x       y       z     vdW  Elec       q    Type
REMARK                         _______ _______ _______ _____ _____    ______ ____
ROOT
ATOM      1  C   LIG A   1      -3.878   6.077 132.641  0.00  0.00    -0.043 A 
ATOM      2  C   LIG A   1      -3.684   6.869 131.495  0.00  0.00    +0.053 A 
ATOM      3  C   LIG A   1      -4.758   7.299 130.697  0.00  0.00    +0.163 A 
ATOM      4  C   LIG A   1      -6.038   6.939 131.132  0.00  0.00    +0.177 A 
ATOM      5  O   LIG A   1      -7.227   7.261 130.545  0.00  0.00    -0.451 OA
ATOM      6  C   LIG A   1      -8.227   6.705 131.283  0.00  0.00    +0.137 A 
ATOM      7  C   LIG A   1      -7.681   6.037 132.365  0.00  0.00    +0.058 A 
ATOM      8  C   LIG A   1      -6.275   6.176 132.267  0.00  0.00    +0.025 A 
ATOM      9  C   LIG A   1      -5.183   5.729 133.031  0.00  0.00    +0.015 A 
ENDROOT
BRANCH   6  10
ATOM     10  C   LIG A   1      -9.587   6.896 130.799  0.00  0.00    +0.021 A 
ATOM     11  C   LIG A   1      -9.810   7.652 129.636  0.00  0.00    +0.061 A 
ATOM     12  C   LIG A   1     -11.104   7.845 129.216  0.00  0.00    +0.167 A 
ATOM     13  C   LIG A   1     -12.179   7.319 129.896  0.00  0.00    +0.166 A 
ATOM     14  O   LIG A   1     -13.363   7.637 129.313  0.00  0.00    -0.453 OA
ATOM     15  C   LIG A   1     -12.913   8.423 128.189  0.00  0.00    +0.466 C 
ATOM     16  O   LIG A   1     -11.481   8.558 128.120  0.00  0.00    -0.453 OA
ATOM     17  C   LIG A   1     -12.010   6.567 131.036  0.00  0.00    +0.050 A 
ATOM     18  C   LIG A   1     -10.701   6.354 131.488  0.00  0.00    +0.015 A 
ENDBRANCH   6  10
BRANCH   3  19
ATOM     19  O   LIG A   1      -4.433   8.069 129.593  0.00  0.00    -0.491 OA
ATOM     20  C   LIG A   1      -3.564   7.428 128.661  0.00  0.00    +0.277 C 
ENDBRANCH   3  19
BRANCH   1  21
ATOM     21  C   LIG A   1      -2.704   5.630 133.483  0.00  0.00    +0.037 C 
BRANCH  21  22
ATOM     22  C   LIG A   1      -1.924   4.442 132.913  0.00  0.00    +0.032 C 
BRANCH  22  23
ATOM     23  C   LIG A   1      -2.706   3.136 132.921  0.00  0.00    +0.156 C 
BRANCH  23  24
ATOM     24  O   LIG A   1      -2.947   2.768 134.275  0.00  0.00    -0.395 OA
ATOM     25  H   LIG A   1      -3.906   2.830 134.424  0.00  0.00    +0.209 HD
ENDBRANCH  23  24
ENDBRANCH  22  23
ENDBRANCH  21  22
ENDBRANCH   1  21
TORSDOF 6
ENDMDL
MODEL 2
REMARK VINA RESULT:      -7.2      7.496      9.744
REMARK  Name = NuBBE_259
REMARK  7 active torsions:
REMARK  status: ('A' for Active; 'I' for Inactive)
REMARK    1  A    between atoms: O_1  and  C_2
REMARK    2  A    between atoms: C_2  and  C_3
REMARK    3  A    between atoms: C_3  and  C_4
REMARK    4  A    between atoms: C_4  and  C_5
REMARK    5  A    between atoms: C_7  and  O_8
REMARK    6  A    between atoms: O_8  and  C_9
REMARK    7  A    between atoms: C_12  and  C_13
REMARK                            x       y       z     vdW  Elec       q    Type
REMARK                         _______ _______ _______ _____ _____    ______ ____
ROOT
ATOM      1  C   LIG A   1      -8.536  -1.402 126.197  0.00  0.00    -0.043 A 
ATOM      2  C   LIG A   1      -9.224  -0.290 125.682  0.00  0.00    +0.053 A 
ATOM      3  C   LIG A   1      -8.690   1.009 125.741  0.00  0.00    +0.163 A 
ATOM      4  C   LIG A   1      -7.412   1.130 126.297  0.00  0.00    +0.177 A 
ATOM      5  O   LIG A   1      -6.680   2.273 126.437  0.00  0.00    -0.451 OA
ATOM      6  C   LIG A   1      -5.500   1.949 127.033  0.00  0.00    +0.137 A 
ATOM      7  C   LIG A   1      -5.460   0.584 127.261  0.00  0.00    +0.058 A 
ATOM      8  C   LIG A   1      -6.690   0.055 126.800  0.00  0.00    +0.025 A 
ATOM      9  C   LIG A   1      -7.259  -1.229 126.759  0.00  0.00    +0.015 A 
ENDROOT
BRANCH   6  10
ATOM     10  C   LIG A   1      -4.581   3.044 127.314  0.00  0.00    +0.021 A 
ATOM     11  C   LIG A   1      -5.077   4.249 127.835  0.00  0.00    +0.061 A 
ATOM     12  C   LIG A   1      -4.197   5.279 128.062  0.00  0.00    +0.167 A 
ATOM     13  C   LIG A   1      -2.852   5.162 127.799  0.00  0.00    +0.166 A 
ATOM     14  O   LIG A   1      -2.167   6.297 128.089  0.00  0.00    -0.453 OA
ATOM     15  C   LIG A   1      -3.235   7.146 128.565  0.00  0.00    +0.466 C 
ATOM     16  O   LIG A   1      -4.525   6.506 128.553  0.00  0.00    -0.453 OA
ATOM     17  C   LIG A   1      -2.318   3.998 127.294  0.00  0.00    +0.050 A 
ATOM     18  C   LIG A   1      -3.193   2.931 127.052  0.00  0.00    +0.015 A 
ENDBRANCH   6  10
BRANCH   3  19
ATOM     19  O   LIG A   1      -9.469   2.019 125.203  0.00  0.00    -0.491 OA
ATOM     20  C   LIG A   1      -9.153   2.354 123.854  0.00  0.00    +0.277 C 
ENDBRANCH   3  19
BRANCH   1  21
ATOM     21  C   LIG A   1      -9.133  -2.790 126.117  0.00  0.00    +0.037 C 
BRANCH  21  22
ATOM     22  C   LIG A   1      -8.520  -3.688 125.040  0.00  0.00    +0.032 C 
BRANCH  22  23
ATOM     23  C   LIG A   1      -8.828  -3.237 123.618  0.00  0.00    +0.156 C 
BRANCH  23  24
ATOM     24  O   LIG A   1     -10.214  -3.455 123.371  0.00  0.00    -0.395 OA
ATOM     25  H   LIG A   1     -10.661  -2.597 123.466  0.00  0.00    +0.209 HD
ENDBRANCH  23  24
ENDBRANCH  22  23
ENDBRANCH  21  22
ENDBRANCH   1  21
TORSDOF 6
ENDMDL
MODEL 3
REMARK VINA RESULT:      -7.2      9.262     11.968
REMARK  Name = NuBBE_259
REMARK  7 active torsions:
REMARK  status: ('A' for Active; 'I' for Inactive)
REMARK    1  A    between atoms: O_1  and  C_2
REMARK    2  A    between atoms: C_2  and  C_3
REMARK    3  A    between atoms: C_3  and  C_4
REMARK    4  A    between atoms: C_4  and  C_5
REMARK    5  A    between atoms: C_7  and  O_8
REMARK    6  A    between atoms: O_8  and  C_9
REMARK    7  A    between atoms: C_12  and  C_13
REMARK                            x       y       z     vdW  Elec       q    Type
REMARK                         _______ _______ _______ _____ _____    ______ ____
ROOT
ATOM      1  C   LIG A   1      -8.563  -2.575 124.765  0.00  0.00    -0.043 A 
ATOM      2  C   LIG A   1      -7.288  -1.985 124.787  0.00  0.00    +0.053 A 
ATOM      3  C   LIG A   1      -6.519  -1.916 125.961  0.00  0.00    +0.163 A 
ATOM      4  C   LIG A   1      -7.070  -2.513 127.100  0.00  0.00    +0.177 A 
ATOM      5  O   LIG A   1      -6.505  -2.599 128.339  0.00  0.00    -0.451 OA
ATOM      6  C   LIG A   1      -7.378  -3.248 129.158  0.00  0.00    +0.137 A 
ATOM      7  C   LIG A   1      -8.506  -3.602 128.438  0.00  0.00    +0.058 A 
ATOM      8  C   LIG A   1      -8.317  -3.124 127.117  0.00  0.00    +0.025 A 
ATOM      9  C   LIG A   1      -9.082  -3.150 125.939  0.00  0.00    +0.015 A 
ENDROOT
BRANCH   6  10
ATOM     10  C   LIG A   1      -6.981  -3.408 130.550  0.00  0.00    +0.021 A 
ATOM     11  C   LIG A   1      -7.568  -2.600 131.537  0.00  0.00    +0.061 A 
ATOM     12  C   LIG A   1      -7.154  -2.747 132.839  0.00  0.00    +0.167 A 
ATOM     13  C   LIG A   1      -6.191  -3.660 133.200  0.00  0.00    +0.166 A 
ATOM     14  O   LIG A   1      -5.929  -3.635 134.532  0.00  0.00    -0.453 OA
ATOM     15  C   LIG A   1      -6.837  -2.601 134.969  0.00  0.00    +0.466 C 
ATOM     16  O   LIG A   1      -7.619  -2.034 133.901  0.00  0.00    -0.453 OA
ATOM     17  C   LIG A   1      -5.592  -4.479 132.270  0.00  0.00    +0.050 A 
ATOM     18  C   LIG A   1      -5.994  -4.350 130.934  0.00  0.00    +0.015 A 
ENDBRANCH   6  10
BRANCH   3  19
ATOM     19  O   LIG A   1      -5.282  -1.305 125.850  0.00  0.00    -0.491 OA
ATOM     20  C   LIG A   1      -5.277   0.083 126.178  0.00  0.00    +0.277 C 
ENDBRANCH   3  19
BRANCH   1  21
ATOM     21  C   LIG A   1      -9.369  -2.638 123.487  0.00  0.00    +0.037 C 
BRANCH  21  22
ATOM     22  C   LIG A   1      -9.111  -1.485 122.512  0.00  0.00    +0.032 C 
BRANCH  22  23
ATOM     23  C   LIG A   1      -9.559  -0.128 123.038  0.00  0.00    +0.156 C 
BRANCH  23  24
ATOM     24  O   LIG A   1     -10.827   0.176 122.467  0.00  0.00    -0.395 OA
ATOM     25  H   LIG A   1     -10.974   1.130 122.584  0.00  0.00    +0.209 HD
ENDBRANCH  23  24
ENDBRANCH  22  23
ENDBRANCH  21  22
ENDBRANCH   1  21
TORSDOF 6
ENDMDL
MODEL 4
REMARK VINA RESULT:      -7.0      7.593      9.710
REMARK  Name = NuBBE_259
REMARK  7 active torsions:
REMARK  status: ('A' for Active; 'I' for Inactive)
REMARK    1  A    between atoms: O_1  and  C_2
REMARK    2  A    between atoms: C_2  and  C_3
REMARK    3  A    between atoms: C_3  and  C_4
REMARK    4  A    between atoms: C_4  and  C_5
REMARK    5  A    between atoms: C_7  and  O_8
REMARK    6  A    between atoms: O_8  and  C_9
REMARK    7  A    between atoms: C_12  and  C_13
REMARK                            x       y       z     vdW  Elec       q    Type
REMARK                         _______ _______ _______ _____ _____    ______ ____
ROOT
ATOM      1  C   LIG A   1      -6.020  -2.149 125.430  0.00  0.00    -0.043 A 
ATOM      2  C   LIG A   1      -6.478  -2.388 126.738  0.00  0.00    +0.053 A 
ATOM      3  C   LIG A   1      -6.307  -1.450 127.769  0.00  0.00    +0.163 A 
ATOM      4  C   LIG A   1      -5.700  -0.240 127.414  0.00  0.00    +0.177 A 
ATOM      5  O   LIG A   1      -5.454   0.827 128.228  0.00  0.00    -0.451 OA
ATOM      6  C   LIG A   1      -4.842   1.792 127.487  0.00  0.00    +0.137 A 
ATOM      7  C   LIG A   1      -4.711   1.353 126.181  0.00  0.00    +0.058 A 
ATOM      8  C   LIG A   1      -5.252   0.045 126.131  0.00  0.00    +0.025 A 
ATOM      9  C   LIG A   1      -5.404  -0.923 125.124  0.00  0.00    +0.015 A 
ENDROOT
BRANCH   6  10
ATOM     10  C   LIG A   1      -4.452   3.010 128.184  0.00  0.00    +0.021 A 
ATOM     11  C   LIG A   1      -4.536   4.245 127.522  0.00  0.00    +0.061 A 
ATOM     12  C   LIG A   1      -4.133   5.377 128.190  0.00  0.00    +0.167 A 
ATOM     13  C   LIG A   1      -3.658   5.334 129.480  0.00  0.00    +0.166 A 
ATOM     14  O   LIG A   1      -3.310   6.561 129.944  0.00  0.00    -0.453 OA
ATOM     15  C   LIG A   1      -3.620   7.384 128.798  0.00  0.00    +0.466 C 
ATOM     16  O   LIG A   1      -4.144   6.640 127.682  0.00  0.00    -0.453 OA
ATOM     17  C   LIG A   1      -3.564   4.147 130.171  0.00  0.00    +0.050 A 
ATOM     18  C   LIG A   1      -3.967   2.977 129.515  0.00  0.00    +0.015 A 
ENDBRANCH   6  10
BRANCH   3  19
ATOM     19  O   LIG A   1      -6.798  -1.808 129.013  0.00  0.00    -0.491 OA
ATOM     20  C   LIG A   1      -7.633  -2.963 129.009  0.00  0.00    +0.277 C 
ENDBRANCH   3  19
BRANCH   1  21
ATOM     21  C   LIG A   1      -6.220  -3.176 124.338  0.00  0.00    +0.037 C 
BRANCH  21  22
ATOM     22  C   LIG A   1      -4.998  -3.404 123.444  0.00  0.00    +0.032 C 
BRANCH  22  23
ATOM     23  C   LIG A   1      -4.121  -4.566 123.890  0.00  0.00    +0.156 C 
BRANCH  23  24
ATOM     24  O   LIG A   1      -4.166  -5.572 122.883  0.00  0.00    -0.395 OA
ATOM     25  H   LIG A   1      -3.672  -6.338 123.220  0.00  0.00    +0.209 HD
ENDBRANCH  23  24
ENDBRANCH  22  23
ENDBRANCH  21  22
ENDBRANCH   1  21
TORSDOF 6
ENDMDL
MODEL 5
REMARK VINA RESULT:      -6.9      6.538      8.725
REMARK  Name = NuBBE_259
REMARK  7 active torsions:
REMARK  status: ('A' for Active; 'I' for Inactive)
REMARK    1  A    between atoms: O_1  and  C_2
REMARK    2  A    between atoms: C_2  and  C_3
REMARK    3  A    between atoms: C_3  and  C_4
REMARK    4  A    between atoms: C_4  and  C_5
REMARK    5  A    between atoms: C_7  and  O_8
REMARK    6  A    between atoms: O_8  and  C_9
REMARK    7  A    between atoms: C_12  and  C_13
REMARK                            x       y       z     vdW  Elec       q    Type
REMARK                         _______ _______ _______ _____ _____    ______ ____
ROOT
ATOM      1  C   LIG A   1      -6.056   3.768 123.276  0.00  0.00    -0.043 A 
ATOM      2  C   LIG A   1      -7.351   3.279 123.032  0.00  0.00    +0.053 A 
ATOM      3  C   LIG A   1      -8.179   2.816 124.069  0.00  0.00    +0.163 A 
ATOM      4  C   LIG A   1      -7.663   2.915 125.367  0.00  0.00    +0.177 A 
ATOM      5  O   LIG A   1      -8.285   2.560 126.528  0.00  0.00    -0.451 OA
ATOM      6  C   LIG A   1      -7.431   2.809 127.558  0.00  0.00    +0.137 A 
ATOM      7  C   LIG A   1      -6.257   3.349 127.061  0.00  0.00    +0.058 A 
ATOM      8  C   LIG A   1      -6.398   3.409 125.652  0.00  0.00    +0.025 A 
ATOM      9  C   LIG A   1      -5.576   3.835 124.596  0.00  0.00    +0.015 A 
ENDROOT
BRANCH   6  10
ATOM     10  C   LIG A   1      -7.890   2.457 128.895  0.00  0.00    +0.021 A 
ATOM     11  C   LIG A   1      -8.124   3.471 129.838  0.00  0.00    +0.061 A 
ATOM     12  C   LIG A   1      -8.527   3.112 131.102  0.00  0.00    +0.167 A 
ATOM     13  C   LIG A   1      -8.710   1.799 131.465  0.00  0.00    +0.166 A 
ATOM     14  O   LIG A   1      -9.102   1.670 132.758  0.00  0.00    -0.453 OA
ATOM     15  C   LIG A   1      -9.144   3.054 133.170  0.00  0.00    +0.466 C 
ATOM     16  O   LIG A   1      -8.783   3.975 132.124  0.00  0.00    -0.453 OA
ATOM     17  C   LIG A   1      -8.500   0.771 130.574  0.00  0.00    +0.050 A 
ATOM     18  C   LIG A   1      -8.088   1.107 129.278  0.00  0.00    +0.015 A 
ENDBRANCH   6  10
BRANCH   3  19
ATOM     19  O   LIG A   1      -9.430   2.356 123.697  0.00  0.00    -0.491 OA
ATOM     20  C   LIG A   1      -9.541   0.936 123.629  0.00  0.00    +0.277 C 
ENDBRANCH   3  19
BRANCH   1  21
ATOM     21  C   LIG A   1      -5.187   4.263 122.141  0.00  0.00    +0.037 C 
BRANCH  21  22
ATOM     22  C   LIG A   1      -5.829   4.163 120.754  0.00  0.00    +0.032 C 
BRANCH  22  23
ATOM     23  C   LIG A   1      -5.364   5.243 119.786  0.00  0.00    +0.156 C 
BRANCH  23  24
ATOM     24  O   LIG A   1      -4.586   6.189 120.512  0.00  0.00    -0.395 OA
ATOM     25  H   LIG A   1      -4.953   7.069 120.322  0.00  0.00    +0.209 HD
ENDBRANCH  23  24
ENDBRANCH  22  23
ENDBRANCH  21  22
ENDBRANCH   1  21
TORSDOF 6
ENDMDL
MODEL 6
REMARK VINA RESULT:      -6.9      4.254      8.282
REMARK  Name = NuBBE_259
REMARK  7 active torsions:
REMARK  status: ('A' for Active; 'I' for Inactive)
REMARK    1  A    between atoms: O_1  and  C_2
REMARK    2  A    between atoms: C_2  and  C_3
REMARK    3  A    between atoms: C_3  and  C_4
REMARK    4  A    between atoms: C_4  and  C_5
REMARK    5  A    between atoms: C_7  and  O_8
REMARK    6  A    between atoms: O_8  and  C_9
REMARK    7  A    between atoms: C_12  and  C_13
REMARK                            x       y       z     vdW  Elec       q    Type
REMARK                         _______ _______ _______ _____ _____    ______ ____
ROOT
ATOM      1  C   LIG A   1     -11.243   6.952 130.310  0.00  0.00    -0.043 A 
ATOM      2  C   LIG A   1      -9.872   7.260 130.279  0.00  0.00    +0.053 A 
ATOM      3  C   LIG A   1      -8.884   6.264 130.361  0.00  0.00    +0.163 A 
ATOM      4  C   LIG A   1      -9.338   4.942 130.424  0.00  0.00    +0.177 A 
ATOM      5  O   LIG A   1      -8.576   3.812 130.480  0.00  0.00    -0.451 OA
ATOM      6  C   LIG A   1      -9.413   2.740 130.540  0.00  0.00    +0.137 A 
ATOM      7  C   LIG A   1     -10.724   3.179 130.501  0.00  0.00    +0.058 A 
ATOM      8  C   LIG A   1     -10.682   4.594 130.437  0.00  0.00    +0.025 A 
ATOM      9  C   LIG A   1     -11.652   5.609 130.388  0.00  0.00    +0.015 A 
ENDROOT
BRANCH   6  10
ATOM     10  C   LIG A   1      -8.793   1.426 130.649  0.00  0.00    +0.021 A 
ATOM     11  C   LIG A   1      -8.873   0.720 131.860  0.00  0.00    +0.061 A 
ATOM     12  C   LIG A   1      -8.254  -0.504 131.949  0.00  0.00    +0.167 A 
ATOM     13  C   LIG A   1      -7.567  -1.054 130.892  0.00  0.00    +0.166 A 
ATOM     14  O   LIG A   1      -7.029  -2.262 131.197  0.00  0.00    -0.453 OA
ATOM     15  C   LIG A   1      -7.454  -2.411 132.569  0.00  0.00    +0.466 C 
ATOM     16  O   LIG A   1      -8.233  -1.301 133.053  0.00  0.00    -0.453 OA
ATOM     17  C   LIG A   1      -7.468  -0.402 129.683  0.00  0.00    +0.050 A 
ATOM     18  C   LIG A   1      -8.088   0.848 129.564  0.00  0.00    +0.015 A 
ENDBRANCH   6  10
BRANCH   3  19
ATOM     19  O   LIG A   1      -7.570   6.698 130.326  0.00  0.00    -0.491 OA
ATOM     20  C   LIG A   1      -6.876   6.585 131.566  0.00  0.00    +0.277 C 
ENDBRANCH   3  19
BRANCH   1  21
ATOM     21  C   LIG A   1     -12.286   8.044 130.217  0.00  0.00    +0.037 C 
BRANCH  21  22
ATOM     22  C   LIG A   1     -12.230   8.875 128.932  0.00  0.00    +0.032 C 
BRANCH  22  23
ATOM     23  C   LIG A   1     -12.152   8.035 127.664  0.00  0.00    +0.156 C 
BRANCH  23  24
ATOM     24  O   LIG A   1     -10.949   8.369 126.980  0.00  0.00    -0.395 OA
ATOM     25  H   LIG A   1     -10.257   7.767 127.304  0.00  0.00    +0.209 HD
ENDBRANCH  23  24
ENDBRANCH  22  23
ENDBRANCH  21  22
ENDBRANCH   1  21
TORSDOF 6
ENDMDL
MODEL 7
REMARK VINA RESULT:      -6.8      2.264      8.464
REMARK  Name = NuBBE_259
REMARK  7 active torsions:
REMARK  status: ('A' for Active; 'I' for Inactive)
REMARK    1  A    between atoms: O_1  and  C_2
REMARK    2  A    between atoms: C_2  and  C_3
REMARK    3  A    between atoms: C_3  and  C_4
REMARK    4  A    between atoms: C_4  and  C_5
REMARK    5  A    between atoms: C_7  and  O_8
REMARK    6  A    between atoms: O_8  and  C_9
REMARK    7  A    between atoms: C_12  and  C_13
REMARK                            x       y       z     vdW  Elec       q    Type
REMARK                         _______ _______ _______ _____ _____    ______ ____
ROOT
ATOM      1  C   LIG A   1     -11.153   6.183 130.384  0.00  0.00    -0.043 A 
ATOM      2  C   LIG A   1     -11.010   4.786 130.448  0.00  0.00    +0.053 A 
ATOM      3  C   LIG A   1      -9.764   4.175 130.669  0.00  0.00    +0.163 A 
ATOM      4  C   LIG A   1      -8.678   5.033 130.873  0.00  0.00    +0.177 A 
ATOM      5  O   LIG A   1      -7.387   4.679 131.132  0.00  0.00    -0.451 OA
ATOM      6  C   LIG A   1      -6.652   5.818 131.253  0.00  0.00    +0.137 A 
ATOM      7  C   LIG A   1      -7.478   6.917 131.092  0.00  0.00    +0.058 A 
ATOM      8  C   LIG A   1      -8.779   6.418 130.837  0.00  0.00    +0.025 A 
ATOM      9  C   LIG A   1     -10.029   7.005 130.581  0.00  0.00    +0.015 A 
ENDROOT
BRANCH   6  10
ATOM     10  C   LIG A   1      -5.224   5.659 131.492  0.00  0.00    +0.021 A 
ATOM     11  C   LIG A   1      -4.427   6.792 131.717  0.00  0.00    +0.061 A 
ATOM     12  C   LIG A   1      -3.077   6.619 131.909  0.00  0.00    +0.167 A 
ATOM     13  C   LIG A   1      -2.490   5.376 131.890  0.00  0.00    +0.166 A 
ATOM     14  O   LIG A   1      -1.149   5.434 132.093  0.00  0.00    -0.453 OA
ATOM     15  C   LIG A   1      -0.957   6.858 132.242  0.00  0.00    +0.466 C 
ATOM     16  O   LIG A   1      -2.176   7.616 132.128  0.00  0.00    -0.453 OA
ATOM     17  C   LIG A   1      -3.231   4.235 131.680  0.00  0.00    +0.050 A 
ATOM     18  C   LIG A   1      -4.610   4.381 131.481  0.00  0.00    +0.015 A 
ENDBRANCH   6  10
BRANCH   3  19
ATOM     19  O   LIG A   1      -9.757   2.791 130.706  0.00  0.00    -0.491 OA
ATOM     20  C   LIG A   1      -9.780   2.234 132.018  0.00  0.00    +0.277 C 
ENDBRANCH   3  19
BRANCH   1  21
ATOM     21  C   LIG A   1     -12.507   6.815 130.147  0.00  0.00    +0.037 C 
BRANCH  21  22
ATOM     22  C   LIG A   1     -12.491   8.343 130.053  0.00  0.00    +0.032 C 
BRANCH  22  23
ATOM     23  C   LIG A   1     -12.909   8.877 128.690  0.00  0.00    +0.156 C 
BRANCH  23  24
ATOM     24  O   LIG A   1     -13.173  10.270 128.817  0.00  0.00    -0.395 OA
ATOM     25  H   LIG A   1     -13.306  10.620 127.920  0.00  0.00    +0.209 HD
ENDBRANCH  23  24
ENDBRANCH  22  23
ENDBRANCH  21  22
ENDBRANCH   1  21
TORSDOF 6
ENDMDL
MODEL 8
REMARK VINA RESULT:      -6.6      7.514      9.916
REMARK  Name = NuBBE_259
REMARK  7 active torsions:
REMARK  status: ('A' for Active; 'I' for Inactive)
REMARK    1  A    between atoms: O_1  and  C_2
REMARK    2  A    between atoms: C_2  and  C_3
REMARK    3  A    between atoms: C_3  and  C_4
REMARK    4  A    between atoms: C_4  and  C_5
REMARK    5  A    between atoms: C_7  and  O_8
REMARK    6  A    between atoms: O_8  and  C_9
REMARK    7  A    between atoms: C_12  and  C_13
REMARK                            x       y       z     vdW  Elec       q    Type
REMARK                         _______ _______ _______ _____ _____    ______ ____
ROOT
ATOM      1  C   LIG A   1      -7.948  -2.007 126.660  0.00  0.00    -0.043 A 
ATOM      2  C   LIG A   1      -7.384  -2.270 127.920  0.00  0.00    +0.053 A 
ATOM      3  C   LIG A   1      -6.469  -1.392 128.524  0.00  0.00    +0.163 A 
ATOM      4  C   LIG A   1      -6.186  -0.213 127.825  0.00  0.00    +0.177 A 
ATOM      5  O   LIG A   1      -5.358   0.798 128.218  0.00  0.00    -0.451 OA
ATOM      6  C   LIG A   1      -5.359   1.749 127.243  0.00  0.00    +0.137 A 
ATOM      7  C   LIG A   1      -6.210   1.359 126.224  0.00  0.00    +0.058 A 
ATOM      8  C   LIG A   1      -6.736   0.095 126.588  0.00  0.00    +0.025 A 
ATOM      9  C   LIG A   1      -7.623  -0.815 125.989  0.00  0.00    +0.015 A 
ENDROOT
BRANCH   6  10
ATOM     10  C   LIG A   1      -4.498   2.905 127.450  0.00  0.00    +0.021 A 
ATOM     11  C   LIG A   1      -5.035   4.082 127.995  0.00  0.00    +0.061 A 
ATOM     12  C   LIG A   1      -4.211   5.170 128.151  0.00  0.00    +0.167 A 
ATOM     13  C   LIG A   1      -2.883   5.137 127.795  0.00  0.00    +0.166 A 
ATOM     14  O   LIG A   1      -2.256   6.318 128.028  0.00  0.00    -0.453 OA
ATOM     15  C   LIG A   1      -3.341   7.102 128.570  0.00  0.00    +0.466 C 
ATOM     16  O   LIG A   1      -4.584   6.379 128.654  0.00  0.00    -0.453 OA
ATOM     17  C   LIG A   1      -2.309   4.004 127.264  0.00  0.00    +0.050 A 
ATOM     18  C   LIG A   1      -3.127   2.879 127.092  0.00  0.00    +0.015 A 
ENDBRANCH   6  10
BRANCH   3  19
ATOM     19  O   LIG A   1      -5.982  -1.768 129.764  0.00  0.00    -0.491 OA
ATOM     20  C   LIG A   1      -5.623  -3.145 129.865  0.00  0.00    +0.277 C 
ENDBRANCH   3  19
BRANCH   1  21
ATOM     21  C   LIG A   1      -8.933  -2.970 126.034  0.00  0.00    +0.037 C 
BRANCH  21  22
ATOM     22  C   LIG A   1      -8.400  -3.726 124.814  0.00  0.00    +0.032 C 
BRANCH  22  23
ATOM     23  C   LIG A   1      -8.899  -3.173 123.486  0.00  0.00    +0.156 C 
BRANCH  23  24
ATOM     24  O   LIG A   1     -10.282  -3.490 123.361  0.00  0.00    -0.395 OA
ATOM     25  H   LIG A   1     -10.641  -2.934 122.648  0.00  0.00    +0.209 HD
ENDBRANCH  23  24
ENDBRANCH  22  23
ENDBRANCH  21  22
ENDBRANCH   1  21
TORSDOF 6
ENDMDL
MODEL 9
REMARK VINA RESULT:      -6.5      7.584      8.653
REMARK  Name = NuBBE_259
REMARK  7 active torsions:
REMARK  status: ('A' for Active; 'I' for Inactive)
REMARK    1  A    between atoms: O_1  and  C_2
REMARK    2  A    between atoms: C_2  and  C_3
REMARK    3  A    between atoms: C_3  and  C_4
REMARK    4  A    between atoms: C_4  and  C_5
REMARK    5  A    between atoms: C_7  and  O_8
REMARK    6  A    between atoms: O_8  and  C_9
REMARK    7  A    between atoms: C_12  and  C_13
REMARK                            x       y       z     vdW  Elec       q    Type
REMARK                         _______ _______ _______ _____ _____    ______ ____
ROOT
ATOM      1  C   LIG A   1      -7.524  -1.009 125.246  0.00  0.00    -0.043 A 
ATOM      2  C   LIG A   1      -8.291   0.044 124.718  0.00  0.00    +0.053 A 
ATOM      3  C   LIG A   1      -8.830   1.054 125.533  0.00  0.00    +0.163 A 
ATOM      4  C   LIG A   1      -8.519   0.984 126.896  0.00  0.00    +0.177 A 
ATOM      5  O   LIG A   1      -8.898   1.858 127.872  0.00  0.00    -0.451 OA
ATOM      6  C   LIG A   1      -8.392   1.415 129.056  0.00  0.00    +0.137 A 
ATOM      7  C   LIG A   1      -7.662   0.259 128.839  0.00  0.00    +0.058 A 
ATOM      8  C   LIG A   1      -7.749  -0.028 127.455  0.00  0.00    +0.025 A 
ATOM      9  C   LIG A   1      -7.250  -1.045 126.624  0.00  0.00    +0.015 A 
ENDROOT
BRANCH   6  10
ATOM     10  C   LIG A   1      -8.720   2.191 130.244  0.00  0.00    +0.021 A 
ATOM     11  C   LIG A   1      -8.612   3.591 130.211  0.00  0.00    +0.061 A 
ATOM     12  C   LIG A   1      -8.896   4.299 131.353  0.00  0.00    +0.167 A 
ATOM     13  C   LIG A   1      -9.286   3.680 132.518  0.00  0.00    +0.166 A 
ATOM     14  O   LIG A   1      -9.510   4.565 133.523  0.00  0.00    -0.453 OA
ATOM     15  C   LIG A   1      -9.216   5.814 132.859  0.00  0.00    +0.466 C 
ATOM     16  O   LIG A   1      -8.828   5.653 131.481  0.00  0.00    -0.453 OA
ATOM     17  C   LIG A   1      -9.412   2.312 132.598  0.00  0.00    +0.050 A 
ATOM     18  C   LIG A   1      -9.128   1.564 131.448  0.00  0.00    +0.015 A 
ENDBRANCH   6  10
BRANCH   3  19
ATOM     19  O   LIG A   1      -9.571   2.032 124.892  0.00  0.00    -0.491 OA
ATOM     20  C   LIG A   1      -9.936   1.712 123.551  0.00  0.00    +0.277 C 
ENDBRANCH   3  19
BRANCH   1  21
ATOM     21  C   LIG A   1      -6.955  -2.082 124.344  0.00  0.00    +0.037 C 
BRANCH  21  22
ATOM     22  C   LIG A   1      -7.981  -2.763 123.435  0.00  0.00    +0.032 C 
BRANCH  22  23
ATOM     23  C   LIG A   1      -9.069  -3.512 124.193  0.00  0.00    +0.156 C 
BRANCH  23  24
ATOM     24  O   LIG A   1     -10.267  -3.456 123.426  0.00  0.00    -0.395 OA
ATOM     25  H   LIG A   1     -10.099  -3.931 122.594  0.00  0.00    +0.209 HD
ENDBRANCH  23  24
ENDBRANCH  22  23
ENDBRANCH  21  22
ENDBRANCH   1  21
TORSDOF 6
ENDMDL
