MODEL 1
REMARK VINA RESULT:      -6.9      0.000      0.000
REMARK  Name = NuBBE_1667
REMARK  15 active torsions:
REMARK  status: ('A' for Active; 'I' for Inactive)
REMARK    1  A    between atoms: C_2  and  C_3
REMARK    2  A    between atoms: C_2  and  C_13
REMARK    3  A    between atoms: C_6  and  O_7
REMARK    4  A    between atoms: O_7  and  C_8
REMARK    5  A    between atoms: C_9  and  O_10
REMARK    6  A    between atoms: O_10  and  C_11
REMARK    7  A    between atoms: C_13  and  C_15
REMARK    8  A    between atoms: C_13  and  C_16
REMARK    9  A    between atoms: C_16  and  C_18
REMARK   10  A    between atoms: C_16  and  C_19
REMARK   11  A    between atoms: C_19  and  C_20
REMARK   12  A    between atoms: C_23  and  O_24
REMARK   13  A    between atoms: O_24  and  C_25
REMARK   14  A    between atoms: C_26  and  O_27
REMARK   15  A    between atoms: O_27  and  C_28
REMARK                            x       y       z     vdW  Elec       q    Type
REMARK                         _______ _______ _______ _____ _____    ______ ____
ROOT
ATOM      1  C   LIG A   1      -8.096  -3.156 124.740  0.00  0.00    +0.060 C 
ATOM      2  C   LIG A   1      -8.997  -3.235 123.501  0.00  0.00    +0.016 C 
ENDROOT
BRANCH   1   4
ATOM      3  O   LIG A   1      -9.791  -1.672 125.564  0.00  0.00    -0.292 OA
ATOM      4  C   LIG A   1      -8.839  -2.379 125.835  0.00  0.00    +0.166 C 
BRANCH   4   5
ATOM      5  C   LIG A   1      -8.398  -2.431 127.276  0.00  0.00    +0.021 A 
ATOM      6  C   LIG A   1      -8.607  -3.505 128.119  0.00  0.00    +0.015 A 
ATOM      7  C   LIG A   1      -8.164  -3.445 129.453  0.00  0.00    +0.050 A 
ATOM      8  C   LIG A   1      -7.480  -2.320 129.946  0.00  0.00    +0.162 A 
ATOM      9  C   LIG A   1      -7.297  -1.221 129.098  0.00  0.00    +0.162 A 
ATOM     10  C   LIG A   1      -7.764  -1.282 127.771  0.00  0.00    +0.060 A 
BRANCH   8  11
ATOM     11  O   LIG A   1      -7.032  -2.242 131.238  0.00  0.00    -0.491 OA
ATOM     12  C   LIG A   1      -6.101  -3.232 131.661  0.00  0.00    +0.277 C 
ENDBRANCH   8  11
BRANCH   9  13
ATOM     13  O   LIG A   1      -6.636  -0.049 129.359  0.00  0.00    -0.491 OA
ATOM     14  C   LIG A   1      -5.423   0.190 128.661  0.00  0.00    +0.277 C 
ENDBRANCH   9  13
ENDBRANCH   4   5
ENDBRANCH   1   4
BRANCH   1  15
ATOM     15  C   LIG A   1      -6.706  -2.521 124.433  0.00  0.00    +0.001 C 
ATOM     16  C   LIG A   1      -5.706  -3.619 124.014  0.00  0.00    +0.008 C 
BRANCH  15  17
ATOM     17  C   LIG A   1      -6.763  -1.391 123.363  0.00  0.00    +0.039 C 
BRANCH  17  18
ATOM     18  C   LIG A   1      -6.963   0.021 123.885  0.00  0.00    -0.043 A 
ATOM     19  C   LIG A   1      -6.237   0.521 124.967  0.00  0.00    +0.007 A 
ATOM     20  C   LIG A   1      -6.389   1.846 125.370  0.00  0.00    +0.050 A 
ATOM     21  C   LIG A   1      -7.277   2.706 124.714  0.00  0.00    +0.162 A 
ATOM     22  C   LIG A   1      -8.034   2.220 123.638  0.00  0.00    +0.162 A 
ATOM     23  C   LIG A   1      -7.902   0.868 123.267  0.00  0.00    +0.053 A 
BRANCH  21  24
ATOM     24  O   LIG A   1      -7.191   3.994 125.170  0.00  0.00    -0.491 OA
ATOM     25  C   LIG A   1      -6.101   4.783 124.720  0.00  0.00    +0.277 C 
ENDBRANCH  21  24
BRANCH  22  26
ATOM     26  O   LIG A   1      -8.861   3.083 122.970  0.00  0.00    -0.491 OA
ATOM     27  C   LIG A   1      -8.495   3.391 121.627  0.00  0.00    +0.277 C 
ENDBRANCH  22  26
ENDBRANCH  17  18
ENDBRANCH  15  17
ENDBRANCH   1  15
TORSDOF 9
ENDMDL
MODEL 2
REMARK VINA RESULT:      -6.8      1.325      2.022
REMARK  Name = NuBBE_1667
REMARK  15 active torsions:
REMARK  status: ('A' for Active; 'I' for Inactive)
REMARK    1  A    between atoms: C_2  and  C_3
REMARK    2  A    between atoms: C_2  and  C_13
REMARK    3  A    between atoms: C_6  and  O_7
REMARK    4  A    between atoms: O_7  and  C_8
REMARK    5  A    between atoms: C_9  and  O_10
REMARK    6  A    between atoms: O_10  and  C_11
REMARK    7  A    between atoms: C_13  and  C_15
REMARK    8  A    between atoms: C_13  and  C_16
REMARK    9  A    between atoms: C_16  and  C_18
REMARK   10  A    between atoms: C_16  and  C_19
REMARK   11  A    between atoms: C_19  and  C_20
REMARK   12  A    between atoms: C_23  and  O_24
REMARK   13  A    between atoms: O_24  and  C_25
REMARK   14  A    between atoms: C_26  and  O_27
REMARK   15  A    between atoms: O_27  and  C_28
REMARK                            x       y       z     vdW  Elec       q    Type
REMARK                         _______ _______ _______ _____ _____    ______ ____
ROOT
ATOM      1  C   LIG A   1      -8.103  -3.268 124.708  0.00  0.00    +0.060 C 
ATOM      2  C   LIG A   1      -8.940  -3.237 123.424  0.00  0.00    +0.016 C 
ENDROOT
BRANCH   1   4
ATOM      3  O   LIG A   1     -10.014  -2.140 125.620  0.00  0.00    -0.292 OA
ATOM      4  C   LIG A   1      -8.917  -2.620 125.836  0.00  0.00    +0.166 C 
BRANCH   4   5
ATOM      5  C   LIG A   1      -8.377  -2.519 127.241  0.00  0.00    +0.021 A 
ATOM      6  C   LIG A   1      -8.326  -3.570 128.136  0.00  0.00    +0.015 A 
ATOM      7  C   LIG A   1      -7.812  -3.365 129.429  0.00  0.00    +0.050 A 
ATOM      8  C   LIG A   1      -7.316  -2.111 129.828  0.00  0.00    +0.162 A 
ATOM      9  C   LIG A   1      -7.399  -1.040 128.929  0.00  0.00    +0.162 A 
ATOM     10  C   LIG A   1      -7.935  -1.251 127.645  0.00  0.00    +0.060 A 
BRANCH   8  11
ATOM     11  O   LIG A   1      -6.804  -1.889 131.078  0.00  0.00    -0.491 OA
ATOM     12  C   LIG A   1      -7.721  -1.491 132.092  0.00  0.00    +0.277 C 
ENDBRANCH   8  11
BRANCH   9  13
ATOM     13  O   LIG A   1      -6.950   0.245 129.097  0.00  0.00    -0.491 OA
ATOM     14  C   LIG A   1      -7.923   1.261 129.280  0.00  0.00    +0.277 C 
ENDBRANCH   9  13
ENDBRANCH   4   5
ENDBRANCH   1   4
BRANCH   1  15
ATOM     15  C   LIG A   1      -6.715  -2.579 124.538  0.00  0.00    +0.001 C 
ATOM     16  C   LIG A   1      -5.673  -3.608 124.051  0.00  0.00    +0.008 C 
BRANCH  15  17
ATOM     17  C   LIG A   1      -6.748  -1.340 123.594  0.00  0.00    +0.039 C 
BRANCH  17  18
ATOM     18  C   LIG A   1      -7.121  -0.015 124.236  0.00  0.00    -0.043 A 
ATOM     19  C   LIG A   1      -8.353   0.598 124.008  0.00  0.00    +0.007 A 
ATOM     20  C   LIG A   1      -8.692   1.773 124.676  0.00  0.00    +0.050 A 
ATOM     21  C   LIG A   1      -7.810   2.375 125.579  0.00  0.00    +0.162 A 
ATOM     22  C   LIG A   1      -6.557   1.788 125.808  0.00  0.00    +0.162 A 
ATOM     23  C   LIG A   1      -6.209   0.624 125.097  0.00  0.00    +0.053 A 
BRANCH  21  24
ATOM     24  O   LIG A   1      -8.371   3.444 126.227  0.00  0.00    -0.491 OA
ATOM     25  C   LIG A   1      -8.082   4.742 125.732  0.00  0.00    +0.277 C 
ENDBRANCH  21  24
BRANCH  22  26
ATOM     26  O   LIG A   1      -5.721   2.356 126.733  0.00  0.00    -0.491 OA
ATOM     27  C   LIG A   1      -4.511   2.914 126.227  0.00  0.00    +0.277 C 
ENDBRANCH  22  26
ENDBRANCH  17  18
ENDBRANCH  15  17
ENDBRANCH   1  15
TORSDOF 9
ENDMDL
MODEL 3
REMARK VINA RESULT:      -6.7      1.370      7.047
REMARK  Name = NuBBE_1667
REMARK  15 active torsions:
REMARK  status: ('A' for Active; 'I' for Inactive)
REMARK    1  A    between atoms: C_2  and  C_3
REMARK    2  A    between atoms: C_2  and  C_13
REMARK    3  A    between atoms: C_6  and  O_7
REMARK    4  A    between atoms: O_7  and  C_8
REMARK    5  A    between atoms: C_9  and  O_10
REMARK    6  A    between atoms: O_10  and  C_11
REMARK    7  A    between atoms: C_13  and  C_15
REMARK    8  A    between atoms: C_13  and  C_16
REMARK    9  A    between atoms: C_16  and  C_18
REMARK   10  A    between atoms: C_16  and  C_19
REMARK   11  A    between atoms: C_19  and  C_20
REMARK   12  A    between atoms: C_23  and  O_24
REMARK   13  A    between atoms: O_24  and  C_25
REMARK   14  A    between atoms: C_26  and  O_27
REMARK   15  A    between atoms: O_27  and  C_28
REMARK                            x       y       z     vdW  Elec       q    Type
REMARK                         _______ _______ _______ _____ _____    ______ ____
ROOT
ATOM      1  C   LIG A   1      -8.366  -1.236 123.488  0.00  0.00    +0.060 C 
ATOM      2  C   LIG A   1      -6.848  -1.380 123.323  0.00  0.00    +0.016 C 
ENDROOT
BRANCH   1   4
ATOM      3  O   LIG A   1      -9.611   0.215 124.938  0.00  0.00    -0.292 OA
ATOM      4  C   LIG A   1      -8.656   0.095 124.194  0.00  0.00    +0.166 C 
BRANCH   4   5
ATOM      5  C   LIG A   1      -7.795   1.312 123.965  0.00  0.00    +0.021 A 
ATOM      6  C   LIG A   1      -6.882   1.807 124.876  0.00  0.00    +0.015 A 
ATOM      7  C   LIG A   1      -6.137   2.959 124.566  0.00  0.00    +0.050 A 
ATOM      8  C   LIG A   1      -6.277   3.609 123.327  0.00  0.00    +0.162 A 
ATOM      9  C   LIG A   1      -7.226   3.124 122.419  0.00  0.00    +0.162 A 
ATOM     10  C   LIG A   1      -7.983   1.984 122.748  0.00  0.00    +0.060 A 
BRANCH   8  11
ATOM     11  O   LIG A   1      -5.557   4.726 123.000  0.00  0.00    -0.491 OA
ATOM     12  C   LIG A   1      -4.587   4.592 121.967  0.00  0.00    +0.277 C 
ENDBRANCH   8  11
BRANCH   9  13
ATOM     13  O   LIG A   1      -7.501   3.580 121.155  0.00  0.00    -0.491 OA
ATOM     14  C   LIG A   1      -8.865   3.687 120.778  0.00  0.00    +0.277 C 
ENDBRANCH   9  13
ENDBRANCH   4   5
ENDBRANCH   1   4
BRANCH   1  15
ATOM     15  C   LIG A   1      -9.005  -2.436 124.251  0.00  0.00    +0.001 C 
ATOM     16  C   LIG A   1      -9.706  -3.381 123.252  0.00  0.00    +0.008 C 
BRANCH  15  17
ATOM     17  C   LIG A   1      -7.989  -3.222 125.132  0.00  0.00    +0.039 C 
BRANCH  17  18
ATOM     18  C   LIG A   1      -8.023  -2.927 126.622  0.00  0.00    -0.043 A 
ATOM     19  C   LIG A   1      -8.707  -3.743 127.524  0.00  0.00    +0.007 A 
ATOM     20  C   LIG A   1      -8.650  -3.487 128.892  0.00  0.00    +0.050 A 
ATOM     21  C   LIG A   1      -7.921  -2.406 129.399  0.00  0.00    +0.162 A 
ATOM     22  C   LIG A   1      -7.243  -1.559 128.509  0.00  0.00    +0.162 A 
ATOM     23  C   LIG A   1      -7.342  -1.803 127.126  0.00  0.00    +0.053 A 
BRANCH  21  24
ATOM     24  O   LIG A   1      -7.881  -2.395 130.767  0.00  0.00    -0.491 OA
ATOM     25  C   LIG A   1      -6.891  -3.187 131.405  0.00  0.00    +0.277 C 
ENDBRANCH  21  24
BRANCH  22  26
ATOM     26  O   LIG A   1      -6.490  -0.534 129.018  0.00  0.00    -0.491 OA
ATOM     27  C   LIG A   1      -5.087  -0.771 129.109  0.00  0.00    +0.277 C 
ENDBRANCH  22  26
ENDBRANCH  17  18
ENDBRANCH  15  17
ENDBRANCH   1  15
TORSDOF 9
ENDMDL
MODEL 4
REMARK VINA RESULT:      -6.6      1.435      6.592
REMARK  Name = NuBBE_1667
REMARK  15 active torsions:
REMARK  status: ('A' for Active; 'I' for Inactive)
REMARK    1  A    between atoms: C_2  and  C_3
REMARK    2  A    between atoms: C_2  and  C_13
REMARK    3  A    between atoms: C_6  and  O_7
REMARK    4  A    between atoms: O_7  and  C_8
REMARK    5  A    between atoms: C_9  and  O_10
REMARK    6  A    between atoms: O_10  and  C_11
REMARK    7  A    between atoms: C_13  and  C_15
REMARK    8  A    between atoms: C_13  and  C_16
REMARK    9  A    between atoms: C_16  and  C_18
REMARK   10  A    between atoms: C_16  and  C_19
REMARK   11  A    between atoms: C_19  and  C_20
REMARK   12  A    between atoms: C_23  and  O_24
REMARK   13  A    between atoms: O_24  and  C_25
REMARK   14  A    between atoms: C_26  and  O_27
REMARK   15  A    between atoms: O_27  and  C_28
REMARK                            x       y       z     vdW  Elec       q    Type
REMARK                         _______ _______ _______ _____ _____    ______ ____
ROOT
ATOM      1  C   LIG A   1      -8.721  -1.293 123.438  0.00  0.00    +0.060 C 
ATOM      2  C   LIG A   1      -7.268  -1.395 122.957  0.00  0.00    +0.016 C 
ENDROOT
BRANCH   1   4
ATOM      3  O   LIG A   1      -9.665   0.070 125.172  0.00  0.00    -0.292 OA
ATOM      4  C   LIG A   1      -8.876   0.001 124.249  0.00  0.00    +0.166 C 
BRANCH   4   5
ATOM      5  C   LIG A   1      -8.089   1.242 123.910  0.00  0.00    +0.021 A 
ATOM      6  C   LIG A   1      -8.377   2.087 122.855  0.00  0.00    +0.015 A 
ATOM      7  C   LIG A   1      -7.570   3.215 122.620  0.00  0.00    +0.050 A 
ATOM      8  C   LIG A   1      -6.484   3.524 123.457  0.00  0.00    +0.162 A 
ATOM      9  C   LIG A   1      -6.176   2.649 124.506  0.00  0.00    +0.162 A 
ATOM     10  C   LIG A   1      -6.976   1.510 124.720  0.00  0.00    +0.060 A 
BRANCH   8  11
ATOM     11  O   LIG A   1      -5.689   4.619 123.253  0.00  0.00    -0.491 OA
ATOM     12  C   LIG A   1      -4.892   4.631 122.073  0.00  0.00    +0.277 C 
ENDBRANCH   8  11
BRANCH   9  13
ATOM     13  O   LIG A   1      -5.192   2.774 125.453  0.00  0.00    -0.491 OA
ATOM     14  C   LIG A   1      -5.013   1.697 126.360  0.00  0.00    +0.277 C 
ENDBRANCH   9  13
ENDBRANCH   4   5
ENDBRANCH   1   4
BRANCH   1  15
ATOM     15  C   LIG A   1      -9.171  -2.538 124.260  0.00  0.00    +0.001 C 
ATOM     16  C   LIG A   1      -9.828  -3.576 123.327  0.00  0.00    +0.008 C 
BRANCH  15  17
ATOM     17  C   LIG A   1      -8.019  -3.189 125.082  0.00  0.00    +0.039 C 
BRANCH  17  18
ATOM     18  C   LIG A   1      -8.024  -2.921 126.577  0.00  0.00    -0.043 A 
ATOM     19  C   LIG A   1      -8.728  -3.729 127.472  0.00  0.00    +0.007 A 
ATOM     20  C   LIG A   1      -8.646  -3.501 128.844  0.00  0.00    +0.050 A 
ATOM     21  C   LIG A   1      -7.873  -2.457 129.362  0.00  0.00    +0.162 A 
ATOM     22  C   LIG A   1      -7.175  -1.619 128.480  0.00  0.00    +0.162 A 
ATOM     23  C   LIG A   1      -7.297  -1.832 127.094  0.00  0.00    +0.053 A 
BRANCH  21  24
ATOM     24  O   LIG A   1      -7.817  -2.475 130.730  0.00  0.00    -0.491 OA
ATOM     25  C   LIG A   1      -6.766  -3.209 131.338  0.00  0.00    +0.277 C 
ENDBRANCH  21  24
BRANCH  22  26
ATOM     26  O   LIG A   1      -6.378  -0.632 128.999  0.00  0.00    -0.491 OA
ATOM     27  C   LIG A   1      -7.026   0.601 129.307  0.00  0.00    +0.277 C 
ENDBRANCH  22  26
ENDBRANCH  17  18
ENDBRANCH  15  17
ENDBRANCH   1  15
TORSDOF 9
ENDMDL
MODEL 5
REMARK VINA RESULT:      -6.5      5.976      7.941
REMARK  Name = NuBBE_1667
REMARK  15 active torsions:
REMARK  status: ('A' for Active; 'I' for Inactive)
REMARK    1  A    between atoms: C_2  and  C_3
REMARK    2  A    between atoms: C_2  and  C_13
REMARK    3  A    between atoms: C_6  and  O_7
REMARK    4  A    between atoms: O_7  and  C_8
REMARK    5  A    between atoms: C_9  and  O_10
REMARK    6  A    between atoms: O_10  and  C_11
REMARK    7  A    between atoms: C_13  and  C_15
REMARK    8  A    between atoms: C_13  and  C_16
REMARK    9  A    between atoms: C_16  and  C_18
REMARK   10  A    between atoms: C_16  and  C_19
REMARK   11  A    between atoms: C_19  and  C_20
REMARK   12  A    between atoms: C_23  and  O_24
REMARK   13  A    between atoms: O_24  and  C_25
REMARK   14  A    between atoms: C_26  and  O_27
REMARK   15  A    between atoms: O_27  and  C_28
REMARK                            x       y       z     vdW  Elec       q    Type
REMARK                         _______ _______ _______ _____ _____    ______ ____
ROOT
ATOM      1  C   LIG A   1      -8.307   3.508 131.390  0.00  0.00    +0.060 C 
ATOM      2  C   LIG A   1      -7.146   4.402 130.937  0.00  0.00    +0.016 C 
ENDROOT
BRANCH   1   4
ATOM      3  O   LIG A   1      -9.986   3.465 129.677  0.00  0.00    -0.292 OA
ATOM      4  C   LIG A   1      -8.995   2.935 130.144  0.00  0.00    +0.166 C 
BRANCH   4   5
ATOM      5  C   LIG A   1      -8.497   1.678 129.475  0.00  0.00    +0.021 A 
ATOM      6  C   LIG A   1      -8.038   0.563 130.150  0.00  0.00    +0.015 A 
ATOM      7  C   LIG A   1      -7.584  -0.556 129.427  0.00  0.00    +0.050 A 
ATOM      8  C   LIG A   1      -7.612  -0.579 128.022  0.00  0.00    +0.162 A 
ATOM      9  C   LIG A   1      -8.048   0.565 127.341  0.00  0.00    +0.162 A 
ATOM     10  C   LIG A   1      -8.479   1.687 128.073  0.00  0.00    +0.060 A 
BRANCH   8  11
ATOM     11  O   LIG A   1      -7.183  -1.658 127.298  0.00  0.00    -0.491 OA
ATOM     12  C   LIG A   1      -5.787  -1.937 127.318  0.00  0.00    +0.277 C 
ENDBRANCH   8  11
BRANCH   9  13
ATOM     13  O   LIG A   1      -8.186   0.745 125.989  0.00  0.00    -0.491 OA
ATOM     14  C   LIG A   1      -7.650   1.933 125.427  0.00  0.00    +0.277 C 
ENDBRANCH   9  13
ENDBRANCH   4   5
ENDBRANCH   1   4
BRANCH   1  15
ATOM     15  C   LIG A   1      -9.320   4.255 132.309  0.00  0.00    +0.001 C 
ATOM     16  C   LIG A   1      -9.158   3.779 133.768  0.00  0.00    +0.008 C 
BRANCH  15  17
ATOM     17  C   LIG A   1      -9.210   5.806 132.221  0.00  0.00    +0.039 C 
BRANCH  17  18
ATOM     18  C   LIG A   1     -10.255   6.507 131.372  0.00  0.00    -0.043 A 
ATOM     19  C   LIG A   1     -11.587   6.617 131.776  0.00  0.00    +0.007 A 
ATOM     20  C   LIG A   1     -12.501   7.335 131.009  0.00  0.00    +0.050 A 
ATOM     21  C   LIG A   1     -12.120   7.954 129.814  0.00  0.00    +0.162 A 
ATOM     22  C   LIG A   1     -10.792   7.840 129.377  0.00  0.00    +0.162 A 
ATOM     23  C   LIG A   1      -9.886   7.076 130.138  0.00  0.00    +0.053 A 
BRANCH  21  24
ATOM     24  O   LIG A   1     -13.122   8.716 129.275  0.00  0.00    -0.491 OA
ATOM     25  C   LIG A   1     -13.197  10.079 129.661  0.00  0.00    +0.277 C 
ENDBRANCH  21  24
BRANCH  22  26
ATOM     26  O   LIG A   1     -10.415   8.492 128.233  0.00  0.00    -0.491 OA
ATOM     27  C   LIG A   1     -10.788   7.873 127.004  0.00  0.00    +0.277 C 
ENDBRANCH  22  26
ENDBRANCH  17  18
ENDBRANCH  15  17
ENDBRANCH   1  15
TORSDOF 9
ENDMDL
MODEL 6
REMARK VINA RESULT:      -6.5      5.883      7.838
REMARK  Name = NuBBE_1667
REMARK  15 active torsions:
REMARK  status: ('A' for Active; 'I' for Inactive)
REMARK    1  A    between atoms: C_2  and  C_3
REMARK    2  A    between atoms: C_2  and  C_13
REMARK    3  A    between atoms: C_6  and  O_7
REMARK    4  A    between atoms: O_7  and  C_8
REMARK    5  A    between atoms: C_9  and  O_10
REMARK    6  A    between atoms: O_10  and  C_11
REMARK    7  A    between atoms: C_13  and  C_15
REMARK    8  A    between atoms: C_13  and  C_16
REMARK    9  A    between atoms: C_16  and  C_18
REMARK   10  A    between atoms: C_16  and  C_19
REMARK   11  A    between atoms: C_19  and  C_20
REMARK   12  A    between atoms: C_23  and  O_24
REMARK   13  A    between atoms: O_24  and  C_25
REMARK   14  A    between atoms: C_26  and  O_27
REMARK   15  A    between atoms: O_27  and  C_28
REMARK                            x       y       z     vdW  Elec       q    Type
REMARK                         _______ _______ _______ _____ _____    ______ ____
ROOT
ATOM      1  C   LIG A   1      -8.085   3.633 131.271  0.00  0.00    +0.060 C 
ATOM      2  C   LIG A   1      -7.097   4.741 130.887  0.00  0.00    +0.016 C 
ENDROOT
BRANCH   1   4
ATOM      3  O   LIG A   1      -9.332   3.573 129.222  0.00  0.00    -0.292 OA
ATOM      4  C   LIG A   1      -8.599   2.972 129.985  0.00  0.00    +0.166 C 
BRANCH   4   5
ATOM      5  C   LIG A   1      -8.251   1.546 129.638  0.00  0.00    +0.021 A 
ATOM      6  C   LIG A   1      -8.018   1.089 128.355  0.00  0.00    +0.015 A 
ATOM      7  C   LIG A   1      -7.711  -0.267 128.140  0.00  0.00    +0.050 A 
ATOM      8  C   LIG A   1      -7.605  -1.172 129.211  0.00  0.00    +0.162 A 
ATOM      9  C   LIG A   1      -7.873  -0.712 130.506  0.00  0.00    +0.162 A 
ATOM     10  C   LIG A   1      -8.201   0.642 130.709  0.00  0.00    +0.060 A 
BRANCH   8  11
ATOM     11  O   LIG A   1      -7.300  -2.493 129.027  0.00  0.00    -0.491 OA
ATOM     12  C   LIG A   1      -8.391  -3.392 128.852  0.00  0.00    +0.277 C 
ENDBRANCH   8  11
BRANCH   9  13
ATOM     13  O   LIG A   1      -7.796  -1.407 131.686  0.00  0.00    -0.491 OA
ATOM     14  C   LIG A   1      -6.974  -0.871 132.711  0.00  0.00    +0.277 C 
ENDBRANCH   9  13
ENDBRANCH   4   5
ENDBRANCH   1   4
BRANCH   1  15
ATOM     15  C   LIG A   1      -9.259   4.153 132.154  0.00  0.00    +0.001 C 
ATOM     16  C   LIG A   1      -9.212   3.478 133.541  0.00  0.00    +0.008 C 
BRANCH  15  17
ATOM     17  C   LIG A   1      -9.288   5.704 132.297  0.00  0.00    +0.039 C 
BRANCH  17  18
ATOM     18  C   LIG A   1     -10.273   6.442 131.408  0.00  0.00    -0.043 A 
ATOM     19  C   LIG A   1     -11.610   6.614 131.766  0.00  0.00    +0.007 A 
ATOM     20  C   LIG A   1     -12.466   7.365 130.964  0.00  0.00    +0.050 A 
ATOM     21  C   LIG A   1     -12.018   7.956 129.777  0.00  0.00    +0.162 A 
ATOM     22  C   LIG A   1     -10.683   7.778 129.386  0.00  0.00    +0.162 A 
ATOM     23  C   LIG A   1      -9.838   6.983 130.183  0.00  0.00    +0.053 A 
BRANCH  21  24
ATOM     24  O   LIG A   1     -12.966   8.755 129.198  0.00  0.00    -0.491 OA
ATOM     25  C   LIG A   1     -13.171  10.046 129.753  0.00  0.00    +0.277 C 
ENDBRANCH  21  24
BRANCH  22  26
ATOM     26  O   LIG A   1     -10.239   8.403 128.250  0.00  0.00    -0.491 OA
ATOM     27  C   LIG A   1     -10.666   7.836 127.013  0.00  0.00    +0.277 C 
ENDBRANCH  22  26
ENDBRANCH  17  18
ENDBRANCH  15  17
ENDBRANCH   1  15
TORSDOF 9
ENDMDL
MODEL 7
REMARK VINA RESULT:      -6.4      1.508      2.500
REMARK  Name = NuBBE_1667
REMARK  15 active torsions:
REMARK  status: ('A' for Active; 'I' for Inactive)
REMARK    1  A    between atoms: C_2  and  C_3
REMARK    2  A    between atoms: C_2  and  C_13
REMARK    3  A    between atoms: C_6  and  O_7
REMARK    4  A    between atoms: O_7  and  C_8
REMARK    5  A    between atoms: C_9  and  O_10
REMARK    6  A    between atoms: O_10  and  C_11
REMARK    7  A    between atoms: C_13  and  C_15
REMARK    8  A    between atoms: C_13  and  C_16
REMARK    9  A    between atoms: C_16  and  C_18
REMARK   10  A    between atoms: C_16  and  C_19
REMARK   11  A    between atoms: C_19  and  C_20
REMARK   12  A    between atoms: C_23  and  O_24
REMARK   13  A    between atoms: O_24  and  C_25
REMARK   14  A    between atoms: C_26  and  O_27
REMARK   15  A    between atoms: O_27  and  C_28
REMARK                            x       y       z     vdW  Elec       q    Type
REMARK                         _______ _______ _______ _____ _____    ______ ____
ROOT
ATOM      1  C   LIG A   1      -8.101  -3.059 124.498  0.00  0.00    +0.060 C 
ATOM      2  C   LIG A   1      -9.109  -3.175 123.349  0.00  0.00    +0.016 C 
ENDROOT
BRANCH   1   4
ATOM      3  O   LIG A   1     -10.043  -2.670 125.851  0.00  0.00    -0.292 OA
ATOM      4  C   LIG A   1      -8.838  -2.547 125.743  0.00  0.00    +0.166 C 
BRANCH   4   5
ATOM      5  C   LIG A   1      -8.107  -1.840 126.857  0.00  0.00    +0.021 A 
ATOM      6  C   LIG A   1      -8.246  -0.498 127.154  0.00  0.00    +0.015 A 
ATOM      7  C   LIG A   1      -7.506   0.066 128.210  0.00  0.00    +0.050 A 
ATOM      8  C   LIG A   1      -6.643  -0.716 128.997  0.00  0.00    +0.162 A 
ATOM      9  C   LIG A   1      -6.480  -2.069 128.672  0.00  0.00    +0.162 A 
ATOM     10  C   LIG A   1      -7.208  -2.618 127.600  0.00  0.00    +0.060 A 
BRANCH   8  11
ATOM     11  O   LIG A   1      -5.919  -0.192 130.034  0.00  0.00    -0.491 OA
ATOM     12  C   LIG A   1      -4.804   0.627 129.697  0.00  0.00    +0.277 C 
ENDBRANCH   8  11
BRANCH   9  13
ATOM     13  O   LIG A   1      -5.723  -3.011 129.320  0.00  0.00    -0.491 OA
ATOM     14  C   LIG A   1      -4.358  -3.124 128.949  0.00  0.00    +0.277 C 
ENDBRANCH   9  13
ENDBRANCH   4   5
ENDBRANCH   1   4
BRANCH   1  15
ATOM     15  C   LIG A   1      -6.884  -2.153 124.142  0.00  0.00    +0.001 C 
ATOM     16  C   LIG A   1      -5.700  -3.022 123.669  0.00  0.00    +0.008 C 
BRANCH  15  17
ATOM     17  C   LIG A   1      -7.216  -1.054 123.089  0.00  0.00    +0.039 C 
BRANCH  17  18
ATOM     18  C   LIG A   1      -7.609   0.306 123.637  0.00  0.00    -0.043 A 
ATOM     19  C   LIG A   1      -8.895   0.825 123.479  0.00  0.00    +0.007 A 
ATOM     20  C   LIG A   1      -9.243   2.041 124.063  0.00  0.00    +0.050 A 
ATOM     21  C   LIG A   1      -8.319   2.779 124.809  0.00  0.00    +0.162 A 
ATOM     22  C   LIG A   1      -7.014   2.288 124.963  0.00  0.00    +0.162 A 
ATOM     23  C   LIG A   1      -6.661   1.079 124.333  0.00  0.00    +0.053 A 
BRANCH  21  24
ATOM     24  O   LIG A   1      -8.882   3.875 125.406  0.00  0.00    -0.491 OA
ATOM     25  C   LIG A   1      -8.062   5.018 125.597  0.00  0.00    +0.277 C 
ENDBRANCH  21  24
BRANCH  22  26
ATOM     26  O   LIG A   1      -6.130   2.992 125.738  0.00  0.00    -0.491 OA
ATOM     27  C   LIG A   1      -5.076   2.237 126.332  0.00  0.00    +0.277 C 
ENDBRANCH  22  26
ENDBRANCH  17  18
ENDBRANCH  15  17
ENDBRANCH   1  15
TORSDOF 9
ENDMDL
MODEL 8
REMARK VINA RESULT:      -6.4      5.977      8.844
REMARK  Name = NuBBE_1667
REMARK  15 active torsions:
REMARK  status: ('A' for Active; 'I' for Inactive)
REMARK    1  A    between atoms: C_2  and  C_3
REMARK    2  A    between atoms: C_2  and  C_13
REMARK    3  A    between atoms: C_6  and  O_7
REMARK    4  A    between atoms: O_7  and  C_8
REMARK    5  A    between atoms: C_9  and  O_10
REMARK    6  A    between atoms: O_10  and  C_11
REMARK    7  A    between atoms: C_13  and  C_15
REMARK    8  A    between atoms: C_13  and  C_16
REMARK    9  A    between atoms: C_16  and  C_18
REMARK   10  A    between atoms: C_16  and  C_19
REMARK   11  A    between atoms: C_19  and  C_20
REMARK   12  A    between atoms: C_23  and  O_24
REMARK   13  A    between atoms: O_24  and  C_25
REMARK   14  A    between atoms: C_26  and  O_27
REMARK   15  A    between atoms: O_27  and  C_28
REMARK                            x       y       z     vdW  Elec       q    Type
REMARK                         _______ _______ _______ _____ _____    ______ ____
ROOT
ATOM      1  C   LIG A   1      -9.335   4.518 130.992  0.00  0.00    +0.060 C 
ATOM      2  C   LIG A   1      -9.398   3.717 132.298  0.00  0.00    +0.016 C 
ENDROOT
BRANCH   1   4
ATOM      3  O   LIG A   1     -11.427   3.706 130.144  0.00  0.00    -0.292 OA
ATOM      4  C   LIG A   1     -10.761   4.678 130.448  0.00  0.00    +0.166 C 
BRANCH   4   5
ATOM      5  C   LIG A   1     -11.376   6.038 130.235  0.00  0.00    +0.021 A 
ATOM      6  C   LIG A   1     -12.270   6.636 131.102  0.00  0.00    +0.015 A 
ATOM      7  C   LIG A   1     -12.794   7.907 130.801  0.00  0.00    +0.050 A 
ATOM      8  C   LIG A   1     -12.405   8.603 129.644  0.00  0.00    +0.162 A 
ATOM      9  C   LIG A   1     -11.524   7.980 128.751  0.00  0.00    +0.162 A 
ATOM     10  C   LIG A   1     -11.022   6.699 129.050  0.00  0.00    +0.060 A 
BRANCH   8  11
ATOM     11  O   LIG A   1     -12.895   9.843 129.334  0.00  0.00    -0.491 OA
ATOM     12  C   LIG A   1     -13.397  10.628 130.410  0.00  0.00    +0.277 C 
ENDBRANCH   8  11
BRANCH   9  13
ATOM     13  O   LIG A   1     -10.993   8.485 127.592  0.00  0.00    -0.491 OA
ATOM     14  C   LIG A   1     -10.923   7.618 126.470  0.00  0.00    +0.277 C 
ENDBRANCH   9  13
ENDBRANCH   4   5
ENDBRANCH   1   4
BRANCH   1  15
ATOM     15  C   LIG A   1      -8.390   3.872 129.934  0.00  0.00    +0.001 C 
ATOM     16  C   LIG A   1      -7.053   4.640 129.882  0.00  0.00    +0.008 C 
BRANCH  15  17
ATOM     17  C   LIG A   1      -8.142   2.352 130.171  0.00  0.00    +0.039 C 
BRANCH  17  18
ATOM     18  C   LIG A   1      -8.118   1.473 128.933  0.00  0.00    -0.043 A 
ATOM     19  C   LIG A   1      -7.468   0.238 128.912  0.00  0.00    +0.007 A 
ATOM     20  C   LIG A   1      -7.534  -0.577 127.785  0.00  0.00    +0.050 A 
ATOM     21  C   LIG A   1      -8.238  -0.180 126.642  0.00  0.00    +0.162 A 
ATOM     22  C   LIG A   1      -8.880   1.067 126.631  0.00  0.00    +0.162 A 
ATOM     23  C   LIG A   1      -8.772   1.900 127.761  0.00  0.00    +0.053 A 
BRANCH  21  24
ATOM     24  O   LIG A   1      -8.294  -1.165 125.693  0.00  0.00    -0.491 OA
ATOM     25  C   LIG A   1      -9.222  -2.220 125.890  0.00  0.00    +0.277 C 
ENDBRANCH  21  24
BRANCH  22  26
ATOM     26  O   LIG A   1      -9.610   1.424 125.528  0.00  0.00    -0.491 OA
ATOM     27  C   LIG A   1      -8.913   2.160 124.525  0.00  0.00    +0.277 C 
ENDBRANCH  22  26
ENDBRANCH  17  18
ENDBRANCH  15  17
ENDBRANCH   1  15
TORSDOF 9
ENDMDL
MODEL 9
REMARK VINA RESULT:      -6.3      2.766      6.176
REMARK  Name = NuBBE_1667
REMARK  15 active torsions:
REMARK  status: ('A' for Active; 'I' for Inactive)
REMARK    1  A    between atoms: C_2  and  C_3
REMARK    2  A    between atoms: C_2  and  C_13
REMARK    3  A    between atoms: C_6  and  O_7
REMARK    4  A    between atoms: O_7  and  C_8
REMARK    5  A    between atoms: C_9  and  O_10
REMARK    6  A    between atoms: O_10  and  C_11
REMARK    7  A    between atoms: C_13  and  C_15
REMARK    8  A    between atoms: C_13  and  C_16
REMARK    9  A    between atoms: C_16  and  C_18
REMARK   10  A    between atoms: C_16  and  C_19
REMARK   11  A    between atoms: C_19  and  C_20
REMARK   12  A    between atoms: C_23  and  O_24
REMARK   13  A    between atoms: O_24  and  C_25
REMARK   14  A    between atoms: C_26  and  O_27
REMARK   15  A    between atoms: O_27  and  C_28
REMARK                            x       y       z     vdW  Elec       q    Type
REMARK                         _______ _______ _______ _____ _____    ______ ____
ROOT
ATOM      1  C   LIG A   1      -4.519  -3.074 129.762  0.00  0.00    +0.060 C 
ATOM      2  C   LIG A   1      -3.262  -3.785 129.245  0.00  0.00    +0.016 C 
ENDROOT
BRANCH   1   4
ATOM      3  O   LIG A   1      -3.117  -2.513 131.626  0.00  0.00    -0.292 OA
ATOM      4  C   LIG A   1      -4.147  -2.280 131.021  0.00  0.00    +0.166 C 
BRANCH   4   5
ATOM      5  C   LIG A   1      -5.056  -1.212 131.577  0.00  0.00    +0.021 A 
ATOM      6  C   LIG A   1      -5.483  -0.104 130.871  0.00  0.00    +0.015 A 
ATOM      7  C   LIG A   1      -6.323   0.840 131.490  0.00  0.00    +0.050 A 
ATOM      8  C   LIG A   1      -6.766   0.667 132.812  0.00  0.00    +0.162 A 
ATOM      9  C   LIG A   1      -6.305  -0.440 133.535  0.00  0.00    +0.162 A 
ATOM     10  C   LIG A   1      -5.447  -1.367 132.914  0.00  0.00    +0.060 A 
BRANCH   8  11
ATOM     11  O   LIG A   1      -7.589   1.568 133.433  0.00  0.00    -0.491 OA
ATOM     12  C   LIG A   1      -8.705   2.046 132.689  0.00  0.00    +0.277 C 
ENDBRANCH   8  11
BRANCH   9  13
ATOM     13  O   LIG A   1      -6.634  -0.815 134.813  0.00  0.00    -0.491 OA
ATOM     14  C   LIG A   1      -5.637  -0.679 135.814  0.00  0.00    +0.277 C 
ENDBRANCH   9  13
ENDBRANCH   4   5
ENDBRANCH   1   4
BRANCH   1  15
ATOM     15  C   LIG A   1      -5.698  -4.057 130.035  0.00  0.00    +0.001 C 
ATOM     16  C   LIG A   1      -5.464  -4.803 131.365  0.00  0.00    +0.008 C 
BRANCH  15  17
ATOM     17  C   LIG A   1      -7.094  -3.367 130.029  0.00  0.00    +0.039 C 
BRANCH  17  18
ATOM     18  C   LIG A   1      -7.701  -3.088 128.665  0.00  0.00    -0.043 A 
ATOM     19  C   LIG A   1      -8.645  -3.937 128.086  0.00  0.00    +0.007 A 
ATOM     20  C   LIG A   1      -9.238  -3.609 126.869  0.00  0.00    +0.050 A 
ATOM     21  C   LIG A   1      -8.901  -2.433 126.190  0.00  0.00    +0.162 A 
ATOM     22  C   LIG A   1      -7.939  -1.575 126.742  0.00  0.00    +0.162 A 
ATOM     23  C   LIG A   1      -7.315  -1.937 127.951  0.00  0.00    +0.053 A 
BRANCH  21  24
ATOM     24  O   LIG A   1      -9.680  -2.224 125.084  0.00  0.00    -0.491 OA
ATOM     25  C   LIG A   1      -9.259  -2.806 123.860  0.00  0.00    +0.277 C 
ENDBRANCH  21  24
BRANCH  22  26
ATOM     26  O   LIG A   1      -7.652  -0.401 126.097  0.00  0.00    -0.491 OA
ATOM     27  C   LIG A   1      -6.536  -0.428 125.210  0.00  0.00    +0.277 C 
ENDBRANCH  22  26
ENDBRANCH  17  18
ENDBRANCH  15  17
ENDBRANCH   1  15
TORSDOF 9
ENDMDL
