MODEL 1
REMARK VINA RESULT:      -7.6      0.000      0.000
REMARK  Name = NuBBE_1581
REMARK  7 active torsions:
REMARK  status: ('A' for Active; 'I' for Inactive)
REMARK    1  A    between atoms: C_1  and  O_2
REMARK    2  A    between atoms: O_2  and  C_3
REMARK    3  A    between atoms: C_7  and  C_8
REMARK    4  A    between atoms: C_21  and  O_22
REMARK    5  A    between atoms: O_22  and  C_23
REMARK    6  A    between atoms: C_24  and  O_25
REMARK    7  A    between atoms: O_25  and  C_26
REMARK                            x       y       z     vdW  Elec       q    Type
REMARK                         _______ _______ _______ _____ _____    ______ ____
ROOT
ATOM      1  C   LIG A   1      -8.606  -0.398 124.158  0.00  0.00    +0.179 A 
ATOM      2  C   LIG A   1      -7.845   0.551 124.891  0.00  0.00    +0.109 A 
ATOM      3  C   LIG A   1      -6.559   0.226 125.311  0.00  0.00    +0.146 A 
ATOM      4  O   LIG A   1      -5.719   1.081 125.981  0.00  0.00    -0.454 OA
ATOM      5  C   LIG A   1      -6.077   2.407 126.101  0.00  0.00    +0.139 A 
ATOM      6  C   LIG A   1      -7.291   2.864 125.758  0.00  0.00    +0.098 A 
ATOM      7  C   LIG A   1      -8.296   1.934 125.198  0.00  0.00    +0.197 A 
ATOM      8  O   LIG A   1      -9.434   2.363 124.994  0.00  0.00    -0.287 OA
ATOM      9  C   LIG A   1      -6.005  -1.012 125.020  0.00  0.00    +0.096 A 
ATOM     10  C   LIG A   1      -6.697  -1.936 124.236  0.00  0.00    +0.169 A 
ATOM     11  C   LIG A   1      -8.021  -1.655 123.833  0.00  0.00    +0.204 A 
ENDROOT
BRANCH   5  12
ATOM     12  C   LIG A   1      -4.991   3.279 126.615  0.00  0.00    +0.021 A 
ATOM     13  C   LIG A   1      -5.215   4.621 126.968  0.00  0.00    +0.061 A 
ATOM     14  C   LIG A   1      -4.153   5.368 127.441  0.00  0.00    +0.167 A 
ATOM     15  O   LIG A   1      -4.209   6.675 127.815  0.00  0.00    -0.453 OA
ATOM     16  C   LIG A   1      -2.840   6.906 128.208  0.00  0.00    +0.466 C 
ATOM     17  O   LIG A   1      -1.998   5.743 128.061  0.00  0.00    -0.453 OA
ATOM     18  C   LIG A   1      -2.892   4.840 127.582  0.00  0.00    +0.166 A 
ATOM     19  C   LIG A   1      -2.622   3.530 127.260  0.00  0.00    +0.050 A 
ATOM     20  C   LIG A   1      -3.682   2.750 126.777  0.00  0.00    +0.015 A 
ENDBRANCH   5  12
BRANCH   1  22
ATOM     21  C   LIG A   1     -10.137   0.379 122.425  0.00  0.00    +0.277 C 
ATOM     22  O   LIG A   1      -9.848   0.039 123.771  0.00  0.00    -0.490 OA
ENDBRANCH   1  22
BRANCH  10  23
ATOM     23  O   LIG A   1      -6.104  -3.099 123.810  0.00  0.00    -0.491 OA
ATOM     24  C   LIG A   1      -4.683  -3.076 123.690  0.00  0.00    +0.277 C 
ENDBRANCH  10  23
BRANCH  11  25
ATOM     25  O   LIG A   1      -8.681  -2.447 122.928  0.00  0.00    -0.488 OA
ATOM     26  C   LIG A   1      -9.646  -3.396 123.361  0.00  0.00    +0.277 C 
ENDBRANCH  11  25
TORSDOF 4
ENDMDL
MODEL 2
REMARK VINA RESULT:      -7.6      7.808     10.393
REMARK  Name = NuBBE_1581
REMARK  7 active torsions:
REMARK  status: ('A' for Active; 'I' for Inactive)
REMARK    1  A    between atoms: C_1  and  O_2
REMARK    2  A    between atoms: O_2  and  C_3
REMARK    3  A    between atoms: C_7  and  C_8
REMARK    4  A    between atoms: C_21  and  O_22
REMARK    5  A    between atoms: O_22  and  C_23
REMARK    6  A    between atoms: C_24  and  O_25
REMARK    7  A    between atoms: O_25  and  C_26
REMARK                            x       y       z     vdW  Elec       q    Type
REMARK                         _______ _______ _______ _____ _____    ______ ____
ROOT
ATOM      1  C   LIG A   1      -4.131   5.795 132.393  0.00  0.00    +0.179 A 
ATOM      2  C   LIG A   1      -5.498   6.128 132.202  0.00  0.00    +0.109 A 
ATOM      3  C   LIG A   1      -5.876   6.876 131.092  0.00  0.00    +0.146 A 
ATOM      4  O   LIG A   1      -7.171   7.212 130.783  0.00  0.00    -0.454 OA
ATOM      5  C   LIG A   1      -8.197   6.635 131.501  0.00  0.00    +0.139 A 
ATOM      6  C   LIG A   1      -7.987   5.906 132.608  0.00  0.00    +0.098 A 
ATOM      7  C   LIG A   1      -6.605   5.670 133.082  0.00  0.00    +0.197 A 
ATOM      8  O   LIG A   1      -6.453   5.088 134.159  0.00  0.00    -0.287 OA
ATOM      9  C   LIG A   1      -4.936   7.299 130.162  0.00  0.00    +0.096 A 
ATOM     10  C   LIG A   1      -3.598   6.923 130.281  0.00  0.00    +0.169 A 
ATOM     11  C   LIG A   1      -3.174   6.202 131.420  0.00  0.00    +0.204 A 
ENDROOT
BRANCH   5  12
ATOM     12  C   LIG A   1      -9.544   6.874 130.923  0.00  0.00    +0.021 A 
ATOM     13  C   LIG A   1      -9.728   7.616 129.743  0.00  0.00    +0.061 A 
ATOM     14  C   LIG A   1     -11.013   7.794 129.266  0.00  0.00    +0.167 A 
ATOM     15  O   LIG A   1     -11.352   8.489 128.147  0.00  0.00    -0.453 OA
ATOM     16  C   LIG A   1     -12.786   8.334 128.153  0.00  0.00    +0.466 C 
ATOM     17  O   LIG A   1     -13.273   7.558 129.268  0.00  0.00    -0.453 OA
ATOM     18  C   LIG A   1     -12.109   7.265 129.903  0.00  0.00    +0.166 A 
ATOM     19  C   LIG A   1     -11.982   6.523 131.054  0.00  0.00    +0.050 A 
ATOM     20  C   LIG A   1     -10.690   6.328 131.561  0.00  0.00    +0.015 A 
ENDBRANCH   5  12
BRANCH   1  22
ATOM     21  C   LIG A   1      -3.259   5.574 134.661  0.00  0.00    +0.277 C 
ATOM     22  O   LIG A   1      -3.876   5.031 133.505  0.00  0.00    -0.490 OA
ENDBRANCH   1  22
BRANCH  10  23
ATOM     23  O   LIG A   1      -2.687   7.201 129.292  0.00  0.00    -0.491 OA
ATOM     24  C   LIG A   1      -2.755   6.386 128.123  0.00  0.00    +0.277 C 
ENDBRANCH  10  23
BRANCH  11  25
ATOM     25  O   LIG A   1      -1.915   5.666 131.505  0.00  0.00    -0.488 OA
ATOM     26  C   LIG A   1      -0.845   6.410 132.071  0.00  0.00    +0.277 C 
ENDBRANCH  11  25
TORSDOF 4
ENDMDL
MODEL 3
REMARK VINA RESULT:      -7.0      4.894      6.910
REMARK  Name = NuBBE_1581
REMARK  7 active torsions:
REMARK  status: ('A' for Active; 'I' for Inactive)
REMARK    1  A    between atoms: C_1  and  O_2
REMARK    2  A    between atoms: O_2  and  C_3
REMARK    3  A    between atoms: C_7  and  C_8
REMARK    4  A    between atoms: C_21  and  O_22
REMARK    5  A    between atoms: O_22  and  C_23
REMARK    6  A    between atoms: C_24  and  O_25
REMARK    7  A    between atoms: O_25  and  C_26
REMARK                            x       y       z     vdW  Elec       q    Type
REMARK                         _______ _______ _______ _____ _____    ______ ____
ROOT
ATOM      1  C   LIG A   1      -9.062  -0.377 125.093  0.00  0.00    +0.179 A 
ATOM      2  C   LIG A   1      -8.519  -1.052 126.218  0.00  0.00    +0.109 A 
ATOM      3  C   LIG A   1      -7.933  -0.319 127.245  0.00  0.00    +0.146 A 
ATOM      4  O   LIG A   1      -7.423  -0.862 128.398  0.00  0.00    -0.454 OA
ATOM      5  C   LIG A   1      -7.652  -2.197 128.663  0.00  0.00    +0.139 A 
ATOM      6  C   LIG A   1      -8.189  -3.032 127.761  0.00  0.00    +0.098 A 
ATOM      7  C   LIG A   1      -8.588  -2.522 126.430  0.00  0.00    +0.197 A 
ATOM      8  O   LIG A   1      -8.978  -3.336 125.590  0.00  0.00    -0.287 OA
ATOM      9  C   LIG A   1      -7.875   1.067 127.190  0.00  0.00    +0.096 A 
ATOM     10  C   LIG A   1      -8.467   1.763 126.135  0.00  0.00    +0.169 A 
ATOM     11  C   LIG A   1      -9.030   1.046 125.055  0.00  0.00    +0.204 A 
ENDROOT
BRANCH   5  12
ATOM     12  C   LIG A   1      -7.276  -2.609 130.038  0.00  0.00    +0.021 A 
ATOM     13  C   LIG A   1      -7.756  -1.937 131.176  0.00  0.00    +0.061 A 
ATOM     14  C   LIG A   1      -7.362  -2.382 132.424  0.00  0.00    +0.167 A 
ATOM     15  O   LIG A   1      -7.734  -1.834 133.613  0.00  0.00    -0.453 OA
ATOM     16  C   LIG A   1      -7.036  -2.693 134.538  0.00  0.00    +0.466 C 
ATOM     17  O   LIG A   1      -6.265  -3.728 133.891  0.00  0.00    -0.453 OA
ATOM     18  C   LIG A   1      -6.525  -3.460 132.585  0.00  0.00    +0.166 A 
ATOM     19  C   LIG A   1      -6.037  -4.158 131.506  0.00  0.00    +0.050 A 
ATOM     20  C   LIG A   1      -6.419  -3.727 130.228  0.00  0.00    +0.015 A 
ENDBRANCH   5  12
BRANCH   1  22
ATOM     21  C   LIG A   1      -9.039  -1.427 122.892  0.00  0.00    +0.277 C 
ATOM     22  O   LIG A   1      -9.639  -1.196 124.156  0.00  0.00    -0.490 OA
ENDBRANCH   1  22
BRANCH  10  23
ATOM     23  O   LIG A   1      -8.555   3.133 126.143  0.00  0.00    -0.491 OA
ATOM     24  C   LIG A   1      -7.321   3.845 126.076  0.00  0.00    +0.277 C 
ENDBRANCH  10  23
BRANCH  11  25
ATOM     25  O   LIG A   1      -9.769   1.672 124.084  0.00  0.00    -0.488 OA
ATOM     26  C   LIG A   1      -9.139   2.224 122.935  0.00  0.00    +0.277 C 
ENDBRANCH  11  25
TORSDOF 4
ENDMDL
MODEL 4
REMARK VINA RESULT:      -6.9      3.896      6.369
REMARK  Name = NuBBE_1581
REMARK  7 active torsions:
REMARK  status: ('A' for Active; 'I' for Inactive)
REMARK    1  A    between atoms: C_1  and  O_2
REMARK    2  A    between atoms: O_2  and  C_3
REMARK    3  A    between atoms: C_7  and  C_8
REMARK    4  A    between atoms: C_21  and  O_22
REMARK    5  A    between atoms: O_22  and  C_23
REMARK    6  A    between atoms: C_24  and  O_25
REMARK    7  A    between atoms: O_25  and  C_26
REMARK                            x       y       z     vdW  Elec       q    Type
REMARK                         _______ _______ _______ _____ _____    ______ ____
ROOT
ATOM      1  C   LIG A   1      -8.720   0.740 124.307  0.00  0.00    +0.179 A 
ATOM      2  C   LIG A   1      -8.109  -0.187 125.193  0.00  0.00    +0.109 A 
ATOM      3  C   LIG A   1      -6.871   0.109 125.754  0.00  0.00    +0.146 A 
ATOM      4  O   LIG A   1      -6.214  -0.689 126.657  0.00  0.00    -0.454 OA
ATOM      5  C   LIG A   1      -6.879  -1.770 127.197  0.00  0.00    +0.139 A 
ATOM      6  C   LIG A   1      -8.070  -2.187 126.743  0.00  0.00    +0.098 A 
ATOM      7  C   LIG A   1      -8.735  -1.459 125.640  0.00  0.00    +0.197 A 
ATOM      8  O   LIG A   1      -9.775  -1.932 125.176  0.00  0.00    -0.287 OA
ATOM      9  C   LIG A   1      -6.224   1.303 125.466  0.00  0.00    +0.096 A 
ATOM     10  C   LIG A   1      -6.832   2.266 124.660  0.00  0.00    +0.169 A 
ATOM     11  C   LIG A   1      -8.068   1.977 124.039  0.00  0.00    +0.204 A 
ENDROOT
BRANCH   5  12
ATOM     12  C   LIG A   1      -6.169  -2.404 128.337  0.00  0.00    +0.021 A 
ATOM     13  C   LIG A   1      -6.837  -2.781 129.515  0.00  0.00    +0.061 A 
ATOM     14  C   LIG A   1      -6.107  -3.367 130.531  0.00  0.00    +0.167 A 
ATOM     15  O   LIG A   1      -6.607  -3.779 131.728  0.00  0.00    -0.453 OA
ATOM     16  C   LIG A   1      -5.416  -4.296 132.358  0.00  0.00    +0.466 C 
ATOM     17  O   LIG A   1      -4.237  -4.183 131.533  0.00  0.00    -0.453 OA
ATOM     18  C   LIG A   1      -4.757  -3.598 130.423  0.00  0.00    +0.166 A 
ATOM     19  C   LIG A   1      -4.059  -3.258 129.288  0.00  0.00    +0.050 A 
ATOM     20  C   LIG A   1      -4.775  -2.660 128.242  0.00  0.00    +0.015 A 
ENDBRANCH   5  12
BRANCH   1  22
ATOM     21  C   LIG A   1     -10.153  -0.007 122.481  0.00  0.00    +0.277 C 
ATOM     22  O   LIG A   1      -9.951   0.358 123.836  0.00  0.00    -0.490 OA
ENDBRANCH   1  22
BRANCH  10  23
ATOM     23  O   LIG A   1      -6.277   3.511 124.491  0.00  0.00    -0.491 OA
ATOM     24  C   LIG A   1      -6.372   4.402 125.601  0.00  0.00    +0.277 C 
ENDBRANCH  10  23
BRANCH  11  25
ATOM     25  O   LIG A   1      -8.785   2.943 123.381  0.00  0.00    -0.488 OA
ATOM     26  C   LIG A   1      -8.618   3.147 121.984  0.00  0.00    +0.277 C 
ENDBRANCH  11  25
TORSDOF 4
ENDMDL
MODEL 5
REMARK VINA RESULT:      -6.7      5.408      7.382
REMARK  Name = NuBBE_1581
REMARK  7 active torsions:
REMARK  status: ('A' for Active; 'I' for Inactive)
REMARK    1  A    between atoms: C_1  and  O_2
REMARK    2  A    between atoms: O_2  and  C_3
REMARK    3  A    between atoms: C_7  and  C_8
REMARK    4  A    between atoms: C_21  and  O_22
REMARK    5  A    between atoms: O_22  and  C_23
REMARK    6  A    between atoms: C_24  and  O_25
REMARK    7  A    between atoms: O_25  and  C_26
REMARK                            x       y       z     vdW  Elec       q    Type
REMARK                         _______ _______ _______ _____ _____    ______ ____
ROOT
ATOM      1  C   LIG A   1      -8.129  -1.246 125.453  0.00  0.00    +0.179 A 
ATOM      2  C   LIG A   1      -7.817  -1.959 126.640  0.00  0.00    +0.109 A 
ATOM      3  C   LIG A   1      -6.713  -1.583 127.400  0.00  0.00    +0.146 A 
ATOM      4  O   LIG A   1      -6.348  -2.168 128.587  0.00  0.00    -0.454 OA
ATOM      5  C   LIG A   1      -7.211  -3.067 129.178  0.00  0.00    +0.139 A 
ATOM      6  C   LIG A   1      -8.304  -3.538 128.558  0.00  0.00    +0.098 A 
ATOM      7  C   LIG A   1      -8.637  -3.067 127.196  0.00  0.00    +0.197 A 
ATOM      8  O   LIG A   1      -9.586  -3.599 126.615  0.00  0.00    -0.287 OA
ATOM      9  C   LIG A   1      -5.913  -0.515 127.016  0.00  0.00    +0.096 A 
ATOM     10  C   LIG A   1      -6.238   0.252 125.897  0.00  0.00    +0.169 A 
ATOM     11  C   LIG A   1      -7.325  -0.131 125.080  0.00  0.00    +0.204 A 
ENDROOT
BRANCH   5  12
ATOM     12  C   LIG A   1      -6.832  -3.440 130.565  0.00  0.00    +0.021 A 
ATOM     13  C   LIG A   1      -5.803  -4.358 130.835  0.00  0.00    +0.061 A 
ATOM     14  C   LIG A   1      -5.509  -4.654 132.153  0.00  0.00    +0.167 A 
ATOM     15  O   LIG A   1      -4.550  -5.522 132.574  0.00  0.00    -0.453 OA
ATOM     16  C   LIG A   1      -4.699  -5.421 134.005  0.00  0.00    +0.466 C 
ATOM     17  O   LIG A   1      -5.737  -4.504 134.410  0.00  0.00    -0.453 OA
ATOM     18  C   LIG A   1      -6.184  -4.075 133.201  0.00  0.00    +0.166 A 
ATOM     19  C   LIG A   1      -7.192  -3.164 132.990  0.00  0.00    +0.050 A 
ATOM     20  C   LIG A   1      -7.512  -2.847 131.663  0.00  0.00    +0.015 A 
ENDBRANCH   5  12
BRANCH   1  22
ATOM     21  C   LIG A   1      -9.189  -2.267 123.508  0.00  0.00    +0.277 C 
ATOM     22  O   LIG A   1      -9.253  -1.684 124.799  0.00  0.00    -0.490 OA
ENDBRANCH   1  22
BRANCH  10  23
ATOM     23  O   LIG A   1      -5.550   1.401 125.594  0.00  0.00    -0.491 OA
ATOM     24  C   LIG A   1      -4.741   1.946 126.635  0.00  0.00    +0.277 C 
ENDBRANCH  10  23
BRANCH  11  25
ATOM     25  O   LIG A   1      -7.788   0.677 124.073  0.00  0.00    -0.488 OA
ATOM     26  C   LIG A   1      -8.754   1.685 124.337  0.00  0.00    +0.277 C 
ENDBRANCH  11  25
TORSDOF 4
ENDMDL
MODEL 6
REMARK VINA RESULT:      -6.7      5.918      7.179
REMARK  Name = NuBBE_1581
REMARK  7 active torsions:
REMARK  status: ('A' for Active; 'I' for Inactive)
REMARK    1  A    between atoms: C_1  and  O_2
REMARK    2  A    between atoms: O_2  and  C_3
REMARK    3  A    between atoms: C_7  and  C_8
REMARK    4  A    between atoms: C_21  and  O_22
REMARK    5  A    between atoms: O_22  and  C_23
REMARK    6  A    between atoms: C_24  and  O_25
REMARK    7  A    between atoms: O_25  and  C_26
REMARK                            x       y       z     vdW  Elec       q    Type
REMARK                         _______ _______ _______ _____ _____    ______ ____
ROOT
ATOM      1  C   LIG A   1      -7.497  -1.077 130.100  0.00  0.00    +0.179 A 
ATOM      2  C   LIG A   1      -7.969   0.203 130.491  0.00  0.00    +0.109 A 
ATOM      3  C   LIG A   1      -8.262   1.155 129.519  0.00  0.00    +0.146 A 
ATOM      4  O   LIG A   1      -8.770   2.404 129.779  0.00  0.00    -0.454 OA
ATOM      5  C   LIG A   1      -9.194   2.696 131.059  0.00  0.00    +0.139 A 
ATOM      6  C   LIG A   1      -8.963   1.885 132.101  0.00  0.00    +0.098 A 
ATOM      7  C   LIG A   1      -8.253   0.603 131.894  0.00  0.00    +0.197 A 
ATOM      8  O   LIG A   1      -7.962  -0.067 132.888  0.00  0.00    -0.287 OA
ATOM      9  C   LIG A   1      -8.105   0.869 128.170  0.00  0.00    +0.096 A 
ATOM     10  C   LIG A   1      -7.716  -0.404 127.752  0.00  0.00    +0.169 A 
ATOM     11  C   LIG A   1      -7.368  -1.378 128.715  0.00  0.00    +0.204 A 
ENDROOT
BRANCH   5  12
ATOM     12  C   LIG A   1      -9.948   3.971 131.165  0.00  0.00    +0.021 A 
ATOM     13  C   LIG A   1     -10.914   4.348 130.216  0.00  0.00    +0.061 A 
ATOM     14  C   LIG A   1     -11.575   5.550 130.384  0.00  0.00    +0.167 A 
ATOM     15  O   LIG A   1     -12.526   6.053 129.551  0.00  0.00    -0.453 OA
ATOM     16  C   LIG A   1     -12.843   7.293 130.217  0.00  0.00    +0.466 C 
ATOM     17  O   LIG A   1     -12.080   7.507 131.424  0.00  0.00    -0.453 OA
ATOM     18  C   LIG A   1     -11.323   6.380 131.449  0.00  0.00    +0.166 A 
ATOM     19  C   LIG A   1     -10.395   6.053 132.411  0.00  0.00    +0.050 A 
ATOM     20  C   LIG A   1      -9.709   4.840 132.264  0.00  0.00    +0.015 A 
ENDBRANCH   5  12
BRANCH   1  22
ATOM     21  C   LIG A   1      -5.962  -2.395 131.464  0.00  0.00    +0.277 C 
ATOM     22  O   LIG A   1      -7.267  -1.945 131.139  0.00  0.00    -0.490 OA
ENDBRANCH   1  22
BRANCH  10  23
ATOM     23  O   LIG A   1      -7.705  -0.748 126.423  0.00  0.00    -0.491 OA
ATOM     24  C   LIG A   1      -8.979  -0.884 125.795  0.00  0.00    +0.277 C 
ENDBRANCH  10  23
BRANCH  11  25
ATOM     25  O   LIG A   1      -7.144  -2.685 128.366  0.00  0.00    -0.488 OA
ATOM     26  C   LIG A   1      -8.211  -3.623 128.341  0.00  0.00    +0.277 C 
ENDBRANCH  11  25
TORSDOF 4
ENDMDL
MODEL 7
REMARK VINA RESULT:      -6.6      6.945      8.710
REMARK  Name = NuBBE_1581
REMARK  7 active torsions:
REMARK  status: ('A' for Active; 'I' for Inactive)
REMARK    1  A    between atoms: C_1  and  O_2
REMARK    2  A    between atoms: O_2  and  C_3
REMARK    3  A    between atoms: C_7  and  C_8
REMARK    4  A    between atoms: C_21  and  O_22
REMARK    5  A    between atoms: O_22  and  C_23
REMARK    6  A    between atoms: C_24  and  O_25
REMARK    7  A    between atoms: O_25  and  C_26
REMARK                            x       y       z     vdW  Elec       q    Type
REMARK                         _______ _______ _______ _____ _____    ______ ____
ROOT
ATOM      1  C   LIG A   1      -7.478   1.442 132.690  0.00  0.00    +0.179 A 
ATOM      2  C   LIG A   1      -8.125   2.662 132.359  0.00  0.00    +0.109 A 
ATOM      3  C   LIG A   1      -8.565   2.877 131.056  0.00  0.00    +0.146 A 
ATOM      4  O   LIG A   1      -9.244   3.994 130.638  0.00  0.00    -0.454 OA
ATOM      5  C   LIG A   1      -9.689   4.895 131.583  0.00  0.00    +0.139 A 
ATOM      6  C   LIG A   1      -9.329   4.828 132.873  0.00  0.00    +0.098 A 
ATOM      7  C   LIG A   1      -8.444   3.736 133.336  0.00  0.00    +0.197 A 
ATOM      8  O   LIG A   1      -8.047   3.766 134.503  0.00  0.00    -0.287 OA
ATOM      9  C   LIG A   1      -8.386   1.912 130.075  0.00  0.00    +0.096 A 
ATOM     10  C   LIG A   1      -7.824   0.674 130.387  0.00  0.00    +0.169 A 
ATOM     11  C   LIG A   1      -7.326   0.442 131.688  0.00  0.00    +0.204 A 
ENDROOT
BRANCH   5  12
ATOM     12  C   LIG A   1     -10.617   5.921 131.044  0.00  0.00    +0.021 A 
ATOM     13  C   LIG A   1     -10.513   6.405 129.729  0.00  0.00    +0.061 A 
ATOM     14  C   LIG A   1     -11.415   7.360 129.300  0.00  0.00    +0.167 A 
ATOM     15  O   LIG A   1     -11.439   7.927 128.063  0.00  0.00    -0.453 OA
ATOM     16  C   LIG A   1     -12.564   8.820 128.195  0.00  0.00    +0.466 C 
ATOM     17  O   LIG A   1     -13.185   8.772 129.497  0.00  0.00    -0.453 OA
ATOM     18  C   LIG A   1     -12.410   7.843 130.114  0.00  0.00    +0.166 A 
ATOM     19  C   LIG A   1     -12.562   7.396 131.406  0.00  0.00    +0.050 A 
ATOM     20  C   LIG A   1     -11.659   6.428 131.867  0.00  0.00    +0.015 A 
ENDBRANCH   5  12
BRANCH   1  22
ATOM     21  C   LIG A   1      -5.752   1.241 134.402  0.00  0.00    +0.277 C 
ATOM     22  O   LIG A   1      -7.111   1.326 134.008  0.00  0.00    -0.490 OA
ENDBRANCH   1  22
BRANCH  10  23
ATOM     23  O   LIG A   1      -7.781  -0.344 129.466  0.00  0.00    -0.491 OA
ATOM     24  C   LIG A   1      -6.591  -0.440 128.685  0.00  0.00    +0.277 C 
ENDBRANCH  10  23
BRANCH  11  25
ATOM     25  O   LIG A   1      -6.920  -0.805 132.091  0.00  0.00    -0.488 OA
ATOM     26  C   LIG A   1      -7.837  -1.706 132.695  0.00  0.00    +0.277 C 
ENDBRANCH  11  25
TORSDOF 4
ENDMDL
MODEL 8
REMARK VINA RESULT:      -6.6      4.181      6.530
REMARK  Name = NuBBE_1581
REMARK  7 active torsions:
REMARK  status: ('A' for Active; 'I' for Inactive)
REMARK    1  A    between atoms: C_1  and  O_2
REMARK    2  A    between atoms: O_2  and  C_3
REMARK    3  A    between atoms: C_7  and  C_8
REMARK    4  A    between atoms: C_21  and  O_22
REMARK    5  A    between atoms: O_22  and  C_23
REMARK    6  A    between atoms: C_24  and  O_25
REMARK    7  A    between atoms: O_25  and  C_26
REMARK                            x       y       z     vdW  Elec       q    Type
REMARK                         _______ _______ _______ _____ _____    ______ ____
ROOT
ATOM      1  C   LIG A   1      -8.864   0.382 124.634  0.00  0.00    +0.179 A 
ATOM      2  C   LIG A   1      -8.310  -0.471 125.624  0.00  0.00    +0.109 A 
ATOM      3  C   LIG A   1      -7.248  -0.022 126.404  0.00  0.00    +0.146 A 
ATOM      4  O   LIG A   1      -6.669  -0.741 127.420  0.00  0.00    -0.454 OA
ATOM      5  C   LIG A   1      -7.271  -1.911 127.834  0.00  0.00    +0.139 A 
ATOM      6  C   LIG A   1      -8.290  -2.476 127.169  0.00  0.00    +0.098 A 
ATOM      7  C   LIG A   1      -8.830  -1.823 125.956  0.00  0.00    +0.197 A 
ATOM      8  O   LIG A   1      -9.693  -2.422 125.310  0.00  0.00    -0.287 OA
ATOM      9  C   LIG A   1      -6.726   1.252 126.232  0.00  0.00    +0.096 A 
ATOM     10  C   LIG A   1      -7.298   2.140 125.321  0.00  0.00    +0.169 A 
ATOM     11  C   LIG A   1      -8.346   1.700 124.483  0.00  0.00    +0.204 A 
ENDROOT
BRANCH   5  12
ATOM     12  C   LIG A   1      -6.707  -2.465 129.090  0.00  0.00    +0.021 A 
ATOM     13  C   LIG A   1      -5.331  -2.708 129.246  0.00  0.00    +0.061 A 
ATOM     14  C   LIG A   1      -4.881  -3.225 130.446  0.00  0.00    +0.167 A 
ATOM     15  O   LIG A   1      -3.587  -3.519 130.746  0.00  0.00    -0.453 OA
ATOM     16  C   LIG A   1      -3.724  -4.009 132.096  0.00  0.00    +0.466 C 
ATOM     17  O   LIG A   1      -5.085  -4.001 132.573  0.00  0.00    -0.453 OA
ATOM     18  C   LIG A   1      -5.733  -3.501 131.489  0.00  0.00    +0.166 A 
ATOM     19  C   LIG A   1      -7.085  -3.272 131.391  0.00  0.00    +0.050 A 
ATOM     20  C   LIG A   1      -7.569  -2.750 130.184  0.00  0.00    +0.015 A 
ENDBRANCH   5  12
BRANCH   1  22
ATOM     21  C   LIG A   1      -9.818  -0.521 122.579  0.00  0.00    +0.277 C 
ATOM     22  O   LIG A   1      -9.923  -0.152 123.944  0.00  0.00    -0.490 OA
ENDBRANCH   1  22
BRANCH  10  23
ATOM     23  O   LIG A   1      -6.893   3.451 125.249  0.00  0.00    -0.491 OA
ATOM     24  C   LIG A   1      -6.706   4.123 126.493  0.00  0.00    +0.277 C 
ENDBRANCH  10  23
BRANCH  11  25
ATOM     25  O   LIG A   1      -9.052   2.573 123.695  0.00  0.00    -0.488 OA
ATOM     26  C   LIG A   1      -8.597   2.905 122.390  0.00  0.00    +0.277 C 
ENDBRANCH  11  25
TORSDOF 4
ENDMDL
MODEL 9
REMARK VINA RESULT:      -6.6      4.959      6.751
REMARK  Name = NuBBE_1581
REMARK  7 active torsions:
REMARK  status: ('A' for Active; 'I' for Inactive)
REMARK    1  A    between atoms: C_1  and  O_2
REMARK    2  A    between atoms: O_2  and  C_3
REMARK    3  A    between atoms: C_7  and  C_8
REMARK    4  A    between atoms: C_21  and  O_22
REMARK    5  A    between atoms: O_22  and  C_23
REMARK    6  A    between atoms: C_24  and  O_25
REMARK    7  A    between atoms: O_25  and  C_26
REMARK                            x       y       z     vdW  Elec       q    Type
REMARK                         _______ _______ _______ _____ _____    ______ ____
ROOT
ATOM      1  C   LIG A   1      -8.675   0.684 125.772  0.00  0.00    +0.179 A 
ATOM      2  C   LIG A   1      -8.379  -0.030 126.963  0.00  0.00    +0.109 A 
ATOM      3  C   LIG A   1      -8.291  -1.418 126.931  0.00  0.00    +0.146 A 
ATOM      4  O   LIG A   1      -7.964  -2.203 128.008  0.00  0.00    -0.454 OA
ATOM      5  C   LIG A   1      -7.514  -1.596 129.162  0.00  0.00    +0.139 A 
ATOM      6  C   LIG A   1      -7.558  -0.268 129.346  0.00  0.00    +0.098 A 
ATOM      7  C   LIG A   1      -8.078   0.608 128.272  0.00  0.00    +0.197 A 
ATOM      8  O   LIG A   1      -8.204   1.810 128.514  0.00  0.00    -0.287 OA
ATOM      9  C   LIG A   1      -8.482  -2.118 125.748  0.00  0.00    +0.096 A 
ATOM     10  C   LIG A   1      -8.698  -1.441 124.547  0.00  0.00    +0.169 A 
ATOM     11  C   LIG A   1      -8.838  -0.035 124.554  0.00  0.00    +0.204 A 
ENDROOT
BRANCH   5  12
ATOM     12  C   LIG A   1      -6.956  -2.542 130.161  0.00  0.00    +0.021 A 
ATOM     13  C   LIG A   1      -7.321  -2.495 131.518  0.00  0.00    +0.061 A 
ATOM     14  C   LIG A   1      -6.759  -3.411 132.387  0.00  0.00    +0.167 A 
ATOM     15  O   LIG A   1      -7.005  -3.488 133.723  0.00  0.00    -0.453 OA
ATOM     16  C   LIG A   1      -6.164  -4.601 134.092  0.00  0.00    +0.466 C 
ATOM     17  O   LIG A   1      -5.435  -5.161 132.980  0.00  0.00    -0.453 OA
ATOM     18  C   LIG A   1      -5.864  -4.365 131.967  0.00  0.00    +0.166 A 
ATOM     19  C   LIG A   1      -5.482  -4.460 130.649  0.00  0.00    +0.050 A 
ATOM     20  C   LIG A   1      -6.036  -3.542 129.746  0.00  0.00    +0.015 A 
ENDBRANCH   5  12
BRANCH   1  22
ATOM     21  C   LIG A   1      -7.707   2.885 125.361  0.00  0.00    +0.277 C 
ATOM     22  O   LIG A   1      -8.710   2.048 125.914  0.00  0.00    -0.490 OA
ENDBRANCH   1  22
BRANCH  10  23
ATOM     23  O   LIG A   1      -8.735  -2.108 123.347  0.00  0.00    -0.491 OA
ATOM     24  C   LIG A   1      -9.518  -3.300 123.311  0.00  0.00    +0.277 C 
ENDBRANCH  10  23
BRANCH  11  25
ATOM     25  O   LIG A   1      -8.882   0.689 123.390  0.00  0.00    -0.488 OA
ATOM     26  C   LIG A   1     -10.126   1.043 122.801  0.00  0.00    +0.277 C 
ENDBRANCH  11  25
TORSDOF 4
ENDMDL
