MODEL 1
REMARK VINA RESULT:      -7.8      0.000      0.000
REMARK  Name = NuBBE_1418
REMARK  6 active torsions:
REMARK  status: ('A' for Active; 'I' for Inactive)
REMARK    1  A    between atoms: C_3  and  C_5
REMARK    2  A    between atoms: C_8  and  O_13
REMARK    3  A    between atoms: C_9  and  O_10
REMARK    4  A    between atoms: O_10  and  C_11
REMARK    5  A    between atoms: O_13  and  C_14
REMARK    6  A    between atoms: C_18  and  C_20
REMARK                            x       y       z     vdW  Elec       q    Type
REMARK                         _______ _______ _______ _____ _____    ______ ____
ROOT
ATOM      1  C   LIG A   1      -9.159   5.784 132.415  0.00  0.00    +0.056 C 
ATOM      2  C   LIG A   1      -9.819   5.416 131.092  0.00  0.00    +0.154 C 
ATOM      3  O   LIG A   1      -8.752   5.126 130.166  0.00  0.00    -0.371 OA
ATOM      4  C   LIG A   1      -7.505   5.139 130.881  0.00  0.00    +0.167 C 
ATOM      5  C   LIG A   1      -7.720   6.066 132.062  0.00  0.00    +0.056 C 
ATOM      6  C   LIG A   1      -6.978   5.748 133.351  0.00  0.00    +0.154 C 
ATOM      7  O   LIG A   1      -7.758   4.740 134.028  0.00  0.00    -0.371 OA
ATOM      8  C   LIG A   1      -9.029   4.614 133.378  0.00  0.00    +0.167 C 
ENDROOT
BRANCH   6   9
ATOM      9  C   LIG A   1      -5.529   5.339 133.195  0.00  0.00    -0.015 A 
ATOM     10  C   LIG A   1      -5.120   4.006 133.446  0.00  0.00    +0.010 A 
ATOM     11  C   LIG A   1      -3.786   3.608 133.318  0.00  0.00    +0.050 A 
ATOM     12  C   LIG A   1      -2.873   4.570 132.942  0.00  0.00    +0.166 A 
ATOM     13  C   LIG A   1      -3.249   5.871 132.713  0.00  0.00    +0.167 A 
ATOM     14  O   LIG A   1      -2.194   6.658 132.361  0.00  0.00    -0.453 OA
ATOM     15  C   LIG A   1      -1.123   5.690 132.361  0.00  0.00    +0.466 C 
ATOM     16  O   LIG A   1      -1.545   4.367 132.762  0.00  0.00    -0.453 OA
ATOM     17  C   LIG A   1      -4.558   6.293 132.837  0.00  0.00    +0.055 A 
ENDBRANCH   6   9
BRANCH   2  18
ATOM     18  C   LIG A   1     -10.719   6.514 130.558  0.00  0.00    -0.015 A 
ATOM     19  C   LIG A   1     -11.849   6.903 131.290  0.00  0.00    +0.010 A 
ATOM     20  C   LIG A   1     -12.704   7.909 130.816  0.00  0.00    +0.050 A 
ATOM     21  C   LIG A   1     -12.445   8.561 129.605  0.00  0.00    +0.162 A 
ATOM     22  C   LIG A   1     -11.299   8.201 128.875  0.00  0.00    +0.162 A 
ATOM     23  C   LIG A   1     -10.459   7.176 129.350  0.00  0.00    +0.055 A 
BRANCH  22  24
ATOM     24  O   LIG A   1     -10.906   8.705 127.658  0.00  0.00    -0.491 OA
ATOM     25  C   LIG A   1     -10.896   7.810 126.553  0.00  0.00    +0.277 C 
ENDBRANCH  22  24
BRANCH  21  26
ATOM     26  O   LIG A   1     -13.274   9.498 129.058  0.00  0.00    -0.491 OA
ATOM     27  C   LIG A   1     -13.429  10.753 129.701  0.00  0.00    +0.277 C 
ENDBRANCH  21  26
ENDBRANCH   2  18
TORSDOF 4
ENDMDL
MODEL 2
REMARK VINA RESULT:      -7.6      6.146     10.411
REMARK  Name = NuBBE_1418
REMARK  6 active torsions:
REMARK  status: ('A' for Active; 'I' for Inactive)
REMARK    1  A    between atoms: C_3  and  C_5
REMARK    2  A    between atoms: C_8  and  O_13
REMARK    3  A    between atoms: C_9  and  O_10
REMARK    4  A    between atoms: O_10  and  C_11
REMARK    5  A    between atoms: O_13  and  C_14
REMARK    6  A    between atoms: C_18  and  C_20
REMARK                            x       y       z     vdW  Elec       q    Type
REMARK                         _______ _______ _______ _____ _____    ______ ____
ROOT
ATOM      1  C   LIG A   1      -6.524   2.818 126.220  0.00  0.00    +0.056 C 
ATOM      2  C   LIG A   1      -6.779   3.973 127.181  0.00  0.00    +0.154 C 
ATOM      3  O   LIG A   1      -6.850   5.169 126.378  0.00  0.00    -0.371 OA
ATOM      4  C   LIG A   1      -6.816   4.795 124.990  0.00  0.00    +0.167 C 
ATOM      5  C   LIG A   1      -6.070   3.474 124.940  0.00  0.00    +0.056 C 
ATOM      6  C   LIG A   1      -6.481   2.474 123.872  0.00  0.00    +0.154 C 
ATOM      7  O   LIG A   1      -7.633   1.778 124.392  0.00  0.00    -0.371 OA
ATOM      8  C   LIG A   1      -7.790   2.100 125.780  0.00  0.00    +0.167 C 
ENDROOT
BRANCH   6   9
ATOM      9  C   LIG A   1      -6.733   3.045 122.494  0.00  0.00    -0.015 A 
ATOM     10  C   LIG A   1      -5.661   3.521 121.698  0.00  0.00    +0.010 A 
ATOM     11  C   LIG A   1      -5.872   4.063 120.426  0.00  0.00    +0.050 A 
ATOM     12  C   LIG A   1      -7.172   4.125 119.973  0.00  0.00    +0.166 A 
ATOM     13  C   LIG A   1      -8.224   3.686 120.738  0.00  0.00    +0.167 A 
ATOM     14  O   LIG A   1      -9.421   3.844 120.107  0.00  0.00    -0.453 OA
ATOM     15  C   LIG A   1      -8.991   4.398 118.846  0.00  0.00    +0.466 C 
ATOM     16  O   LIG A   1      -7.563   4.608 118.768  0.00  0.00    -0.453 OA
ATOM     17  C   LIG A   1      -8.047   3.151 121.998  0.00  0.00    +0.055 A 
ENDBRANCH   6   9
BRANCH   2  18
ATOM     18  C   LIG A   1      -5.708   4.098 128.248  0.00  0.00    -0.015 A 
ATOM     19  C   LIG A   1      -5.970   3.652 129.551  0.00  0.00    +0.010 A 
ATOM     20  C   LIG A   1      -5.002   3.764 130.559  0.00  0.00    +0.050 A 
ATOM     21  C   LIG A   1      -3.742   4.312 130.290  0.00  0.00    +0.162 A 
ATOM     22  C   LIG A   1      -3.457   4.736 128.981  0.00  0.00    +0.162 A 
ATOM     23  C   LIG A   1      -4.442   4.638 127.981  0.00  0.00    +0.055 A 
BRANCH  22  24
ATOM     24  O   LIG A   1      -2.295   5.327 128.542  0.00  0.00    -0.491 OA
ATOM     25  C   LIG A   1      -2.331   6.724 128.278  0.00  0.00    +0.277 C 
ENDBRANCH  22  24
BRANCH  21  26
ATOM     26  O   LIG A   1      -2.784   4.510 131.242  0.00  0.00    -0.491 OA
ATOM     27  C   LIG A   1      -2.822   3.750 132.439  0.00  0.00    +0.277 C 
ENDBRANCH  21  26
ENDBRANCH   2  18
TORSDOF 4
ENDMDL
MODEL 3
REMARK VINA RESULT:      -7.5      3.807      5.277
REMARK  Name = NuBBE_1418
REMARK  6 active torsions:
REMARK  status: ('A' for Active; 'I' for Inactive)
REMARK    1  A    between atoms: C_3  and  C_5
REMARK    2  A    between atoms: C_8  and  O_13
REMARK    3  A    between atoms: C_9  and  O_10
REMARK    4  A    between atoms: O_10  and  C_11
REMARK    5  A    between atoms: O_13  and  C_14
REMARK    6  A    between atoms: C_18  and  C_20
REMARK                            x       y       z     vdW  Elec       q    Type
REMARK                         _______ _______ _______ _____ _____    ______ ____
ROOT
ATOM      1  C   LIG A   1      -8.744   4.953 130.451  0.00  0.00    +0.056 C 
ATOM      2  C   LIG A   1     -10.052   5.187 131.198  0.00  0.00    +0.154 C 
ATOM      3  O   LIG A   1     -10.808   3.963 131.096  0.00  0.00    -0.371 OA
ATOM      4  C   LIG A   1      -9.982   2.960 130.481  0.00  0.00    +0.167 C 
ATOM      5  C   LIG A   1      -8.990   3.719 129.619  0.00  0.00    +0.056 C 
ATOM      6  C   LIG A   1      -7.599   3.126 129.459  0.00  0.00    +0.154 C 
ATOM      7  O   LIG A   1      -6.853   3.523 130.628  0.00  0.00    -0.371 OA
ATOM      8  C   LIG A   1      -7.599   4.511 131.350  0.00  0.00    +0.167 C 
ENDROOT
BRANCH   6   9
ATOM      9  C   LIG A   1      -7.541   1.632 129.224  0.00  0.00    -0.015 A 
ATOM     10  C   LIG A   1      -7.106   0.753 130.247  0.00  0.00    +0.010 A 
ATOM     11  C   LIG A   1      -7.036  -0.629 130.049  0.00  0.00    +0.050 A 
ATOM     12  C   LIG A   1      -7.400  -1.110 128.810  0.00  0.00    +0.166 A 
ATOM     13  C   LIG A   1      -7.806  -0.271 127.802  0.00  0.00    +0.167 A 
ATOM     14  O   LIG A   1      -8.113  -0.948 126.660  0.00  0.00    -0.453 OA
ATOM     15  C   LIG A   1      -7.887  -2.309 127.083  0.00  0.00    +0.466 C 
ATOM     16  O   LIG A   1      -7.402  -2.414 128.441  0.00  0.00    -0.453 OA
ATOM     17  C   LIG A   1      -7.881   1.098 127.967  0.00  0.00    +0.055 A 
ENDBRANCH   6   9
BRANCH   2  18
ATOM     18  C   LIG A   1     -10.841   6.360 130.648  0.00  0.00    -0.015 A 
ATOM     19  C   LIG A   1     -11.978   6.813 131.332  0.00  0.00    +0.010 A 
ATOM     20  C   LIG A   1     -12.733   7.889 130.843  0.00  0.00    +0.050 A 
ATOM     21  C   LIG A   1     -12.364   8.549 129.665  0.00  0.00    +0.162 A 
ATOM     22  C   LIG A   1     -11.210   8.123 128.985  0.00  0.00    +0.162 A 
ATOM     23  C   LIG A   1     -10.472   7.029 129.474  0.00  0.00    +0.055 A 
BRANCH  22  24
ATOM     24  O   LIG A   1     -10.718   8.625 127.803  0.00  0.00    -0.491 OA
ATOM     25  C   LIG A   1     -10.903   7.840 126.632  0.00  0.00    +0.277 C 
ENDBRANCH  22  24
BRANCH  21  26
ATOM     26  O   LIG A   1     -13.094   9.556 129.101  0.00  0.00    -0.491 OA
ATOM     27  C   LIG A   1     -13.412  10.702 129.874  0.00  0.00    +0.277 C 
ENDBRANCH  21  26
ENDBRANCH   2  18
TORSDOF 4
ENDMDL
MODEL 4
REMARK VINA RESULT:      -7.4      6.747      9.107
REMARK  Name = NuBBE_1418
REMARK  6 active torsions:
REMARK  status: ('A' for Active; 'I' for Inactive)
REMARK    1  A    between atoms: C_3  and  C_5
REMARK    2  A    between atoms: C_8  and  O_13
REMARK    3  A    between atoms: C_9  and  O_10
REMARK    4  A    between atoms: O_10  and  C_11
REMARK    5  A    between atoms: O_13  and  C_14
REMARK    6  A    between atoms: C_18  and  C_20
REMARK                            x       y       z     vdW  Elec       q    Type
REMARK                         _______ _______ _______ _____ _____    ______ ____
ROOT
ATOM      1  C   LIG A   1      -7.921  -1.356 130.373  0.00  0.00    +0.056 C 
ATOM      2  C   LIG A   1      -6.809  -1.480 129.338  0.00  0.00    +0.154 C 
ATOM      3  O   LIG A   1      -6.316  -0.145 129.102  0.00  0.00    -0.371 OA
ATOM      4  C   LIG A   1      -6.943   0.750 130.036  0.00  0.00    +0.167 C 
ATOM      5  C   LIG A   1      -8.274   0.110 130.386  0.00  0.00    +0.056 C 
ATOM      6  C   LIG A   1      -8.809   0.326 131.793  0.00  0.00    +0.154 C 
ATOM      7  O   LIG A   1      -8.147  -0.645 132.630  0.00  0.00    -0.371 OA
ATOM      8  C   LIG A   1      -7.454  -1.587 131.802  0.00  0.00    +0.167 C 
ENDROOT
BRANCH   6   9
ATOM      9  C   LIG A   1      -8.684   1.731 132.340  0.00  0.00    -0.015 A 
ATOM     10  C   LIG A   1      -7.761   2.028 133.374  0.00  0.00    +0.010 A 
ATOM     11  C   LIG A   1      -7.635   3.317 133.900  0.00  0.00    +0.050 A 
ATOM     12  C   LIG A   1      -8.453   4.296 133.378  0.00  0.00    +0.166 A 
ATOM     13  C   LIG A   1      -9.365   4.022 132.389  0.00  0.00    +0.167 A 
ATOM     14  O   LIG A   1     -10.075   5.126 132.023  0.00  0.00    -0.453 OA
ATOM     15  C   LIG A   1      -9.475   6.127 132.872  0.00  0.00    +0.466 C 
ATOM     16  O   LIG A   1      -8.464   5.597 133.759  0.00  0.00    -0.453 OA
ATOM     17  C   LIG A   1      -9.515   2.758 131.854  0.00  0.00    +0.055 A 
ENDBRANCH   6   9
BRANCH   2  18
ATOM     18  C   LIG A   1      -7.276  -2.123 128.047  0.00  0.00    -0.015 A 
ATOM     19  C   LIG A   1      -8.364  -3.007 128.065  0.00  0.00    +0.010 A 
ATOM     20  C   LIG A   1      -8.812  -3.624 126.888  0.00  0.00    +0.050 A 
ATOM     21  C   LIG A   1      -8.193  -3.364 125.659  0.00  0.00    +0.162 A 
ATOM     22  C   LIG A   1      -7.119  -2.457 125.623  0.00  0.00    +0.162 A 
ATOM     23  C   LIG A   1      -6.666  -1.860 126.813  0.00  0.00    +0.055 A 
BRANCH  22  24
ATOM     24  O   LIG A   1      -6.374  -2.109 124.521  0.00  0.00    -0.491 OA
ATOM     25  C   LIG A   1      -5.257  -2.930 124.202  0.00  0.00    +0.277 C 
ENDBRANCH  22  24
BRANCH  21  26
ATOM     26  O   LIG A   1      -8.537  -3.983 124.492  0.00  0.00    -0.491 OA
ATOM     27  C   LIG A   1      -9.477  -3.367 123.627  0.00  0.00    +0.277 C 
ENDBRANCH  21  26
ENDBRANCH   2  18
TORSDOF 4
ENDMDL
MODEL 5
REMARK VINA RESULT:      -7.4      8.619      9.674
REMARK  Name = NuBBE_1418
REMARK  6 active torsions:
REMARK  status: ('A' for Active; 'I' for Inactive)
REMARK    1  A    between atoms: C_3  and  C_5
REMARK    2  A    between atoms: C_8  and  O_13
REMARK    3  A    between atoms: C_9  and  O_10
REMARK    4  A    between atoms: O_10  and  C_11
REMARK    5  A    between atoms: O_13  and  C_14
REMARK    6  A    between atoms: C_18  and  C_20
REMARK                            x       y       z     vdW  Elec       q    Type
REMARK                         _______ _______ _______ _____ _____    ______ ____
ROOT
ATOM      1  C   LIG A   1      -8.106  -1.503 125.508  0.00  0.00    +0.056 C 
ATOM      2  C   LIG A   1      -7.024  -0.806 124.692  0.00  0.00    +0.154 C 
ATOM      3  O   LIG A   1      -5.972  -0.457 125.616  0.00  0.00    -0.371 OA
ATOM      4  C   LIG A   1      -6.273  -1.036 126.897  0.00  0.00    +0.167 C 
ATOM      5  C   LIG A   1      -7.785  -1.166 126.942  0.00  0.00    +0.056 C 
ATOM      6  C   LIG A   1      -8.368  -2.340 127.714  0.00  0.00    +0.154 C 
ATOM      7  O   LIG A   1      -8.319  -3.473 126.822  0.00  0.00    -0.371 OA
ATOM      8  C   LIG A   1      -7.993  -3.020 125.502  0.00  0.00    +0.167 C 
ENDROOT
BRANCH   6   9
ATOM      9  C   LIG A   1      -7.723  -2.637 129.050  0.00  0.00    -0.015 A 
ATOM     10  C   LIG A   1      -7.876  -1.747 130.143  0.00  0.00    +0.010 A 
ATOM     11  C   LIG A   1      -7.281  -1.996 131.384  0.00  0.00    +0.050 A 
ATOM     12  C   LIG A   1      -6.528  -3.144 131.505  0.00  0.00    +0.166 A 
ATOM     13  C   LIG A   1      -6.355  -4.007 130.452  0.00  0.00    +0.167 A 
ATOM     14  O   LIG A   1      -5.572  -5.072 130.782  0.00  0.00    -0.453 OA
ATOM     15  C   LIG A   1      -5.308  -4.792 132.173  0.00  0.00    +0.466 C 
ATOM     16  O   LIG A   1      -5.888  -3.550 132.629  0.00  0.00    -0.453 OA
ATOM     17  C   LIG A   1      -6.925  -3.785 129.214  0.00  0.00    +0.055 A 
ENDBRANCH   6   9
BRANCH   2  18
ATOM     18  C   LIG A   1      -7.536   0.422 123.963  0.00  0.00    -0.015 A 
ATOM     19  C   LIG A   1      -8.856   0.450 123.492  0.00  0.00    +0.010 A 
ATOM     20  C   LIG A   1      -9.354   1.567 122.807  0.00  0.00    +0.050 A 
ATOM     21  C   LIG A   1      -8.549   2.692 122.585  0.00  0.00    +0.162 A 
ATOM     22  C   LIG A   1      -7.232   2.688 123.077  0.00  0.00    +0.162 A 
ATOM     23  C   LIG A   1      -6.738   1.553 123.745  0.00  0.00    +0.055 A 
BRANCH  22  24
ATOM     24  O   LIG A   1      -6.294   3.681 122.924  0.00  0.00    -0.491 OA
ATOM     25  C   LIG A   1      -5.513   4.023 124.062  0.00  0.00    +0.277 C 
ENDBRANCH  22  24
BRANCH  21  26
ATOM     26  O   LIG A   1      -8.952   3.781 121.866  0.00  0.00    -0.491 OA
ATOM     27  C   LIG A   1      -8.811   3.775 120.455  0.00  0.00    +0.277 C 
ENDBRANCH  21  26
ENDBRANCH   2  18
TORSDOF 4
ENDMDL
MODEL 6
REMARK VINA RESULT:      -7.3      3.399      4.480
REMARK  Name = NuBBE_1418
REMARK  6 active torsions:
REMARK  status: ('A' for Active; 'I' for Inactive)
REMARK    1  A    between atoms: C_3  and  C_5
REMARK    2  A    between atoms: C_8  and  O_13
REMARK    3  A    between atoms: C_9  and  O_10
REMARK    4  A    between atoms: O_10  and  C_11
REMARK    5  A    between atoms: O_13  and  C_14
REMARK    6  A    between atoms: C_18  and  C_20
REMARK                            x       y       z     vdW  Elec       q    Type
REMARK                         _______ _______ _______ _____ _____    ______ ____
ROOT
ATOM      1  C   LIG A   1      -8.212   4.962 130.637  0.00  0.00    +0.056 C 
ATOM      2  C   LIG A   1      -9.124   5.653 131.644  0.00  0.00    +0.154 C 
ATOM      3  O   LIG A   1      -9.727   4.610 132.436  0.00  0.00    -0.371 OA
ATOM      4  C   LIG A   1      -9.122   3.355 132.084  0.00  0.00    +0.167 C 
ATOM      5  C   LIG A   1      -8.644   3.518 130.652  0.00  0.00    +0.056 C 
ATOM      6  C   LIG A   1      -7.383   2.774 130.242  0.00  0.00    +0.154 C 
ATOM      7  O   LIG A   1      -6.275   3.585 130.681  0.00  0.00    -0.371 OA
ATOM      8  C   LIG A   1      -6.763   4.868 131.091  0.00  0.00    +0.167 C 
ENDROOT
BRANCH   6   9
ATOM      9  C   LIG A   1      -7.273   1.344 130.727  0.00  0.00    -0.015 A 
ATOM     10  C   LIG A   1      -8.126   0.336 130.214  0.00  0.00    +0.010 A 
ATOM     11  C   LIG A   1      -8.049  -0.989 130.654  0.00  0.00    +0.050 A 
ATOM     12  C   LIG A   1      -7.109  -1.280 131.619  0.00  0.00    +0.166 A 
ATOM     13  C   LIG A   1      -6.287  -0.312 132.141  0.00  0.00    +0.167 A 
ATOM     14  O   LIG A   1      -5.439  -0.809 133.084  0.00  0.00    -0.453 OA
ATOM     15  C   LIG A   1      -5.803  -2.205 133.065  0.00  0.00    +0.466 C 
ATOM     16  O   LIG A   1      -6.887  -2.504 132.157  0.00  0.00    -0.453 OA
ATOM     17  C   LIG A   1      -6.344   1.005 131.728  0.00  0.00    +0.055 A 
ENDBRANCH   6   9
BRANCH   2  18
ATOM     18  C   LIG A   1     -10.184   6.514 130.983  0.00  0.00    -0.015 A 
ATOM     19  C   LIG A   1     -11.444   6.647 131.582  0.00  0.00    +0.010 A 
ATOM     20  C   LIG A   1     -12.446   7.429 130.990  0.00  0.00    +0.050 A 
ATOM     21  C   LIG A   1     -12.211   8.109 129.789  0.00  0.00    +0.162 A 
ATOM     22  C   LIG A   1     -10.942   8.007 129.192  0.00  0.00    +0.162 A 
ATOM     23  C   LIG A   1      -9.951   7.204 129.785  0.00  0.00    +0.055 A 
BRANCH  22  24
ATOM     24  O   LIG A   1     -10.545   8.573 128.004  0.00  0.00    -0.491 OA
ATOM     25  C   LIG A   1     -10.862   7.872 126.808  0.00  0.00    +0.277 C 
ENDBRANCH  22  24
BRANCH  21  26
ATOM     26  O   LIG A   1     -13.165   8.829 129.128  0.00  0.00    -0.491 OA
ATOM     27  C   LIG A   1     -13.314  10.211 129.410  0.00  0.00    +0.277 C 
ENDBRANCH  21  26
ENDBRANCH   2  18
TORSDOF 4
ENDMDL
MODEL 7
REMARK VINA RESULT:      -7.2      7.870     12.254
REMARK  Name = NuBBE_1418
REMARK  6 active torsions:
REMARK  status: ('A' for Active; 'I' for Inactive)
REMARK    1  A    between atoms: C_3  and  C_5
REMARK    2  A    between atoms: C_8  and  O_13
REMARK    3  A    between atoms: C_9  and  O_10
REMARK    4  A    between atoms: O_10  and  C_11
REMARK    5  A    between atoms: O_13  and  C_14
REMARK    6  A    between atoms: C_18  and  C_20
REMARK                            x       y       z     vdW  Elec       q    Type
REMARK                         _______ _______ _______ _____ _____    ______ ____
ROOT
ATOM      1  C   LIG A   1      -7.150  -3.291 129.187  0.00  0.00    +0.056 C 
ATOM      2  C   LIG A   1      -6.927  -2.596 130.524  0.00  0.00    +0.154 C 
ATOM      3  O   LIG A   1      -6.725  -1.198 130.232  0.00  0.00    -0.371 OA
ATOM      4  C   LIG A   1      -6.970  -0.979 128.833  0.00  0.00    +0.167 C 
ATOM      5  C   LIG A   1      -6.672  -2.303 128.154  0.00  0.00    +0.056 C 
ATOM      6  C   LIG A   1      -7.491  -2.663 126.924  0.00  0.00    +0.154 C 
ATOM      7  O   LIG A   1      -8.730  -3.217 127.412  0.00  0.00    -0.371 OA
ATOM      8  C   LIG A   1      -8.618  -3.453 128.821  0.00  0.00    +0.167 C 
ENDROOT
BRANCH   6   9
ATOM      9  C   LIG A   1      -7.718  -1.544 125.931  0.00  0.00    -0.015 A 
ATOM     10  C   LIG A   1      -6.648  -1.040 125.149  0.00  0.00    +0.010 A 
ATOM     11  C   LIG A   1      -6.833  -0.001 124.232  0.00  0.00    +0.050 A 
ATOM     12  C   LIG A   1      -8.101   0.527 124.122  0.00  0.00    +0.166 A 
ATOM     13  C   LIG A   1      -9.144   0.064 124.885  0.00  0.00    +0.167 A 
ATOM     14  O   LIG A   1     -10.306   0.726 124.625  0.00  0.00    -0.453 OA
ATOM     15  C   LIG A   1      -9.876   1.630 123.586  0.00  0.00    +0.466 C 
ATOM     16  O   LIG A   1      -8.466   1.529 123.284  0.00  0.00    -0.453 OA
ATOM     17  C   LIG A   1      -8.991  -0.958 125.800  0.00  0.00    +0.055 A 
ENDBRANCH   6   9
BRANCH   2  18
ATOM     18  C   LIG A   1      -5.751  -3.165 131.295  0.00  0.00    -0.015 A 
ATOM     19  C   LIG A   1      -5.764  -4.510 131.689  0.00  0.00    +0.010 A 
ATOM     20  C   LIG A   1      -4.696  -5.062 132.410  0.00  0.00    +0.050 A 
ATOM     21  C   LIG A   1      -3.579  -4.287 132.745  0.00  0.00    +0.162 A 
ATOM     22  C   LIG A   1      -3.540  -2.944 132.331  0.00  0.00    +0.162 A 
ATOM     23  C   LIG A   1      -4.627  -2.396 131.625  0.00  0.00    +0.055 A 
BRANCH  22  24
ATOM     24  O   LIG A   1      -2.548  -2.030 132.597  0.00  0.00    -0.491 OA
ATOM     25  C   LIG A   1      -2.935  -0.804 133.207  0.00  0.00    +0.277 C 
ENDBRANCH  22  24
BRANCH  21  26
ATOM     26  O   LIG A   1      -2.539  -4.745 133.503  0.00  0.00    -0.491 OA
ATOM     27  C   LIG A   1      -2.610  -6.043 134.071  0.00  0.00    +0.277 C 
ENDBRANCH  21  26
ENDBRANCH   2  18
TORSDOF 4
ENDMDL
MODEL 8
REMARK VINA RESULT:      -7.2      6.156      8.185
REMARK  Name = NuBBE_1418
REMARK  6 active torsions:
REMARK  status: ('A' for Active; 'I' for Inactive)
REMARK    1  A    between atoms: C_3  and  C_5
REMARK    2  A    between atoms: C_8  and  O_13
REMARK    3  A    between atoms: C_9  and  O_10
REMARK    4  A    between atoms: O_10  and  C_11
REMARK    5  A    between atoms: O_13  and  C_14
REMARK    6  A    between atoms: C_18  and  C_20
REMARK                            x       y       z     vdW  Elec       q    Type
REMARK                         _______ _______ _______ _____ _____    ______ ____
ROOT
ATOM      1  C   LIG A   1      -7.678  -0.961 130.318  0.00  0.00    +0.056 C 
ATOM      2  C   LIG A   1      -6.998  -0.726 128.975  0.00  0.00    +0.154 C 
ATOM      3  O   LIG A   1      -6.859   0.702 128.829  0.00  0.00    -0.371 OA
ATOM      4  C   LIG A   1      -7.260   1.332 130.057  0.00  0.00    +0.167 C 
ATOM      5  C   LIG A   1      -8.250   0.379 130.701  0.00  0.00    +0.056 C 
ATOM      6  C   LIG A   1      -8.285   0.321 132.220  0.00  0.00    +0.154 C 
ATOM      7  O   LIG A   1      -7.213  -0.560 132.615  0.00  0.00    -0.371 OA
ATOM      8  C   LIG A   1      -6.704  -1.231 131.455  0.00  0.00    +0.167 C 
ENDROOT
BRANCH   6   9
ATOM      9  C   LIG A   1      -8.220   1.654 132.934  0.00  0.00    -0.015 A 
ATOM     10  C   LIG A   1      -9.321   2.547 132.906  0.00  0.00    +0.010 A 
ATOM     11  C   LIG A   1      -9.280   3.787 133.549  0.00  0.00    +0.050 A 
ATOM     12  C   LIG A   1      -8.117   4.118 134.211  0.00  0.00    +0.166 A 
ATOM     13  C   LIG A   1      -7.034   3.274 134.232  0.00  0.00    +0.167 A 
ATOM     14  O   LIG A   1      -5.988   3.795 134.933  0.00  0.00    -0.453 OA
ATOM     15  C   LIG A   1      -6.557   5.045 135.377  0.00  0.00    +0.466 C 
ATOM     16  O   LIG A   1      -7.900   5.269 134.893  0.00  0.00    -0.453 OA
ATOM     17  C   LIG A   1      -7.045   2.045 133.602  0.00  0.00    +0.055 A 
ENDBRANCH   6   9
BRANCH   2  18
ATOM     18  C   LIG A   1      -7.771  -1.318 127.812  0.00  0.00    -0.015 A 
ATOM     19  C   LIG A   1      -7.932  -2.708 127.720  0.00  0.00    +0.010 A 
ATOM     20  C   LIG A   1      -8.634  -3.284 126.652  0.00  0.00    +0.050 A 
ATOM     21  C   LIG A   1      -9.205  -2.486 125.653  0.00  0.00    +0.162 A 
ATOM     22  C   LIG A   1      -9.076  -1.089 125.749  0.00  0.00    +0.162 A 
ATOM     23  C   LIG A   1      -8.352  -0.524 126.814  0.00  0.00    +0.055 A 
BRANCH  22  24
ATOM     24  O   LIG A   1      -9.538  -0.157 124.850  0.00  0.00    -0.491 OA
ATOM     25  C   LIG A   1      -8.637   0.868 124.451  0.00  0.00    +0.277 C 
ENDBRANCH  22  24
BRANCH  21  26
ATOM     26  O   LIG A   1      -9.840  -2.988 124.554  0.00  0.00    -0.491 OA
ATOM     27  C   LIG A   1      -9.115  -3.158 123.347  0.00  0.00    +0.277 C 
ENDBRANCH  21  26
ENDBRANCH   2  18
TORSDOF 4
ENDMDL
MODEL 9
REMARK VINA RESULT:      -7.2      6.235      9.969
REMARK  Name = NuBBE_1418
REMARK  6 active torsions:
REMARK  status: ('A' for Active; 'I' for Inactive)
REMARK    1  A    between atoms: C_3  and  C_5
REMARK    2  A    between atoms: C_8  and  O_13
REMARK    3  A    between atoms: C_9  and  O_10
REMARK    4  A    between atoms: O_10  and  C_11
REMARK    5  A    between atoms: O_13  and  C_14
REMARK    6  A    between atoms: C_18  and  C_20
REMARK                            x       y       z     vdW  Elec       q    Type
REMARK                         _______ _______ _______ _____ _____    ______ ____
ROOT
ATOM      1  C   LIG A   1      -5.006   4.114 126.180  0.00  0.00    +0.056 C 
ATOM      2  C   LIG A   1      -3.614   3.741 126.674  0.00  0.00    +0.154 C 
ATOM      3  O   LIG A   1      -3.631   2.320 126.920  0.00  0.00    -0.371 OA
ATOM      4  C   LIG A   1      -4.883   1.787 126.457  0.00  0.00    +0.167 C 
ATOM      5  C   LIG A   1      -5.873   2.935 126.542  0.00  0.00    +0.056 C 
ATOM      6  C   LIG A   1      -6.982   2.987 125.503  0.00  0.00    +0.154 C 
ATOM      7  O   LIG A   1      -6.408   3.599 124.330  0.00  0.00    -0.371 OA
ATOM      8  C   LIG A   1      -5.126   4.146 124.664  0.00  0.00    +0.167 C 
ENDROOT
BRANCH   6   9
ATOM      9  C   LIG A   1      -7.655   1.668 125.189  0.00  0.00    -0.015 A 
ATOM     10  C   LIG A   1      -8.687   1.164 126.019  0.00  0.00    +0.010 A 
ATOM     11  C   LIG A   1      -9.316  -0.056 125.753  0.00  0.00    +0.050 A 
ATOM     12  C   LIG A   1      -8.886  -0.761 124.650  0.00  0.00    +0.166 A 
ATOM     13  C   LIG A   1      -7.875  -0.297 123.846  0.00  0.00    +0.167 A 
ATOM     14  O   LIG A   1      -7.601  -1.149 122.818  0.00  0.00    -0.453 OA
ATOM     15  C   LIG A   1      -8.583  -2.180 123.053  0.00  0.00    +0.466 C 
ATOM     16  O   LIG A   1      -9.382  -1.953 124.236  0.00  0.00    -0.453 OA
ATOM     17  C   LIG A   1      -7.233   0.902 124.087  0.00  0.00    +0.055 A 
ENDBRANCH   6   9
BRANCH   2  18
ATOM     18  C   LIG A   1      -3.209   4.503 127.922  0.00  0.00    -0.015 A 
ATOM     19  C   LIG A   1      -2.599   5.759 127.802  0.00  0.00    +0.010 A 
ATOM     20  C   LIG A   1      -2.206   6.482 128.938  0.00  0.00    +0.050 A 
ATOM     21  C   LIG A   1      -2.424   5.974 130.224  0.00  0.00    +0.162 A 
ATOM     22  C   LIG A   1      -3.060   4.728 130.359  0.00  0.00    +0.162 A 
ATOM     23  C   LIG A   1      -3.432   4.003 129.213  0.00  0.00    +0.055 A 
BRANCH  22  24
ATOM     24  O   LIG A   1      -3.324   4.062 131.533  0.00  0.00    -0.491 OA
ATOM     25  C   LIG A   1      -4.620   4.219 132.097  0.00  0.00    +0.277 C 
ENDBRANCH  22  24
BRANCH  21  26
ATOM     26  O   LIG A   1      -2.003   6.596 131.365  0.00  0.00    -0.491 OA
ATOM     27  C   LIG A   1      -2.788   7.639 131.919  0.00  0.00    +0.277 C 
ENDBRANCH  21  26
ENDBRANCH   2  18
TORSDOF 4
ENDMDL
