MODEL 1
REMARK VINA RESULT:      -6.9      0.000      0.000
REMARK  Name = NuBBE_1942
REMARK  6 active torsions:
REMARK  status: ('A' for Active; 'I' for Inactive)
REMARK    1  A    between atoms: C_1  and  C_2
REMARK    2  A    between atoms: C_1  and  C_3
REMARK    3  A    between atoms: C_1  and  O_4
REMARK    4  A    between atoms: C_1  and  C_5
REMARK    5  A    between atoms: C_8  and  C_12
REMARK    6  A    between atoms: C_15  and  C_18
REMARK                            x       y       z     vdW  Elec       q    Type
REMARK                         _______ _______ _______ _____ _____    ______ ____
ROOT
ATOM      1  C   LIG A   1      -8.392  -0.227 124.414  0.00  0.00    +0.027 C 
ATOM      2  C   LIG A   1      -7.421  -1.455 124.254  0.00  0.00    -0.018 C 
ATOM      3  C   LIG A   1      -8.384  -2.654 124.584  0.00  0.00    -0.007 C 
ATOM      4  C   LIG A   1      -9.205  -2.128 125.761  0.00  0.00    +0.004 C 
ATOM      5  C   LIG A   1      -9.428  -0.647 125.481  0.00  0.00    +0.007 C 
ATOM      6  C   LIG A   1      -9.317  -3.095 123.450  0.00  0.00    +0.008 C 
ATOM      7  C   LIG A   1      -6.223  -1.436 125.237  0.00  0.00    +0.012 C 
ATOM      8  C   LIG A   1      -5.327  -2.681 125.127  0.00  0.00    +0.030 C 
ATOM      9  C   LIG A   1      -5.118  -3.162 123.712  0.00  0.00    -0.076 C 
ATOM     10  C   LIG A   1      -5.791  -2.632 122.676  0.00  0.00    -0.027 C 
ATOM     11  C   LIG A   1      -6.818  -1.541 122.826  0.00  0.00    +0.034 C 
ATOM     12  C   LIG A   1      -4.110  -4.258 123.532  0.00  0.00    +0.038 C 
ENDROOT
BRANCH   1  13
ATOM     13  C   LIG A   1      -7.860   1.231 124.585  0.00  0.00    +0.064 C 
ATOM     14  C   LIG A   1      -9.017   2.223 124.360  0.00  0.00    +0.041 C 
ATOM     15  C   LIG A   1      -7.210   1.566 125.935  0.00  0.00    +0.041 C 
BRANCH  13  16
ATOM     16  O   LIG A   1      -6.897   1.487 123.560  0.00  0.00    -0.389 OA
ATOM     17  H   LIG A   1      -6.547   0.636 123.248  0.00  0.00    +0.210 HD
ENDBRANCH  13  16
ENDBRANCH   1  13
TORSDOF 2
ENDMDL
MODEL 2
REMARK VINA RESULT:      -6.5      2.022      4.717
REMARK  Name = NuBBE_1942
REMARK  6 active torsions:
REMARK  status: ('A' for Active; 'I' for Inactive)
REMARK    1  A    between atoms: C_1  and  C_2
REMARK    2  A    between atoms: C_1  and  C_3
REMARK    3  A    between atoms: C_1  and  O_4
REMARK    4  A    between atoms: C_1  and  C_5
REMARK    5  A    between atoms: C_8  and  C_12
REMARK    6  A    between atoms: C_15  and  C_18
REMARK                            x       y       z     vdW  Elec       q    Type
REMARK                         _______ _______ _______ _____ _____    ______ ____
ROOT
ATOM      1  C   LIG A   1      -6.971  -2.946 125.054  0.00  0.00    +0.027 C 
ATOM      2  C   LIG A   1      -7.549  -1.912 126.090  0.00  0.00    -0.018 C 
ATOM      3  C   LIG A   1      -8.909  -2.596 126.483  0.00  0.00    -0.007 C 
ATOM      4  C   LIG A   1      -9.431  -3.128 125.148  0.00  0.00    +0.004 C 
ATOM      5  C   LIG A   1      -8.200  -3.597 124.381  0.00  0.00    +0.007 C 
ATOM      6  C   LIG A   1      -8.814  -3.740 127.501  0.00  0.00    +0.008 C 
ATOM      7  C   LIG A   1      -7.803  -0.505 125.492  0.00  0.00    +0.012 C 
ATOM      8  C   LIG A   1      -8.442   0.473 126.491  0.00  0.00    +0.030 C 
ATOM      9  C   LIG A   1      -7.908   0.350 127.897  0.00  0.00    -0.076 C 
ATOM     10  C   LIG A   1      -7.066  -0.637 128.252  0.00  0.00    -0.027 C 
ATOM     11  C   LIG A   1      -6.602  -1.710 127.304  0.00  0.00    +0.034 C 
ATOM     12  C   LIG A   1      -8.363   1.398 128.869  0.00  0.00    +0.038 C 
ENDROOT
BRANCH   1  13
ATOM     13  C   LIG A   1      -5.827  -2.570 124.060  0.00  0.00    +0.064 C 
ATOM     14  C   LIG A   1      -4.942  -3.806 123.812  0.00  0.00    +0.041 C 
ATOM     15  C   LIG A   1      -6.263  -2.024 122.693  0.00  0.00    +0.041 C 
BRANCH  13  16
ATOM     16  O   LIG A   1      -4.993  -1.588 124.677  0.00  0.00    -0.389 OA
ATOM     17  H   LIG A   1      -4.181  -2.024 124.986  0.00  0.00    +0.210 HD
ENDBRANCH  13  16
ENDBRANCH   1  13
TORSDOF 2
ENDMDL
MODEL 3
REMARK VINA RESULT:      -6.5      1.681      2.380
REMARK  Name = NuBBE_1942
REMARK  6 active torsions:
REMARK  status: ('A' for Active; 'I' for Inactive)
REMARK    1  A    between atoms: C_1  and  C_2
REMARK    2  A    between atoms: C_1  and  C_3
REMARK    3  A    between atoms: C_1  and  O_4
REMARK    4  A    between atoms: C_1  and  C_5
REMARK    5  A    between atoms: C_8  and  C_12
REMARK    6  A    between atoms: C_15  and  C_18
REMARK                            x       y       z     vdW  Elec       q    Type
REMARK                         _______ _______ _______ _____ _____    ______ ____
ROOT
ATOM      1  C   LIG A   1      -8.912  -0.453 125.291  0.00  0.00    +0.027 C 
ATOM      2  C   LIG A   1      -7.744  -1.499 125.155  0.00  0.00    -0.018 C 
ATOM      3  C   LIG A   1      -7.356  -1.726 126.662  0.00  0.00    -0.007 C 
ATOM      4  C   LIG A   1      -7.423  -0.318 127.255  0.00  0.00    +0.004 C 
ATOM      5  C   LIG A   1      -8.595   0.367 126.563  0.00  0.00    +0.007 C 
ATOM      6  C   LIG A   1      -8.269  -2.672 127.454  0.00  0.00    +0.008 C 
ATOM      7  C   LIG A   1      -6.525  -0.974 124.355  0.00  0.00    +0.012 C 
ATOM      8  C   LIG A   1      -5.359  -1.975 124.298  0.00  0.00    +0.030 C 
ATOM      9  C   LIG A   1      -5.792  -3.411 124.133  0.00  0.00    -0.076 C 
ATOM     10  C   LIG A   1      -7.086  -3.773 124.193  0.00  0.00    -0.027 C 
ATOM     11  C   LIG A   1      -8.207  -2.802 124.448  0.00  0.00    +0.034 C 
ATOM     12  C   LIG A   1      -4.696  -4.406 123.890  0.00  0.00    +0.038 C 
ENDROOT
BRANCH   1  13
ATOM     13  C   LIG A   1      -9.393   0.411 124.082  0.00  0.00    +0.064 C 
ATOM     14  C   LIG A   1      -8.411   1.578 123.868  0.00  0.00    +0.041 C 
ATOM     15  C   LIG A   1      -9.553  -0.320 122.742  0.00  0.00    +0.041 C 
BRANCH  13  16
ATOM     16  O   LIG A   1     -10.655   0.995 124.415  0.00  0.00    -0.389 OA
ATOM     17  H   LIG A   1     -11.200   0.319 124.852  0.00  0.00    +0.210 HD
ENDBRANCH  13  16
ENDBRANCH   1  13
TORSDOF 2
ENDMDL
MODEL 4
REMARK VINA RESULT:      -6.2      1.431      3.424
REMARK  Name = NuBBE_1942
REMARK  6 active torsions:
REMARK  status: ('A' for Active; 'I' for Inactive)
REMARK    1  A    between atoms: C_1  and  C_2
REMARK    2  A    between atoms: C_1  and  C_3
REMARK    3  A    between atoms: C_1  and  O_4
REMARK    4  A    between atoms: C_1  and  C_5
REMARK    5  A    between atoms: C_8  and  C_12
REMARK    6  A    between atoms: C_15  and  C_18
REMARK                            x       y       z     vdW  Elec       q    Type
REMARK                         _______ _______ _______ _____ _____    ______ ____
ROOT
ATOM      1  C   LIG A   1      -6.851  -0.129 124.364  0.00  0.00    +0.027 C 
ATOM      2  C   LIG A   1      -7.369  -1.370 125.182  0.00  0.00    -0.018 C 
ATOM      3  C   LIG A   1      -6.811  -2.562 124.321  0.00  0.00    -0.007 C 
ATOM      4  C   LIG A   1      -7.048  -2.095 122.884  0.00  0.00    +0.004 C 
ATOM      5  C   LIG A   1      -6.793  -0.593 122.891  0.00  0.00    +0.007 C 
ATOM      6  C   LIG A   1      -5.328  -2.898 124.524  0.00  0.00    +0.008 C 
ATOM      7  C   LIG A   1      -8.913  -1.452 125.283  0.00  0.00    +0.012 C 
ATOM      8  C   LIG A   1      -9.409  -2.710 126.015  0.00  0.00    +0.030 C 
ATOM      9  C   LIG A   1      -8.567  -3.099 127.204  0.00  0.00    -0.076 C 
ATOM     10  C   LIG A   1      -7.405  -2.481 127.483  0.00  0.00    -0.027 C 
ATOM     11  C   LIG A   1      -6.832  -1.375 126.639  0.00  0.00    +0.034 C 
ATOM     12  C   LIG A   1      -9.106  -4.208 128.058  0.00  0.00    +0.038 C 
ENDROOT
BRANCH   1  13
ATOM     13  C   LIG A   1      -7.453   1.299 124.558  0.00  0.00    +0.064 C 
ATOM     14  C   LIG A   1      -8.569   1.525 123.520  0.00  0.00    +0.041 C 
ATOM     15  C   LIG A   1      -8.032   1.613 125.945  0.00  0.00    +0.041 C 
BRANCH  13  16
ATOM     16  O   LIG A   1      -6.435   2.262 124.280  0.00  0.00    -0.389 OA
ATOM     17  H   LIG A   1      -6.507   2.525 123.347  0.00  0.00    +0.210 HD
ENDBRANCH  13  16
ENDBRANCH   1  13
TORSDOF 2
ENDMDL
MODEL 5
REMARK VINA RESULT:      -5.9      4.922      6.697
REMARK  Name = NuBBE_1942
REMARK  6 active torsions:
REMARK  status: ('A' for Active; 'I' for Inactive)
REMARK    1  A    between atoms: C_1  and  C_2
REMARK    2  A    between atoms: C_1  and  C_3
REMARK    3  A    between atoms: C_1  and  O_4
REMARK    4  A    between atoms: C_1  and  C_5
REMARK    5  A    between atoms: C_8  and  C_12
REMARK    6  A    between atoms: C_15  and  C_18
REMARK                            x       y       z     vdW  Elec       q    Type
REMARK                         _______ _______ _______ _____ _____    ______ ____
ROOT
ATOM      1  C   LIG A   1      -5.577  -2.210 130.433  0.00  0.00    +0.027 C 
ATOM      2  C   LIG A   1      -6.753  -2.264 129.390  0.00  0.00    -0.018 C 
ATOM      3  C   LIG A   1      -7.764  -1.231 130.010  0.00  0.00    -0.007 C 
ATOM      4  C   LIG A   1      -7.692  -1.530 131.507  0.00  0.00    +0.004 C 
ATOM      5  C   LIG A   1      -6.236  -1.876 131.791  0.00  0.00    +0.007 C 
ATOM      6  C   LIG A   1      -7.449   0.249 129.755  0.00  0.00    +0.008 C 
ATOM      7  C   LIG A   1      -7.414  -3.660 129.264  0.00  0.00    +0.012 C 
ATOM      8  C   LIG A   1      -8.612  -3.681 128.302  0.00  0.00    +0.030 C 
ATOM      9  C   LIG A   1      -8.420  -2.838 127.065  0.00  0.00    -0.076 C 
ATOM     10  C   LIG A   1      -7.357  -2.028 126.917  0.00  0.00    -0.027 C 
ATOM     11  C   LIG A   1      -6.285  -1.869 127.962  0.00  0.00    +0.034 C 
ATOM     12  C   LIG A   1      -9.479  -2.965 126.010  0.00  0.00    +0.038 C 
ENDROOT
BRANCH   1  13
ATOM     13  C   LIG A   1      -4.490  -3.328 130.514  0.00  0.00    +0.064 C 
ATOM     14  C   LIG A   1      -5.117  -4.605 131.104  0.00  0.00    +0.041 C 
ATOM     15  C   LIG A   1      -3.804  -3.709 129.194  0.00  0.00    +0.041 C 
BRANCH  13  16
ATOM     16  O   LIG A   1      -3.475  -2.911 131.429  0.00  0.00    -0.389 OA
ATOM     17  H   LIG A   1      -3.173  -3.688 131.929  0.00  0.00    +0.210 HD
ENDBRANCH  13  16
ENDBRANCH   1  13
TORSDOF 2
ENDMDL
MODEL 6
REMARK VINA RESULT:      -5.7      8.513     11.436
REMARK  Name = NuBBE_1942
REMARK  6 active torsions:
REMARK  status: ('A' for Active; 'I' for Inactive)
REMARK    1  A    between atoms: C_1  and  C_2
REMARK    2  A    between atoms: C_1  and  C_3
REMARK    3  A    between atoms: C_1  and  O_4
REMARK    4  A    between atoms: C_1  and  C_5
REMARK    5  A    between atoms: C_8  and  C_12
REMARK    6  A    between atoms: C_15  and  C_18
REMARK                            x       y       z     vdW  Elec       q    Type
REMARK                         _______ _______ _______ _____ _____    ______ ____
ROOT
ATOM      1  C   LIG A   1      -2.846   4.918 129.799  0.00  0.00    +0.027 C 
ATOM      2  C   LIG A   1      -2.540   5.866 131.018  0.00  0.00    -0.018 C 
ATOM      3  C   LIG A   1      -3.109   5.021 132.216  0.00  0.00    -0.007 C 
ATOM      4  C   LIG A   1      -4.408   4.445 131.652  0.00  0.00    +0.004 C 
ATOM      5  C   LIG A   1      -4.119   4.132 130.188  0.00  0.00    +0.007 C 
ATOM      6  C   LIG A   1      -2.209   3.887 132.723  0.00  0.00    +0.008 C 
ATOM      7  C   LIG A   1      -3.255   7.239 130.936  0.00  0.00    +0.012 C 
ATOM      8  C   LIG A   1      -3.013   8.124 132.169  0.00  0.00    +0.030 C 
ATOM      9  C   LIG A   1      -1.606   8.052 132.709  0.00  0.00    -0.076 C 
ATOM     10  C   LIG A   1      -0.710   7.168 132.237  0.00  0.00    -0.027 C 
ATOM     11  C   LIG A   1      -1.024   6.166 131.158  0.00  0.00    +0.034 C 
ATOM     12  C   LIG A   1      -1.267   9.028 133.797  0.00  0.00    +0.038 C 
ENDROOT
BRANCH   1  13
ATOM     13  C   LIG A   1      -2.845   5.437 128.327  0.00  0.00    +0.064 C 
ATOM     14  C   LIG A   1      -4.287   5.433 127.785  0.00  0.00    +0.041 C 
ATOM     15  C   LIG A   1      -2.262   6.839 128.098  0.00  0.00    +0.041 C 
BRANCH  13  16
ATOM     16  O   LIG A   1      -2.103   4.518 127.522  0.00  0.00    -0.389 OA
ATOM     17  H   LIG A   1      -2.576   4.395 126.681  0.00  0.00    +0.210 HD
ENDBRANCH  13  16
ENDBRANCH   1  13
TORSDOF 2
ENDMDL
MODEL 7
REMARK VINA RESULT:      -5.6      5.253      6.638
REMARK  Name = NuBBE_1942
REMARK  6 active torsions:
REMARK  status: ('A' for Active; 'I' for Inactive)
REMARK    1  A    between atoms: C_1  and  C_2
REMARK    2  A    between atoms: C_1  and  C_3
REMARK    3  A    between atoms: C_1  and  O_4
REMARK    4  A    between atoms: C_1  and  C_5
REMARK    5  A    between atoms: C_8  and  C_12
REMARK    6  A    between atoms: C_15  and  C_18
REMARK                            x       y       z     vdW  Elec       q    Type
REMARK                         _______ _______ _______ _____ _____    ______ ____
ROOT
ATOM      1  C   LIG A   1      -6.584  -1.665 131.353  0.00  0.00    +0.027 C 
ATOM      2  C   LIG A   1      -6.908  -2.272 129.938  0.00  0.00    -0.018 C 
ATOM      3  C   LIG A   1      -5.655  -3.193 129.702  0.00  0.00    -0.007 C 
ATOM      4  C   LIG A   1      -4.496  -2.344 130.224  0.00  0.00    +0.004 C 
ATOM      5  C   LIG A   1      -5.042  -1.601 131.438  0.00  0.00    +0.007 C 
ATOM      6  C   LIG A   1      -5.676  -4.549 130.418  0.00  0.00    +0.008 C 
ATOM      7  C   LIG A   1      -7.021  -1.211 128.813  0.00  0.00    +0.012 C 
ATOM      8  C   LIG A   1      -7.258  -1.822 127.423  0.00  0.00    +0.030 C 
ATOM      9  C   LIG A   1      -8.198  -3.003 127.425  0.00  0.00    -0.076 C 
ATOM     10  C   LIG A   1      -8.647  -3.550 128.568  0.00  0.00    -0.027 C 
ATOM     11  C   LIG A   1      -8.246  -3.061 129.934  0.00  0.00    +0.034 C 
ATOM     12  C   LIG A   1      -8.606  -3.522 126.078  0.00  0.00    +0.038 C 
ENDROOT
BRANCH   1  13
ATOM     13  C   LIG A   1      -7.303  -0.387 131.890  0.00  0.00    +0.064 C 
ATOM     14  C   LIG A   1      -6.454   0.854 131.551  0.00  0.00    +0.041 C 
ATOM     15  C   LIG A   1      -8.726  -0.136 131.372  0.00  0.00    +0.041 C 
BRANCH  13  16
ATOM     16  O   LIG A   1      -7.363  -0.464 133.315  0.00  0.00    -0.389 OA
ATOM     17  H   LIG A   1      -8.174  -0.939 133.564  0.00  0.00    +0.210 HD
ENDBRANCH  13  16
ENDBRANCH   1  13
TORSDOF 2
ENDMDL
MODEL 8
REMARK VINA RESULT:      -5.4      2.179      4.612
REMARK  Name = NuBBE_1942
REMARK  6 active torsions:
REMARK  status: ('A' for Active; 'I' for Inactive)
REMARK    1  A    between atoms: C_1  and  C_2
REMARK    2  A    between atoms: C_1  and  C_3
REMARK    3  A    between atoms: C_1  and  O_4
REMARK    4  A    between atoms: C_1  and  C_5
REMARK    5  A    between atoms: C_8  and  C_12
REMARK    6  A    between atoms: C_15  and  C_18
REMARK                            x       y       z     vdW  Elec       q    Type
REMARK                         _______ _______ _______ _____ _____    ______ ____
ROOT
ATOM      1  C   LIG A   1      -7.938  -2.234 125.078  0.00  0.00    +0.027 C 
ATOM      2  C   LIG A   1      -7.691  -0.940 125.938  0.00  0.00    -0.018 C 
ATOM      3  C   LIG A   1      -7.316  -1.563 127.333  0.00  0.00    -0.007 C 
ATOM      4  C   LIG A   1      -8.297  -2.727 127.469  0.00  0.00    +0.004 C 
ATOM      5  C   LIG A   1      -8.453  -3.304 126.068  0.00  0.00    +0.007 C 
ATOM      6  C   LIG A   1      -5.876  -2.072 127.473  0.00  0.00    +0.008 C 
ATOM      7  C   LIG A   1      -8.939  -0.029 126.070  0.00  0.00    +0.012 C 
ATOM      8  C   LIG A   1      -8.709   1.189 126.978  0.00  0.00    +0.030 C 
ATOM      9  C   LIG A   1      -7.346   1.818 126.827  0.00  0.00    -0.076 C 
ATOM     10  C   LIG A   1      -6.383   1.251 126.078  0.00  0.00    -0.027 C 
ATOM     11  C   LIG A   1      -6.561  -0.054 125.349  0.00  0.00    +0.034 C 
ATOM     12  C   LIG A   1      -7.134   3.113 127.553  0.00  0.00    +0.038 C 
ENDROOT
BRANCH   1  13
ATOM     13  C   LIG A   1      -8.718  -2.192 123.725  0.00  0.00    +0.064 C 
ATOM     14  C   LIG A   1      -7.716  -2.045 122.565  0.00  0.00    +0.041 C 
ATOM     15  C   LIG A   1      -9.616  -3.399 123.418  0.00  0.00    +0.041 C 
BRANCH  13  16
ATOM     16  O   LIG A   1      -9.537  -1.022 123.709  0.00  0.00    -0.389 OA
ATOM     17  H   LIG A   1      -9.803  -0.845 122.791  0.00  0.00    +0.210 HD
ENDBRANCH  13  16
ENDBRANCH   1  13
TORSDOF 2
ENDMDL
MODEL 9
REMARK VINA RESULT:      -5.4      7.001      9.374
REMARK  Name = NuBBE_1942
REMARK  6 active torsions:
REMARK  status: ('A' for Active; 'I' for Inactive)
REMARK    1  A    between atoms: C_1  and  C_2
REMARK    2  A    between atoms: C_1  and  C_3
REMARK    3  A    between atoms: C_1  and  O_4
REMARK    4  A    between atoms: C_1  and  C_5
REMARK    5  A    between atoms: C_8  and  C_12
REMARK    6  A    between atoms: C_15  and  C_18
REMARK                            x       y       z     vdW  Elec       q    Type
REMARK                         _______ _______ _______ _____ _____    ______ ____
ROOT
ATOM      1  C   LIG A   1      -9.425   5.006 132.124  0.00  0.00    +0.027 C 
ATOM      2  C   LIG A   1      -8.839   3.584 131.792  0.00  0.00    -0.018 C 
ATOM      3  C   LIG A   1      -7.467   3.628 132.558  0.00  0.00    -0.007 C 
ATOM      4  C   LIG A   1      -6.962   5.045 132.288  0.00  0.00    +0.004 C 
ATOM      5  C   LIG A   1      -8.200   5.934 132.297  0.00  0.00    +0.007 C 
ATOM      6  C   LIG A   1      -7.535   3.375 134.070  0.00  0.00    +0.008 C 
ATOM      7  C   LIG A   1      -8.608   3.342 130.278  0.00  0.00    +0.012 C 
ATOM      8  C   LIG A   1      -7.961   1.981 129.973  0.00  0.00    +0.030 C 
ATOM      9  C   LIG A   1      -8.472   0.853 130.834  0.00  0.00    -0.076 C 
ATOM     10  C   LIG A   1      -9.299   1.071 131.872  0.00  0.00    -0.027 C 
ATOM     11  C   LIG A   1      -9.768   2.441 132.283  0.00  0.00    +0.034 C 
ATOM     12  C   LIG A   1      -8.010  -0.524 130.458  0.00  0.00    +0.038 C 
ENDROOT
BRANCH   1  13
ATOM     13  C   LIG A   1     -10.587   5.637 131.295  0.00  0.00    +0.064 C 
ATOM     14  C   LIG A   1     -10.053   6.852 130.513  0.00  0.00    +0.041 C 
ATOM     15  C   LIG A   1     -11.294   4.710 130.295  0.00  0.00    +0.041 C 
BRANCH  13  16
ATOM     16  O   LIG A   1     -11.573   6.136 132.201  0.00  0.00    -0.389 OA
ATOM     17  H   LIG A   1     -11.132   6.378 133.033  0.00  0.00    +0.210 HD
ENDBRANCH  13  16
ENDBRANCH   1  13
TORSDOF 2
ENDMDL
