MODEL 1
REMARK VINA RESULT:      -8.7      0.000      0.000
REMARK  Name = NuBBE_1549
REMARK  14 active torsions:
REMARK  status: ('A' for Active; 'I' for Inactive)
REMARK    1  A    between atoms: C_5  and  C_6
REMARK    2  A    between atoms: C_9  and  O_11
REMARK    3  A    between atoms: O_11  and  C_12
REMARK    4  A    between atoms: C_12  and  C_13
REMARK    5  A    between atoms: C_15  and  C_16
REMARK    6  A    between atoms: C_20  and  C_21
REMARK    7  A    between atoms: C_25  and  C_27
REMARK    8  A    between atoms: C_27  and  C_28
REMARK    9  A    between atoms: C_28  and  C_29
REMARK   10  A    between atoms: C_29  and  O_30
REMARK   11  A    between atoms: O_30  and  C_31
REMARK   12  A    between atoms: C_31  and  C_32
REMARK   13  A    between atoms: C_36  and  C_37
REMARK   14  A    between atoms: C_36  and  C_38
REMARK                            x       y       z     vdW  Elec       q    Type
REMARK                         _______ _______ _______ _____ _____    ______ ____
ROOT
ATOM      1  O   LIG A   1      -5.387  -4.338 130.699  0.00  0.00    -0.292 OA
ATOM      2  C   LIG A   1      -5.675  -3.342 130.035  0.00  0.00    +0.162 C 
ATOM      3  C   LIG A   1      -4.781  -2.981 128.904  0.00  0.00    +0.043 C 
ATOM      4  C   LIG A   1      -5.091  -2.025 128.016  0.00  0.00    -0.016 C 
ATOM      5  C   LIG A   1      -6.365  -1.180 128.067  0.00  0.00    -0.006 C 
ATOM      6  C   LIG A   1      -7.390  -1.921 127.184  0.00  0.00    +0.016 C 
ATOM      7  C   LIG A   1      -6.745  -1.104 129.595  0.00  0.00    +0.016 C 
ATOM      8  C   LIG A   1      -7.839  -0.053 129.878  0.00  0.00    +0.050 C 
ATOM      9  C   LIG A   1      -7.380   1.348 129.423  0.00  0.00    +0.184 C 
ATOM     10  C   LIG A   1      -7.132   1.395 127.875  0.00  0.00    +0.019 C 
ATOM     11  C   LIG A   1      -8.481   1.167 127.145  0.00  0.00    +0.016 C 
ATOM     12  C   LIG A   1      -6.060   0.290 127.539  0.00  0.00    +0.009 C 
ATOM     13  C   LIG A   1      -5.670   0.401 126.053  0.00  0.00    +0.005 C 
ATOM     14  C   LIG A   1      -4.863   1.679 125.854  0.00  0.00    +0.008 C 
ATOM     15  C   LIG A   1      -5.592   2.973 126.274  0.00  0.00    -0.018 C 
ATOM     16  C   LIG A   1      -4.499   4.001 126.674  0.00  0.00    +0.012 C 
ATOM     17  C   LIG A   1      -6.550   2.817 127.504  0.00  0.00    +0.071 C 
ATOM     18  C   LIG A   1      -7.619   3.857 127.197  0.00  0.00    +0.138 C 
ATOM     19  C   LIG A   1      -7.512   4.432 125.810  0.00  0.00    +0.079 C 
ATOM     20  C   LIG A   1      -6.497   3.518 125.116  0.00  0.00    +0.010 C 
ATOM     21  O   LIG A   1      -8.468   4.216 128.005  0.00  0.00    -0.297 OA
ATOM     22  C   LIG A   1      -6.920  -2.483 130.319  0.00  0.00    +0.031 C 
ATOM     23  C   LIG A   1      -6.971  -2.275 131.853  0.00  0.00    +0.019 C 
ATOM     24  C   LIG A   1      -8.170  -3.280 129.927  0.00  0.00    +0.019 C 
ENDROOT
BRANCH   9  25
ATOM     25  O   LIG A   1      -6.109   1.642 130.072  0.00  0.00    -0.461 OA
BRANCH  25  26
ATOM     26  C   LIG A   1      -6.112   2.233 131.288  0.00  0.00    +0.304 C 
ATOM     27  C   LIG A   1      -6.688   3.608 131.195  0.00  0.00    +0.136 C 
ATOM     28  O   LIG A   1      -5.635   1.755 132.308  0.00  0.00    -0.251 OA
ENDBRANCH  25  26
ENDBRANCH   9  25
BRANCH  20  29
ATOM     29  C   LIG A   1      -5.744   4.237 123.967  0.00  0.00    +0.082 C 
BRANCH  29  30
ATOM     30  C   LIG A   1      -6.119   3.749 122.572  0.00  0.00    +0.171 C 
ATOM     31  O   LIG A   1      -7.227   3.262 122.337  0.00  0.00    -0.294 OA
BRANCH  30  32
ATOM     32  C   LIG A   1      -5.123   3.990 121.437  0.00  0.00    +0.306 C 
BRANCH  32  33
ATOM     33  O   LIG A   1      -5.723   4.316 120.182  0.00  0.00    -0.457 OA
BRANCH  33  34
ATOM     34  C   LIG A   1      -5.394   5.531 119.663  0.00  0.00    +0.304 C 
ATOM     35  C   LIG A   1      -5.976   5.704 118.294  0.00  0.00    +0.136 C 
ATOM     36  O   LIG A   1      -4.728   6.389 120.227  0.00  0.00    -0.251 OA
ENDBRANCH  33  34
ENDBRANCH  32  33
ENDBRANCH  30  32
ENDBRANCH  29  30
ENDBRANCH  20  29
TORSDOF 7
ENDMDL
MODEL 2
REMARK VINA RESULT:      -8.5      3.364      6.907
REMARK  Name = NuBBE_1549
REMARK  14 active torsions:
REMARK  status: ('A' for Active; 'I' for Inactive)
REMARK    1  A    between atoms: C_5  and  C_6
REMARK    2  A    between atoms: C_9  and  O_11
REMARK    3  A    between atoms: O_11  and  C_12
REMARK    4  A    between atoms: C_12  and  C_13
REMARK    5  A    between atoms: C_15  and  C_16
REMARK    6  A    between atoms: C_20  and  C_21
REMARK    7  A    between atoms: C_25  and  C_27
REMARK    8  A    between atoms: C_27  and  C_28
REMARK    9  A    between atoms: C_28  and  C_29
REMARK   10  A    between atoms: C_29  and  O_30
REMARK   11  A    between atoms: O_30  and  C_31
REMARK   12  A    between atoms: C_31  and  C_32
REMARK   13  A    between atoms: C_36  and  C_37
REMARK   14  A    between atoms: C_36  and  C_38
REMARK                            x       y       z     vdW  Elec       q    Type
REMARK                         _______ _______ _______ _____ _____    ______ ____
ROOT
ATOM      1  O   LIG A   1      -7.917  -3.988 124.346  0.00  0.00    -0.292 OA
ATOM      2  C   LIG A   1      -7.704  -3.035 125.095  0.00  0.00    +0.162 C 
ATOM      3  C   LIG A   1      -8.284  -3.084 126.462  0.00  0.00    +0.043 C 
ATOM      4  C   LIG A   1      -7.974  -2.188 127.411  0.00  0.00    -0.016 C 
ATOM      5  C   LIG A   1      -7.025  -1.006 127.204  0.00  0.00    -0.006 C 
ATOM      6  C   LIG A   1      -5.634  -1.510 127.641  0.00  0.00    +0.016 C 
ATOM      7  C   LIG A   1      -7.145  -0.647 125.674  0.00  0.00    +0.016 C 
ATOM      8  C   LIG A   1      -6.482   0.703 125.332  0.00  0.00    +0.050 C 
ATOM      9  C   LIG A   1      -7.120   1.847 126.148  0.00  0.00    +0.184 C 
ATOM     10  C   LIG A   1      -6.903   1.641 127.688  0.00  0.00    +0.019 C 
ATOM     11  C   LIG A   1      -5.386   1.737 127.997  0.00  0.00    +0.016 C 
ATOM     12  C   LIG A   1      -7.516   0.239 128.064  0.00  0.00    +0.009 C 
ATOM     13  C   LIG A   1      -7.465   0.060 129.593  0.00  0.00    +0.005 C 
ATOM     14  C   LIG A   1      -8.469   1.014 130.231  0.00  0.00    +0.008 C 
ATOM     15  C   LIG A   1      -8.244   2.503 129.898  0.00  0.00    -0.018 C 
ATOM     16  C   LIG A   1      -9.627   3.204 129.991  0.00  0.00    +0.012 C 
ATOM     17  C   LIG A   1      -7.685   2.777 128.460  0.00  0.00    +0.071 C 
ATOM     18  C   LIG A   1      -6.868   4.043 128.682  0.00  0.00    +0.138 C 
ATOM     19  C   LIG A   1      -6.700   4.399 130.135  0.00  0.00    +0.079 C 
ATOM     20  C   LIG A   1      -7.204   3.153 130.873  0.00  0.00    +0.010 C 
ATOM     21  O   LIG A   1      -6.414   4.725 127.770  0.00  0.00    -0.297 OA
ATOM     22  C   LIG A   1      -6.854  -1.821 124.678  0.00  0.00    +0.031 C 
ATOM     23  C   LIG A   1      -7.311  -1.434 123.249  0.00  0.00    +0.019 C 
ATOM     24  C   LIG A   1      -5.385  -2.257 124.581  0.00  0.00    +0.019 C 
ENDROOT
BRANCH   9  25
ATOM     25  O   LIG A   1      -8.558   1.827 125.909  0.00  0.00    -0.461 OA
BRANCH  25  26
ATOM     26  C   LIG A   1      -9.047   2.405 124.789  0.00  0.00    +0.304 C 
ATOM     27  C   LIG A   1     -10.000   1.484 124.103  0.00  0.00    +0.136 C 
ATOM     28  O   LIG A   1      -8.701   3.491 124.345  0.00  0.00    -0.251 OA
ENDBRANCH  25  26
ENDBRANCH   9  25
BRANCH  20  29
ATOM     29  C   LIG A   1      -7.738   3.484 132.291  0.00  0.00    +0.082 C 
BRANCH  29  30
ATOM     30  C   LIG A   1      -7.575   4.945 132.695  0.00  0.00    +0.171 C 
ATOM     31  O   LIG A   1      -6.479   5.404 133.021  0.00  0.00    -0.294 OA
BRANCH  30  32
ATOM     32  C   LIG A   1      -8.792   5.862 132.568  0.00  0.00    +0.306 C 
BRANCH  32  33
ATOM     33  O   LIG A   1      -8.657   6.894 131.589  0.00  0.00    -0.457 OA
BRANCH  33  34
ATOM     34  C   LIG A   1      -9.558   6.867 130.568  0.00  0.00    +0.304 C 
ATOM     35  C   LIG A   1     -10.933   6.564 131.077  0.00  0.00    +0.136 C 
ATOM     36  O   LIG A   1      -9.305   7.076 129.390  0.00  0.00    -0.251 OA
ENDBRANCH  33  34
ENDBRANCH  32  33
ENDBRANCH  30  32
ENDBRANCH  29  30
ENDBRANCH  20  29
TORSDOF 7
ENDMDL
MODEL 3
REMARK VINA RESULT:      -8.5      2.679      8.711
REMARK  Name = NuBBE_1549
REMARK  14 active torsions:
REMARK  status: ('A' for Active; 'I' for Inactive)
REMARK    1  A    between atoms: C_5  and  C_6
REMARK    2  A    between atoms: C_9  and  O_11
REMARK    3  A    between atoms: O_11  and  C_12
REMARK    4  A    between atoms: C_12  and  C_13
REMARK    5  A    between atoms: C_15  and  C_16
REMARK    6  A    between atoms: C_20  and  C_21
REMARK    7  A    between atoms: C_25  and  C_27
REMARK    8  A    between atoms: C_27  and  C_28
REMARK    9  A    between atoms: C_28  and  C_29
REMARK   10  A    between atoms: C_29  and  O_30
REMARK   11  A    between atoms: O_30  and  C_31
REMARK   12  A    between atoms: C_31  and  C_32
REMARK   13  A    between atoms: C_36  and  C_37
REMARK   14  A    between atoms: C_36  and  C_38
REMARK                            x       y       z     vdW  Elec       q    Type
REMARK                         _______ _______ _______ _____ _____    ______ ____
ROOT
ATOM      1  O   LIG A   1      -5.326   4.628 122.709  0.00  0.00    -0.292 OA
ATOM      2  C   LIG A   1      -5.773   3.732 123.424  0.00  0.00    +0.162 C 
ATOM      3  C   LIG A   1      -5.271   3.643 124.820  0.00  0.00    +0.043 C 
ATOM      4  C   LIG A   1      -5.812   2.820 125.731  0.00  0.00    -0.016 C 
ATOM      5  C   LIG A   1      -6.972   1.865 125.449  0.00  0.00    -0.006 C 
ATOM      6  C   LIG A   1      -8.251   2.642 125.826  0.00  0.00    +0.016 C 
ATOM      7  C   LIG A   1      -6.846   1.506 123.919  0.00  0.00    +0.016 C 
ATOM      8  C   LIG A   1      -7.755   0.328 123.513  0.00  0.00    +0.050 C 
ATOM      9  C   LIG A   1      -7.413  -0.933 124.336  0.00  0.00    +0.184 C 
ATOM     10  C   LIG A   1      -7.667  -0.704 125.866  0.00  0.00    +0.019 C 
ATOM     11  C   LIG A   1      -9.185  -0.486 126.096  0.00  0.00    +0.016 C 
ATOM     12  C   LIG A   1      -6.797   0.535 126.305  0.00  0.00    +0.009 C 
ATOM     13  C   LIG A   1      -6.894   0.703 127.833  0.00  0.00    +0.005 C 
ATOM     14  C   LIG A   1      -6.146  -0.446 128.500  0.00  0.00    +0.008 C 
ATOM     15  C   LIG A   1      -6.657  -1.852 128.122  0.00  0.00    -0.018 C 
ATOM     16  C   LIG A   1      -5.456  -2.827 128.270  0.00  0.00    +0.012 C 
ATOM     17  C   LIG A   1      -7.181  -1.987 126.652  0.00  0.00    +0.071 C 
ATOM     18  C   LIG A   1      -8.254  -3.057 126.803  0.00  0.00    +0.138 C 
ATOM     19  C   LIG A   1      -8.571  -3.387 128.237  0.00  0.00    +0.079 C 
ATOM     20  C   LIG A   1      -7.861  -2.282 129.028  0.00  0.00    +0.010 C 
ATOM     21  O   LIG A   1      -8.789  -3.619 125.854  0.00  0.00    -0.297 OA
ATOM     22  C   LIG A   1      -6.832   2.727 122.936  0.00  0.00    +0.031 C 
ATOM     23  C   LIG A   1      -6.388   2.269 121.525  0.00  0.00    +0.019 C 
ATOM     24  C   LIG A   1      -8.171   3.459 122.775  0.00  0.00    +0.019 C 
ENDROOT
BRANCH   9  25
ATOM     25  O   LIG A   1      -5.992  -1.210 124.171  0.00  0.00    -0.461 OA
BRANCH  25  26
ATOM     26  C   LIG A   1      -5.607  -2.189 123.321  0.00  0.00    +0.304 C 
ATOM     27  C   LIG A   1      -4.871  -3.257 124.061  0.00  0.00    +0.136 C 
ATOM     28  O   LIG A   1      -5.757  -2.172 122.108  0.00  0.00    -0.251 OA
ENDBRANCH  25  26
ENDBRANCH   9  25
BRANCH  20  29
ATOM     29  C   LIG A   1      -7.485  -2.733 130.463  0.00  0.00    +0.082 C 
BRANCH  29  30
ATOM     30  C   LIG A   1      -7.862  -1.732 131.551  0.00  0.00    +0.171 C 
ATOM     31  O   LIG A   1      -7.689  -1.985 132.745  0.00  0.00    -0.294 OA
BRANCH  30  32
ATOM     32  C   LIG A   1      -8.350  -0.351 131.115  0.00  0.00    +0.306 C 
BRANCH  32  33
ATOM     33  O   LIG A   1      -9.406   0.184 131.915  0.00  0.00    -0.457 OA
BRANCH  33  34
ATOM     34  C   LIG A   1      -9.265   1.485 132.294  0.00  0.00    +0.304 C 
ATOM     35  C   LIG A   1     -10.206   2.368 131.535  0.00  0.00    +0.136 C 
ATOM     36  O   LIG A   1      -8.492   1.898 133.148  0.00  0.00    -0.251 OA
ENDBRANCH  33  34
ENDBRANCH  32  33
ENDBRANCH  30  32
ENDBRANCH  29  30
ENDBRANCH  20  29
TORSDOF 7
ENDMDL
MODEL 4
REMARK VINA RESULT:      -8.4      2.560      8.819
REMARK  Name = NuBBE_1549
REMARK  14 active torsions:
REMARK  status: ('A' for Active; 'I' for Inactive)
REMARK    1  A    between atoms: C_5  and  C_6
REMARK    2  A    between atoms: C_9  and  O_11
REMARK    3  A    between atoms: O_11  and  C_12
REMARK    4  A    between atoms: C_12  and  C_13
REMARK    5  A    between atoms: C_15  and  C_16
REMARK    6  A    between atoms: C_20  and  C_21
REMARK    7  A    between atoms: C_25  and  C_27
REMARK    8  A    between atoms: C_27  and  C_28
REMARK    9  A    between atoms: C_28  and  C_29
REMARK   10  A    between atoms: C_29  and  O_30
REMARK   11  A    between atoms: O_30  and  C_31
REMARK   12  A    between atoms: C_31  and  C_32
REMARK   13  A    between atoms: C_36  and  C_37
REMARK   14  A    between atoms: C_36  and  C_38
REMARK                            x       y       z     vdW  Elec       q    Type
REMARK                         _______ _______ _______ _____ _____    ______ ____
ROOT
ATOM      1  O   LIG A   1      -5.329   4.627 122.859  0.00  0.00    -0.292 OA
ATOM      2  C   LIG A   1      -5.778   3.715 123.552  0.00  0.00    +0.162 C 
ATOM      3  C   LIG A   1      -5.278   3.592 124.946  0.00  0.00    +0.043 C 
ATOM      4  C   LIG A   1      -5.821   2.749 125.836  0.00  0.00    -0.016 C 
ATOM      5  C   LIG A   1      -6.984   1.803 125.531  0.00  0.00    -0.006 C 
ATOM      6  C   LIG A   1      -8.261   2.574 125.925  0.00  0.00    +0.016 C 
ATOM      7  C   LIG A   1      -6.856   1.481 123.994  0.00  0.00    +0.016 C 
ATOM      8  C   LIG A   1      -7.767   0.314 123.559  0.00  0.00    +0.050 C 
ATOM      9  C   LIG A   1      -7.429  -0.967 124.351  0.00  0.00    +0.184 C 
ATOM     10  C   LIG A   1      -7.684  -0.774 125.887  0.00  0.00    +0.019 C 
ATOM     11  C   LIG A   1      -9.202  -0.558 126.119  0.00  0.00    +0.016 C 
ATOM     12  C   LIG A   1      -6.813   0.453 126.355  0.00  0.00    +0.009 C 
ATOM     13  C   LIG A   1      -6.911   0.585 127.887  0.00  0.00    +0.005 C 
ATOM     14  C   LIG A   1      -6.166  -0.582 128.527  0.00  0.00    +0.008 C 
ATOM     15  C   LIG A   1      -6.679  -1.977 128.115  0.00  0.00    -0.018 C 
ATOM     16  C   LIG A   1      -5.481  -2.958 128.242  0.00  0.00    +0.012 C 
ATOM     17  C   LIG A   1      -7.201  -2.076 126.642  0.00  0.00    +0.071 C 
ATOM     18  C   LIG A   1      -8.277  -3.147 126.766  0.00  0.00    +0.138 C 
ATOM     19  C   LIG A   1      -8.596  -3.510 128.192  0.00  0.00    +0.079 C 
ATOM     20  C   LIG A   1      -7.885  -2.426 129.009  0.00  0.00    +0.010 C 
ATOM     21  O   LIG A   1      -8.812  -3.686 125.804  0.00  0.00    -0.297 OA
ATOM     22  C   LIG A   1      -6.839   2.724 123.040  0.00  0.00    +0.031 C 
ATOM     23  C   LIG A   1      -6.394   2.299 121.618  0.00  0.00    +0.019 C 
ATOM     24  C   LIG A   1      -8.176   3.463 122.894  0.00  0.00    +0.019 C 
ENDROOT
BRANCH   9  25
ATOM     25  O   LIG A   1      -6.008  -1.243 124.181  0.00  0.00    -0.461 OA
BRANCH  25  26
ATOM     26  C   LIG A   1      -5.625  -2.219 123.327  0.00  0.00    +0.304 C 
ATOM     27  C   LIG A   1      -4.993  -3.345 124.077  0.00  0.00    +0.136 C 
ATOM     28  O   LIG A   1      -5.701  -2.162 122.108  0.00  0.00    -0.251 OA
ENDBRANCH  25  26
ENDBRANCH   9  25
BRANCH  20  29
ATOM     29  C   LIG A   1      -7.512  -2.911 130.434  0.00  0.00    +0.082 C 
BRANCH  29  30
ATOM     30  C   LIG A   1      -7.351  -1.789 131.454  0.00  0.00    +0.171 C 
ATOM     31  O   LIG A   1      -8.265  -0.994 131.686  0.00  0.00    -0.294 OA
BRANCH  30  32
ATOM     32  C   LIG A   1      -6.062  -1.748 132.276  0.00  0.00    +0.306 C 
BRANCH  32  33
ATOM     33  O   LIG A   1      -5.178  -2.847 132.047  0.00  0.00    -0.457 OA
BRANCH  33  34
ATOM     34  C   LIG A   1      -3.976  -2.536 131.486  0.00  0.00    +0.304 C 
ATOM     35  C   LIG A   1      -3.763  -1.054 131.465  0.00  0.00    +0.136 C 
ATOM     36  O   LIG A   1      -3.158  -3.342 131.064  0.00  0.00    -0.251 OA
ENDBRANCH  33  34
ENDBRANCH  32  33
ENDBRANCH  30  32
ENDBRANCH  29  30
ENDBRANCH  20  29
TORSDOF 7
ENDMDL
MODEL 5
REMARK VINA RESULT:      -8.4      1.238      2.186
REMARK  Name = NuBBE_1549
REMARK  14 active torsions:
REMARK  status: ('A' for Active; 'I' for Inactive)
REMARK    1  A    between atoms: C_5  and  C_6
REMARK    2  A    between atoms: C_9  and  O_11
REMARK    3  A    between atoms: O_11  and  C_12
REMARK    4  A    between atoms: C_12  and  C_13
REMARK    5  A    between atoms: C_15  and  C_16
REMARK    6  A    between atoms: C_20  and  C_21
REMARK    7  A    between atoms: C_25  and  C_27
REMARK    8  A    between atoms: C_27  and  C_28
REMARK    9  A    between atoms: C_28  and  C_29
REMARK   10  A    between atoms: C_29  and  O_30
REMARK   11  A    between atoms: O_30  and  C_31
REMARK   12  A    between atoms: C_31  and  C_32
REMARK   13  A    between atoms: C_36  and  C_37
REMARK   14  A    between atoms: C_36  and  C_38
REMARK                            x       y       z     vdW  Elec       q    Type
REMARK                         _______ _______ _______ _____ _____    ______ ____
ROOT
ATOM      1  O   LIG A   1      -5.481  -4.600 130.576  0.00  0.00    -0.292 OA
ATOM      2  C   LIG A   1      -5.723  -3.569 129.948  0.00  0.00    +0.162 C 
ATOM      3  C   LIG A   1      -4.716  -3.109 128.957  0.00  0.00    +0.043 C 
ATOM      4  C   LIG A   1      -4.953  -2.104 128.101  0.00  0.00    -0.016 C 
ATOM      5  C   LIG A   1      -6.253  -1.299 128.054  0.00  0.00    -0.006 C 
ATOM      6  C   LIG A   1      -7.141  -2.006 127.009  0.00  0.00    +0.016 C 
ATOM      7  C   LIG A   1      -6.812  -1.336 129.527  0.00  0.00    +0.016 C 
ATOM      8  C   LIG A   1      -7.967  -0.337 129.744  0.00  0.00    +0.050 C 
ATOM      9  C   LIG A   1      -7.508   1.103 129.438  0.00  0.00    +0.184 C 
ATOM     10  C   LIG A   1      -7.081   1.262 127.937  0.00  0.00    +0.019 C 
ATOM     11  C   LIG A   1      -8.327   1.048 127.038  0.00  0.00    +0.016 C 
ATOM     12  C   LIG A   1      -5.940   0.211 127.661  0.00  0.00    +0.009 C 
ATOM     13  C   LIG A   1      -5.382   0.433 126.243  0.00  0.00    +0.005 C 
ATOM     14  C   LIG A   1      -4.603   1.744 126.223  0.00  0.00    +0.008 C 
ATOM     15  C   LIG A   1      -5.420   2.985 126.636  0.00  0.00    -0.018 C 
ATOM     16  C   LIG A   1      -4.418   4.014 127.228  0.00  0.00    +0.012 C 
ATOM     17  C   LIG A   1      -6.509   2.721 127.730  0.00  0.00    +0.071 C 
ATOM     18  C   LIG A   1      -7.571   3.750 127.364  0.00  0.00    +0.138 C 
ATOM     19  C   LIG A   1      -7.323   4.421 126.040  0.00  0.00    +0.079 C 
ATOM     20  C   LIG A   1      -6.201   3.583 125.415  0.00  0.00    +0.010 C 
ATOM     21  O   LIG A   1      -8.521   4.030 128.088  0.00  0.00    -0.297 OA
ATOM     22  C   LIG A   1      -7.022  -2.765 130.135  0.00  0.00    +0.031 C 
ATOM     23  C   LIG A   1      -7.260  -2.664 131.663  0.00  0.00    +0.019 C 
ATOM     24  C   LIG A   1      -8.190  -3.568 129.547  0.00  0.00    +0.019 C 
ENDROOT
BRANCH   9  25
ATOM     25  O   LIG A   1      -6.332   1.387 130.252  0.00  0.00    -0.461 OA
BRANCH  25  26
ATOM     26  C   LIG A   1      -6.493   1.976 131.458  0.00  0.00    +0.304 C 
ATOM     27  C   LIG A   1      -6.378   3.459 131.330  0.00  0.00    +0.136 C 
ATOM     28  O   LIG A   1      -6.628   1.387 132.521  0.00  0.00    -0.251 OA
ENDBRANCH  25  26
ENDBRANCH   9  25
BRANCH  20  29
ATOM     29  C   LIG A   1      -5.344   4.399 124.413  0.00  0.00    +0.082 C 
BRANCH  29  30
ATOM     30  C   LIG A   1      -5.683   4.142 122.948  0.00  0.00    +0.171 C 
ATOM     31  O   LIG A   1      -5.268   4.881 122.053  0.00  0.00    -0.294 OA
BRANCH  30  32
ATOM     32  C   LIG A   1      -6.456   2.869 122.604  0.00  0.00    +0.306 C 
BRANCH  32  33
ATOM     33  O   LIG A   1      -7.878   3.011 122.638  0.00  0.00    -0.457 OA
BRANCH  33  34
ATOM     34  C   LIG A   1      -8.569   1.957 123.154  0.00  0.00    +0.304 C 
ATOM     35  C   LIG A   1      -7.654   0.809 123.446  0.00  0.00    +0.136 C 
ATOM     36  O   LIG A   1      -9.772   1.935 123.374  0.00  0.00    -0.251 OA
ENDBRANCH  33  34
ENDBRANCH  32  33
ENDBRANCH  30  32
ENDBRANCH  29  30
ENDBRANCH  20  29
TORSDOF 7
ENDMDL
MODEL 6
REMARK VINA RESULT:      -8.2      3.125      7.295
REMARK  Name = NuBBE_1549
REMARK  14 active torsions:
REMARK  status: ('A' for Active; 'I' for Inactive)
REMARK    1  A    between atoms: C_5  and  C_6
REMARK    2  A    between atoms: C_9  and  O_11
REMARK    3  A    between atoms: O_11  and  C_12
REMARK    4  A    between atoms: C_12  and  C_13
REMARK    5  A    between atoms: C_15  and  C_16
REMARK    6  A    between atoms: C_20  and  C_21
REMARK    7  A    between atoms: C_25  and  C_27
REMARK    8  A    between atoms: C_27  and  C_28
REMARK    9  A    between atoms: C_28  and  C_29
REMARK   10  A    between atoms: C_29  and  O_30
REMARK   11  A    between atoms: O_30  and  C_31
REMARK   12  A    between atoms: C_31  and  C_32
REMARK   13  A    between atoms: C_36  and  C_37
REMARK   14  A    between atoms: C_36  and  C_38
REMARK                            x       y       z     vdW  Elec       q    Type
REMARK                         _______ _______ _______ _____ _____    ______ ____
ROOT
ATOM      1  O   LIG A   1      -8.236  -4.184 124.361  0.00  0.00    -0.292 OA
ATOM      2  C   LIG A   1      -7.929  -3.220 125.063  0.00  0.00    +0.162 C 
ATOM      3  C   LIG A   1      -8.487  -3.159 126.439  0.00  0.00    +0.043 C 
ATOM      4  C   LIG A   1      -8.084  -2.252 127.341  0.00  0.00    -0.016 C 
ATOM      5  C   LIG A   1      -7.042  -1.166 127.067  0.00  0.00    -0.006 C 
ATOM      6  C   LIG A   1      -5.691  -1.768 127.507  0.00  0.00    +0.016 C 
ATOM      7  C   LIG A   1      -7.159  -0.866 125.524  0.00  0.00    +0.016 C 
ATOM      8  C   LIG A   1      -6.389   0.406 125.111  0.00  0.00    +0.050 C 
ATOM      9  C   LIG A   1      -6.913   1.635 125.884  0.00  0.00    +0.184 C 
ATOM     10  C   LIG A   1      -6.686   1.479 127.428  0.00  0.00    +0.019 C 
ATOM     11  C   LIG A   1      -5.161   1.459 127.711  0.00  0.00    +0.016 C 
ATOM     12  C   LIG A   1      -7.410   0.153 127.876  0.00  0.00    +0.009 C 
ATOM     13  C   LIG A   1      -7.346   0.038 129.411  0.00  0.00    +0.005 C 
ATOM     14  C   LIG A   1      -8.254   1.102 130.019  0.00  0.00    +0.008 C 
ATOM     15  C   LIG A   1      -7.909   2.551 129.615  0.00  0.00    -0.018 C 
ATOM     16  C   LIG A   1      -9.225   3.371 129.697  0.00  0.00    +0.012 C 
ATOM     17  C   LIG A   1      -7.355   2.711 128.159  0.00  0.00    +0.071 C 
ATOM     18  C   LIG A   1      -6.429   3.911 128.311  0.00  0.00    +0.138 C 
ATOM     19  C   LIG A   1      -6.205   4.315 129.744  0.00  0.00    +0.079 C 
ATOM     20  C   LIG A   1      -6.799   3.151 130.545  0.00  0.00    +0.010 C 
ATOM     21  O   LIG A   1      -5.934   4.511 127.363  0.00  0.00    -0.297 OA
ATOM     22  C   LIG A   1      -6.987  -2.104 124.578  0.00  0.00    +0.031 C 
ATOM     23  C   LIG A   1      -7.435  -1.742 123.140  0.00  0.00    +0.019 C 
ATOM     24  C   LIG A   1      -5.563  -2.668 124.481  0.00  0.00    +0.019 C 
ENDROOT
BRANCH   9  25
ATOM     25  O   LIG A   1      -8.351   1.728 125.666  0.00  0.00    -0.461 OA
BRANCH  25  26
ATOM     26  C   LIG A   1      -8.833   2.698 124.857  0.00  0.00    +0.304 C 
ATOM     27  C   LIG A   1      -9.246   2.120 123.544  0.00  0.00    +0.136 C 
ATOM     28  O   LIG A   1      -8.852   3.892 125.119  0.00  0.00    -0.251 OA
ENDBRANCH  25  26
ENDBRANCH   9  25
BRANCH  20  29
ATOM     29  C   LIG A   1      -7.278   3.588 131.953  0.00  0.00    +0.082 C 
BRANCH  29  30
ATOM     30  C   LIG A   1      -6.827   2.666 133.081  0.00  0.00    +0.171 C 
ATOM     31  O   LIG A   1      -7.641   2.056 133.778  0.00  0.00    -0.294 OA
BRANCH  30  32
ATOM     32  C   LIG A   1      -5.328   2.420 133.249  0.00  0.00    +0.306 C 
BRANCH  32  33
ATOM     33  O   LIG A   1      -4.975   1.059 133.505  0.00  0.00    -0.457 OA
BRANCH  33  34
ATOM     34  C   LIG A   1      -5.060   0.212 132.442  0.00  0.00    +0.304 C 
ATOM     35  C   LIG A   1      -4.207   0.690 131.309  0.00  0.00    +0.136 C 
ATOM     36  O   LIG A   1      -5.723  -0.815 132.402  0.00  0.00    -0.251 OA
ENDBRANCH  33  34
ENDBRANCH  32  33
ENDBRANCH  30  32
ENDBRANCH  29  30
ENDBRANCH  20  29
TORSDOF 7
ENDMDL
MODEL 7
REMARK VINA RESULT:      -8.2      3.296      4.669
REMARK  Name = NuBBE_1549
REMARK  14 active torsions:
REMARK  status: ('A' for Active; 'I' for Inactive)
REMARK    1  A    between atoms: C_5  and  C_6
REMARK    2  A    between atoms: C_9  and  O_11
REMARK    3  A    between atoms: O_11  and  C_12
REMARK    4  A    between atoms: C_12  and  C_13
REMARK    5  A    between atoms: C_15  and  C_16
REMARK    6  A    between atoms: C_20  and  C_21
REMARK    7  A    between atoms: C_25  and  C_27
REMARK    8  A    between atoms: C_27  and  C_28
REMARK    9  A    between atoms: C_28  and  C_29
REMARK   10  A    between atoms: C_29  and  O_30
REMARK   11  A    between atoms: O_30  and  C_31
REMARK   12  A    between atoms: C_31  and  C_32
REMARK   13  A    between atoms: C_36  and  C_37
REMARK   14  A    between atoms: C_36  and  C_38
REMARK                            x       y       z     vdW  Elec       q    Type
REMARK                         _______ _______ _______ _____ _____    ______ ____
ROOT
ATOM      1  O   LIG A   1      -2.944  -4.064 132.561  0.00  0.00    -0.292 OA
ATOM      2  C   LIG A   1      -3.705  -3.515 131.764  0.00  0.00    +0.162 C 
ATOM      3  C   LIG A   1      -3.424  -3.677 130.313  0.00  0.00    +0.043 C 
ATOM      4  C   LIG A   1      -4.279  -3.270 129.364  0.00  0.00    -0.016 C 
ATOM      5  C   LIG A   1      -5.612  -2.572 129.643  0.00  0.00    -0.006 C 
ATOM      6  C   LIG A   1      -6.666  -3.698 129.693  0.00  0.00    +0.016 C 
ATOM      7  C   LIG A   1      -5.397  -1.809 131.005  0.00  0.00    +0.016 C 
ATOM      8  C   LIG A   1      -6.535  -0.812 131.307  0.00  0.00    +0.050 C 
ATOM      9  C   LIG A   1      -6.656   0.235 130.180  0.00  0.00    +0.184 C 
ATOM     10  C   LIG A   1      -7.027  -0.437 128.812  0.00  0.00    +0.019 C 
ATOM     11  C   LIG A   1      -8.445  -1.055 128.927  0.00  0.00    +0.016 C 
ATOM     12  C   LIG A   1      -5.915  -1.508 128.500  0.00  0.00    +0.009 C 
ATOM     13  C   LIG A   1      -6.153  -2.085 127.092  0.00  0.00    +0.005 C 
ATOM     14  C   LIG A   1      -5.837  -1.007 126.061  0.00  0.00    +0.008 C 
ATOM     15  C   LIG A   1      -6.660   0.289 126.212  0.00  0.00    -0.018 C 
ATOM     16  C   LIG A   1      -5.800   1.444 125.630  0.00  0.00    +0.012 C 
ATOM     17  C   LIG A   1      -7.012   0.675 127.688  0.00  0.00    +0.071 C 
ATOM     18  C   LIG A   1      -8.347   1.387 127.512  0.00  0.00    +0.138 C 
ATOM     19  C   LIG A   1      -8.919   1.250 126.127  0.00  0.00    +0.079 C 
ATOM     20  C   LIG A   1      -8.040   0.175 125.477  0.00  0.00    +0.010 C 
ATOM     21  O   LIG A   1      -8.892   2.036 128.398  0.00  0.00    -0.297 OA
ATOM     22  C   LIG A   1      -4.928  -2.694 132.211  0.00  0.00    +0.031 C 
ATOM     23  C   LIG A   1      -4.451  -1.794 133.378  0.00  0.00    +0.019 C 
ATOM     24  C   LIG A   1      -5.984  -3.651 132.778  0.00  0.00    +0.019 C 
ENDROOT
BRANCH   9  25
ATOM     25  O   LIG A   1      -5.355   0.870 130.010  0.00  0.00    -0.461 OA
BRANCH  25  26
ATOM     26  C   LIG A   1      -5.113   2.049 130.625  0.00  0.00    +0.304 C 
ATOM     27  C   LIG A   1      -3.995   1.903 131.605  0.00  0.00    +0.136 C 
ATOM     28  O   LIG A   1      -5.763   3.073 130.474  0.00  0.00    -0.251 OA
ENDBRANCH  25  26
ENDBRANCH   9  25
BRANCH  20  29
ATOM     29  C   LIG A   1      -7.984   0.312 123.934  0.00  0.00    +0.082 C 
BRANCH  29  30
ATOM     30  C   LIG A   1      -9.123  -0.392 123.203  0.00  0.00    +0.171 C 
ATOM     31  O   LIG A   1     -10.133   0.219 122.847  0.00  0.00    -0.294 OA
BRANCH  30  32
ATOM     32  C   LIG A   1      -8.926  -1.857 122.812  0.00  0.00    +0.306 C 
BRANCH  32  33
ATOM     33  O   LIG A   1      -9.626  -2.789 123.638  0.00  0.00    -0.457 OA
BRANCH  33  34
ATOM     34  C   LIG A   1      -8.906  -3.344 124.651  0.00  0.00    +0.304 C 
ATOM     35  C   LIG A   1      -9.531  -3.044 125.978  0.00  0.00    +0.136 C 
ATOM     36  O   LIG A   1      -7.892  -4.016 124.519  0.00  0.00    -0.251 OA
ENDBRANCH  33  34
ENDBRANCH  32  33
ENDBRANCH  30  32
ENDBRANCH  29  30
ENDBRANCH  20  29
TORSDOF 7
ENDMDL
MODEL 8
REMARK VINA RESULT:      -8.1      3.041      4.830
REMARK  Name = NuBBE_1549
REMARK  14 active torsions:
REMARK  status: ('A' for Active; 'I' for Inactive)
REMARK    1  A    between atoms: C_5  and  C_6
REMARK    2  A    between atoms: C_9  and  O_11
REMARK    3  A    between atoms: O_11  and  C_12
REMARK    4  A    between atoms: C_12  and  C_13
REMARK    5  A    between atoms: C_15  and  C_16
REMARK    6  A    between atoms: C_20  and  C_21
REMARK    7  A    between atoms: C_25  and  C_27
REMARK    8  A    between atoms: C_27  and  C_28
REMARK    9  A    between atoms: C_28  and  C_29
REMARK   10  A    between atoms: C_29  and  O_30
REMARK   11  A    between atoms: O_30  and  C_31
REMARK   12  A    between atoms: C_31  and  C_32
REMARK   13  A    between atoms: C_36  and  C_37
REMARK   14  A    between atoms: C_36  and  C_38
REMARK                            x       y       z     vdW  Elec       q    Type
REMARK                         _______ _______ _______ _____ _____    ______ ____
ROOT
ATOM      1  O   LIG A   1      -5.923  -2.712 133.157  0.00  0.00    -0.292 OA
ATOM      2  C   LIG A   1      -6.005  -2.170 132.055  0.00  0.00    +0.162 C 
ATOM      3  C   LIG A   1      -6.702  -0.860 131.976  0.00  0.00    +0.043 C 
ATOM      4  C   LIG A   1      -6.698  -0.106 130.867  0.00  0.00    -0.016 C 
ATOM      5  C   LIG A   1      -6.016  -0.502 129.557  0.00  0.00    -0.006 C 
ATOM      6  C   LIG A   1      -4.602   0.113 129.624  0.00  0.00    +0.016 C 
ATOM      7  C   LIG A   1      -6.048  -2.077 129.537  0.00  0.00    +0.016 C 
ATOM      8  C   LIG A   1      -5.665  -2.657 128.160  0.00  0.00    +0.050 C 
ATOM      9  C   LIG A   1      -6.622  -2.140 127.065  0.00  0.00    +0.184 C 
ATOM     10  C   LIG A   1      -6.530  -0.581 126.914  0.00  0.00    +0.019 C 
ATOM     11  C   LIG A   1      -5.113  -0.211 126.404  0.00  0.00    +0.016 C 
ATOM     12  C   LIG A   1      -6.857   0.045 128.322  0.00  0.00    +0.009 C 
ATOM     13  C   LIG A   1      -6.930   1.578 128.187  0.00  0.00    +0.005 C 
ATOM     14  C   LIG A   1      -8.181   1.940 127.393  0.00  0.00    +0.008 C 
ATOM     15  C   LIG A   1      -8.254   1.313 125.985  0.00  0.00    -0.018 C 
ATOM     16  C   LIG A   1      -9.759   1.175 125.626  0.00  0.00    +0.012 C 
ATOM     17  C   LIG A   1      -7.619  -0.114 125.869  0.00  0.00    +0.071 C 
ATOM     18  C   LIG A   1      -7.128  -0.117 124.427  0.00  0.00    +0.138 C 
ATOM     19  C   LIG A   1      -7.197   1.235 123.769  0.00  0.00    +0.079 C 
ATOM     20  C   LIG A   1      -7.491   2.189 124.933  0.00  0.00    +0.010 C 
ATOM     21  O   LIG A   1      -6.740  -1.124 123.845  0.00  0.00    -0.297 OA
ATOM     22  C   LIG A   1      -5.403  -2.784 130.778  0.00  0.00    +0.031 C 
ATOM     23  C   LIG A   1      -5.780  -4.286 130.791  0.00  0.00    +0.019 C 
ATOM     24  C   LIG A   1      -3.873  -2.699 130.864  0.00  0.00    +0.019 C 
ENDROOT
BRANCH   9  25
ATOM     25  O   LIG A   1      -7.986  -2.454 127.470  0.00  0.00    -0.461 OA
BRANCH  25  26
ATOM     26  C   LIG A   1      -8.555  -3.601 127.034  0.00  0.00    +0.304 C 
ATOM     27  C   LIG A   1      -8.480  -3.684 125.545  0.00  0.00    +0.136 C 
ATOM     28  O   LIG A   1      -9.127  -4.419 127.740  0.00  0.00    -0.251 OA
ENDBRANCH  25  26
ENDBRANCH   9  25
BRANCH  20  29
ATOM     29  C   LIG A   1      -8.232   3.470 124.472  0.00  0.00    +0.082 C 
BRANCH  29  30
ATOM     30  C   LIG A   1      -7.858   4.724 125.256  0.00  0.00    +0.171 C 
ATOM     31  O   LIG A   1      -8.705   5.374 125.873  0.00  0.00    -0.294 OA
BRANCH  30  32
ATOM     32  C   LIG A   1      -6.377   5.090 125.357  0.00  0.00    +0.306 C 
BRANCH  32  33
ATOM     33  O   LIG A   1      -5.865   5.126 126.691  0.00  0.00    -0.457 OA
BRANCH  33  34
ATOM     34  C   LIG A   1      -4.556   4.779 126.835  0.00  0.00    +0.304 C 
ATOM     35  C   LIG A   1      -4.267   3.483 126.144  0.00  0.00    +0.136 C 
ATOM     36  O   LIG A   1      -3.709   5.431 127.430  0.00  0.00    -0.251 OA
ENDBRANCH  33  34
ENDBRANCH  32  33
ENDBRANCH  30  32
ENDBRANCH  29  30
ENDBRANCH  20  29
TORSDOF 7
ENDMDL
MODEL 9
REMARK VINA RESULT:      -8.0      3.353      7.741
REMARK  Name = NuBBE_1549
REMARK  14 active torsions:
REMARK  status: ('A' for Active; 'I' for Inactive)
REMARK    1  A    between atoms: C_5  and  C_6
REMARK    2  A    between atoms: C_9  and  O_11
REMARK    3  A    between atoms: O_11  and  C_12
REMARK    4  A    between atoms: C_12  and  C_13
REMARK    5  A    between atoms: C_15  and  C_16
REMARK    6  A    between atoms: C_20  and  C_21
REMARK    7  A    between atoms: C_25  and  C_27
REMARK    8  A    between atoms: C_27  and  C_28
REMARK    9  A    between atoms: C_28  and  C_29
REMARK   10  A    between atoms: C_29  and  O_30
REMARK   11  A    between atoms: O_30  and  C_31
REMARK   12  A    between atoms: C_31  and  C_32
REMARK   13  A    between atoms: C_36  and  C_37
REMARK   14  A    between atoms: C_36  and  C_38
REMARK                            x       y       z     vdW  Elec       q    Type
REMARK                         _______ _______ _______ _____ _____    ______ ____
ROOT
ATOM      1  O   LIG A   1      -8.059  -4.130 124.448  0.00  0.00    -0.292 OA
ATOM      2  C   LIG A   1      -7.812  -3.174 125.183  0.00  0.00    +0.162 C 
ATOM      3  C   LIG A   1      -8.418  -3.168 126.540  0.00  0.00    +0.043 C 
ATOM      4  C   LIG A   1      -8.081  -2.270 127.477  0.00  0.00    -0.016 C 
ATOM      5  C   LIG A   1      -7.071  -1.141 127.267  0.00  0.00    -0.006 C 
ATOM      6  C   LIG A   1      -5.714  -1.705 127.739  0.00  0.00    +0.016 C 
ATOM      7  C   LIG A   1      -7.145  -0.806 125.729  0.00  0.00    +0.016 C 
ATOM      8  C   LIG A   1      -6.409   0.503 125.374  0.00  0.00    +0.050 C 
ATOM      9  C   LIG A   1      -7.004   1.692 126.158  0.00  0.00    +0.184 C 
ATOM     10  C   LIG A   1      -6.825   1.505 127.705  0.00  0.00    +0.019 C 
ATOM     11  C   LIG A   1      -5.312   1.532 128.041  0.00  0.00    +0.016 C 
ATOM     12  C   LIG A   1      -7.515   0.143 128.094  0.00  0.00    +0.009 C 
ATOM     13  C   LIG A   1      -7.500  -0.009 129.627  0.00  0.00    +0.005 C 
ATOM     14  C   LIG A   1      -8.466   1.005 130.229  0.00  0.00    +0.008 C 
ATOM     15  C   LIG A   1      -8.161   2.475 129.873  0.00  0.00    -0.018 C 
ATOM     16  C   LIG A   1      -9.509   3.246 129.928  0.00  0.00    +0.012 C 
ATOM     17  C   LIG A   1      -7.564   2.693 128.441  0.00  0.00    +0.071 C 
ATOM     18  C   LIG A   1      -6.688   3.921 128.656  0.00  0.00    +0.138 C 
ATOM     19  C   LIG A   1      -6.529   4.296 130.104  0.00  0.00    +0.079 C 
ATOM     20  C   LIG A   1      -7.107   3.091 130.856  0.00  0.00    +0.010 C 
ATOM     21  O   LIG A   1      -6.184   4.562 127.740  0.00  0.00    -0.297 OA
ATOM     22  C   LIG A   1      -6.895  -2.012 124.760  0.00  0.00    +0.031 C 
ATOM     23  C   LIG A   1      -7.307  -1.630 123.316  0.00  0.00    +0.019 C 
ATOM     24  C   LIG A   1      -5.449  -2.522 124.699  0.00  0.00    +0.019 C 
ENDROOT
BRANCH   9  25
ATOM     25  O   LIG A   1      -8.437   1.739 125.892  0.00  0.00    -0.461 OA
BRANCH  25  26
ATOM     26  C   LIG A   1      -8.911   2.634 124.997  0.00  0.00    +0.304 C 
ATOM     27  C   LIG A   1      -9.484   1.929 123.812  0.00  0.00    +0.136 C 
ATOM     28  O   LIG A   1      -8.813   3.849 125.093  0.00  0.00    -0.251 OA
ENDBRANCH  25  26
ENDBRANCH   9  25
BRANCH  20  29
ATOM     29  C   LIG A   1      -7.650   3.475 132.257  0.00  0.00    +0.082 C 
BRANCH  29  30
ATOM     30  C   LIG A   1      -7.093   2.627 133.396  0.00  0.00    +0.171 C 
ATOM     31  O   LIG A   1      -7.469   1.466 133.577  0.00  0.00    -0.294 OA
BRANCH  30  32
ATOM     32  C   LIG A   1      -5.962   3.214 134.239  0.00  0.00    +0.306 C 
BRANCH  32  33
ATOM     33  O   LIG A   1      -6.398   3.986 135.360  0.00  0.00    -0.457 OA
BRANCH  33  34
ATOM     34  C   LIG A   1      -6.510   5.327 135.152  0.00  0.00    +0.304 C 
ATOM     35  C   LIG A   1      -7.562   5.920 136.037  0.00  0.00    +0.136 C 
ATOM     36  O   LIG A   1      -5.839   5.983 134.367  0.00  0.00    -0.251 OA
ENDBRANCH  33  34
ENDBRANCH  32  33
ENDBRANCH  30  32
ENDBRANCH  29  30
ENDBRANCH  20  29
TORSDOF 7
ENDMDL
