MODEL 1
REMARK VINA RESULT:      -6.6      0.000      0.000
REMARK  Name = NuBBE_2262
REMARK  8 active torsions:
REMARK  status: ('A' for Active; 'I' for Inactive)
REMARK    1  A    between atoms: C_1  and  C_3
REMARK    2  A    between atoms: C_7  and  C_12
REMARK    3  A    between atoms: C_8  and  O_11
REMARK    4  A    between atoms: C_9  and  O_10
REMARK    5  A    between atoms: C_12  and  C_13
REMARK    6  A    between atoms: C_12  and  C_14
REMARK    7  A    between atoms: C_12  and  O_15
REMARK    8  A    between atoms: C_16  and  C_19
REMARK                            x       y       z     vdW  Elec       q    Type
REMARK                         _______ _______ _______ _____ _____    ______ ____
ROOT
ATOM      1  C   LIG A   1     -11.807   7.422 127.664  0.00  0.00    +0.025 A 
ATOM      2  C   LIG A   1     -10.917   6.922 128.669  0.00  0.00    +0.038 A 
ATOM      3  C   LIG A   1     -11.263   7.144 130.036  0.00  0.00    -0.010 A 
ATOM      4  C   LIG A   1     -10.392   6.663 131.059  0.00  0.00    +0.019 A 
ATOM      5  C   LIG A   1      -9.191   5.966 130.813  0.00  0.00    +0.029 A 
ATOM      6  C   LIG A   1      -8.874   5.766 129.475  0.00  0.00    +0.165 A 
ATOM      7  C   LIG A   1      -9.709   6.216 128.441  0.00  0.00    +0.167 A 
ATOM      8  C   LIG A   1     -12.467   7.836 130.359  0.00  0.00    -0.043 A 
ATOM      9  C   LIG A   1     -13.315   8.295 129.344  0.00  0.00    +0.005 A 
ATOM     10  C   LIG A   1     -12.989   8.089 128.014  0.00  0.00    +0.012 A 
ATOM     11  C   LIG A   1     -12.888   8.107 131.785  0.00  0.00    +0.044 C 
ENDROOT
BRANCH   5  12
ATOM     12  C   LIG A   1      -8.329   5.468 131.972  0.00  0.00    +0.089 C 
ATOM     13  C   LIG A   1      -7.004   6.237 132.059  0.00  0.00    +0.046 C 
ATOM     14  C   LIG A   1      -9.084   5.535 133.308  0.00  0.00    +0.046 C 
BRANCH  12  15
ATOM     15  O   LIG A   1      -7.986   4.084 131.763  0.00  0.00    -0.384 OA
ATOM     16  H   LIG A   1      -8.631   3.550 132.265  0.00  0.00    +0.211 HD
ENDBRANCH  12  15
ENDBRANCH   5  12
BRANCH   1  17
ATOM     17  C   LIG A   1     -11.563   7.306 126.200  0.00  0.00    +0.259 C 
ATOM     18  O   LIG A   1     -10.775   8.044 125.617  0.00  0.00    -0.296 OA
ENDBRANCH   1  17
BRANCH   7  19
ATOM     19  O   LIG A   1      -9.281   5.906 127.173  0.00  0.00    -0.503 OA
ATOM     20  H   LIG A   1     -10.103   5.694 126.680  0.00  0.00    +0.292 HD
ENDBRANCH   7  19
BRANCH   6  21
ATOM     21  O   LIG A   1      -7.736   5.114 129.060  0.00  0.00    -0.503 OA
ATOM     22  H   LIG A   1      -7.738   5.166 128.078  0.00  0.00    +0.292 HD
ENDBRANCH   6  21
TORSDOF 5
ENDMDL
MODEL 2
REMARK VINA RESULT:      -6.5      2.085      6.390
REMARK  Name = NuBBE_2262
REMARK  8 active torsions:
REMARK  status: ('A' for Active; 'I' for Inactive)
REMARK    1  A    between atoms: C_1  and  C_3
REMARK    2  A    between atoms: C_7  and  C_12
REMARK    3  A    between atoms: C_8  and  O_11
REMARK    4  A    between atoms: C_9  and  O_10
REMARK    5  A    between atoms: C_12  and  C_13
REMARK    6  A    between atoms: C_12  and  C_14
REMARK    7  A    between atoms: C_12  and  O_15
REMARK    8  A    between atoms: C_16  and  C_19
REMARK                            x       y       z     vdW  Elec       q    Type
REMARK                         _______ _______ _______ _____ _____    ______ ____
ROOT
ATOM      1  C   LIG A   1      -7.238   5.289 133.514  0.00  0.00    +0.025 A 
ATOM      2  C   LIG A   1      -8.205   5.773 132.574  0.00  0.00    +0.038 A 
ATOM      3  C   LIG A   1      -7.736   6.563 131.481  0.00  0.00    -0.010 A 
ATOM      4  C   LIG A   1      -8.676   7.064 130.533  0.00  0.00    +0.019 A 
ATOM      5  C   LIG A   1     -10.066   6.829 130.595  0.00  0.00    +0.029 A 
ATOM      6  C   LIG A   1     -10.498   6.061 131.669  0.00  0.00    +0.165 A 
ATOM      7  C   LIG A   1      -9.603   5.543 132.617  0.00  0.00    +0.167 A 
ATOM      8  C   LIG A   1      -6.342   6.836 131.352  0.00  0.00    -0.043 A 
ATOM      9  C   LIG A   1      -5.431   6.331 132.287  0.00  0.00    +0.005 A 
ATOM     10  C   LIG A   1      -5.874   5.566 133.352  0.00  0.00    +0.012 A 
ATOM     11  C   LIG A   1      -5.781   7.668 130.223  0.00  0.00    +0.044 C 
ENDROOT
BRANCH   5  12
ATOM     12  C   LIG A   1     -10.998   7.389 129.523  0.00  0.00    +0.089 C 
ATOM     13  C   LIG A   1     -12.125   8.228 130.139  0.00  0.00    +0.046 C 
ATOM     14  C   LIG A   1     -10.228   8.202 128.472  0.00  0.00    +0.046 C 
BRANCH  12  15
ATOM     15  O   LIG A   1     -11.633   6.304 128.817  0.00  0.00    -0.384 OA
ATOM     16  H   LIG A   1     -12.537   6.597 128.592  0.00  0.00    +0.211 HD
ENDBRANCH  12  15
ENDBRANCH   5  12
BRANCH   1  17
ATOM     17  C   LIG A   1      -7.576   4.490 134.724  0.00  0.00    +0.259 C 
ATOM     18  O   LIG A   1      -7.961   5.022 135.761  0.00  0.00    -0.296 OA
ENDBRANCH   1  17
BRANCH   7  19
ATOM     19  O   LIG A   1     -10.178   4.768 133.596  0.00  0.00    -0.503 OA
ATOM     20  H   LIG A   1      -9.592   3.985 133.667  0.00  0.00    +0.292 HD
ENDBRANCH   7  19
BRANCH   6  21
ATOM     21  O   LIG A   1     -11.819   5.745 131.885  0.00  0.00    -0.503 OA
ATOM     22  H   LIG A   1     -12.303   6.043 131.081  0.00  0.00    +0.292 HD
ENDBRANCH   6  21
TORSDOF 5
ENDMDL
MODEL 3
REMARK VINA RESULT:      -6.3      8.266     10.617
REMARK  Name = NuBBE_2262
REMARK  8 active torsions:
REMARK  status: ('A' for Active; 'I' for Inactive)
REMARK    1  A    between atoms: C_1  and  C_3
REMARK    2  A    between atoms: C_7  and  C_12
REMARK    3  A    between atoms: C_8  and  O_11
REMARK    4  A    between atoms: C_9  and  O_10
REMARK    5  A    between atoms: C_12  and  C_13
REMARK    6  A    between atoms: C_12  and  C_14
REMARK    7  A    between atoms: C_12  and  O_15
REMARK    8  A    between atoms: C_16  and  C_19
REMARK                            x       y       z     vdW  Elec       q    Type
REMARK                         _______ _______ _______ _____ _____    ______ ____
ROOT
ATOM      1  C   LIG A   1      -8.595  -2.419 125.162  0.00  0.00    +0.025 A 
ATOM      2  C   LIG A   1      -8.444  -1.109 124.602  0.00  0.00    +0.038 A 
ATOM      3  C   LIG A   1      -7.433  -0.919 123.613  0.00  0.00    -0.010 A 
ATOM      4  C   LIG A   1      -7.255   0.375 123.041  0.00  0.00    +0.019 A 
ATOM      5  C   LIG A   1      -8.025   1.506 123.387  0.00  0.00    +0.029 A 
ATOM      6  C   LIG A   1      -9.000   1.297 124.354  0.00  0.00    +0.165 A 
ATOM      7  C   LIG A   1      -9.210   0.036 124.933  0.00  0.00    +0.167 A 
ATOM      8  C   LIG A   1      -6.620  -2.021 123.210  0.00  0.00    -0.043 A 
ATOM      9  C   LIG A   1      -6.812  -3.287 123.774  0.00  0.00    +0.005 A 
ATOM     10  C   LIG A   1      -7.788  -3.483 124.737  0.00  0.00    +0.012 A 
ATOM     11  C   LIG A   1      -5.531  -1.886 122.172  0.00  0.00    +0.044 C 
ENDROOT
BRANCH   5  12
ATOM     12  C   LIG A   1      -7.778   2.852 122.708  0.00  0.00    +0.089 C 
ATOM     13  C   LIG A   1      -6.341   2.964 122.184  0.00  0.00    +0.046 C 
ATOM     14  C   LIG A   1      -8.788   3.110 121.580  0.00  0.00    +0.046 C 
BRANCH  12  15
ATOM     15  O   LIG A   1      -7.951   3.917 123.664  0.00  0.00    -0.384 OA
ATOM     16  H   LIG A   1      -8.875   3.875 123.977  0.00  0.00    +0.211 HD
ENDBRANCH  12  15
ENDBRANCH   5  12
BRANCH   1  17
ATOM     17  C   LIG A   1      -9.574  -2.763 126.230  0.00  0.00    +0.259 C 
ATOM     18  O   LIG A   1      -9.351  -3.651 127.048  0.00  0.00    -0.296 OA
ENDBRANCH   1  17
BRANCH   7  19
ATOM     19  O   LIG A   1     -10.238  -0.020 125.843  0.00  0.00    -0.503 OA
ATOM     20  H   LIG A   1      -9.850  -0.465 126.627  0.00  0.00    +0.292 HD
ENDBRANCH   7  19
BRANCH   6  21
ATOM     21  O   LIG A   1      -9.830   2.292 124.813  0.00  0.00    -0.503 OA
ATOM     22  H   LIG A   1      -9.758   2.274 125.794  0.00  0.00    +0.292 HD
ENDBRANCH   6  21
TORSDOF 5
ENDMDL
MODEL 4
REMARK VINA RESULT:      -6.2      7.225      9.337
REMARK  Name = NuBBE_2262
REMARK  8 active torsions:
REMARK  status: ('A' for Active; 'I' for Inactive)
REMARK    1  A    between atoms: C_1  and  C_3
REMARK    2  A    between atoms: C_7  and  C_12
REMARK    3  A    between atoms: C_8  and  O_11
REMARK    4  A    between atoms: C_9  and  O_10
REMARK    5  A    between atoms: C_12  and  C_13
REMARK    6  A    between atoms: C_12  and  C_14
REMARK    7  A    between atoms: C_12  and  O_15
REMARK    8  A    between atoms: C_16  and  C_19
REMARK                            x       y       z     vdW  Elec       q    Type
REMARK                         _______ _______ _______ _____ _____    ______ ____
ROOT
ATOM      1  C   LIG A   1      -8.054   0.994 128.647  0.00  0.00    +0.025 A 
ATOM      2  C   LIG A   1      -8.265   0.354 127.383  0.00  0.00    +0.038 A 
ATOM      3  C   LIG A   1      -8.155  -1.068 127.328  0.00  0.00    -0.010 A 
ATOM      4  C   LIG A   1      -8.355  -1.732 126.082  0.00  0.00    +0.019 A 
ATOM      5  C   LIG A   1      -8.664  -1.073 124.874  0.00  0.00    +0.029 A 
ATOM      6  C   LIG A   1      -8.763   0.310 124.951  0.00  0.00    +0.165 A 
ATOM      7  C   LIG A   1      -8.582   0.999 126.161  0.00  0.00    +0.167 A 
ATOM      8  C   LIG A   1      -7.851  -1.800 128.514  0.00  0.00    -0.043 A 
ATOM      9  C   LIG A   1      -7.665  -1.134 129.731  0.00  0.00    +0.005 A 
ATOM     10  C   LIG A   1      -7.767   0.245 129.796  0.00  0.00    +0.012 A 
ATOM     11  C   LIG A   1      -7.716  -3.305 128.523  0.00  0.00    +0.044 C 
ENDROOT
BRANCH   5  12
ATOM     12  C   LIG A   1      -8.882  -1.868 123.588  0.00  0.00    +0.089 C 
ATOM     13  C   LIG A   1      -7.615  -1.900 122.724  0.00  0.00    +0.046 C 
ATOM     14  C   LIG A   1      -9.376  -3.292 123.880  0.00  0.00    +0.046 C 
BRANCH  12  15
ATOM     15  O   LIG A   1      -9.905  -1.235 122.793  0.00  0.00    -0.384 OA
ATOM     16  H   LIG A   1      -9.467  -0.547 122.257  0.00  0.00    +0.211 HD
ENDBRANCH  12  15
ENDBRANCH   5  12
BRANCH   1  17
ATOM     17  C   LIG A   1      -8.093   2.468 128.854  0.00  0.00    +0.259 C 
ATOM     18  O   LIG A   1      -9.154   3.077 128.958  0.00  0.00    -0.296 OA
ENDBRANCH   1  17
BRANCH   7  19
ATOM     19  O   LIG A   1      -8.752   2.361 126.084  0.00  0.00    -0.503 OA
ATOM     20  H   LIG A   1      -9.585   2.476 125.579  0.00  0.00    +0.292 HD
ENDBRANCH   7  19
BRANCH   6  21
ATOM     21  O   LIG A   1      -9.048   1.107 123.867  0.00  0.00    -0.503 OA
ATOM     22  H   LIG A   1      -8.213   1.166 123.348  0.00  0.00    +0.292 HD
ENDBRANCH   6  21
TORSDOF 5
ENDMDL
MODEL 5
REMARK VINA RESULT:      -6.1      9.297     10.908
REMARK  Name = NuBBE_2262
REMARK  8 active torsions:
REMARK  status: ('A' for Active; 'I' for Inactive)
REMARK    1  A    between atoms: C_1  and  C_3
REMARK    2  A    between atoms: C_7  and  C_12
REMARK    3  A    between atoms: C_8  and  O_11
REMARK    4  A    between atoms: C_9  and  O_10
REMARK    5  A    between atoms: C_12  and  C_13
REMARK    6  A    between atoms: C_12  and  C_14
REMARK    7  A    between atoms: C_12  and  O_15
REMARK    8  A    between atoms: C_16  and  C_19
REMARK                            x       y       z     vdW  Elec       q    Type
REMARK                         _______ _______ _______ _____ _____    ______ ____
ROOT
ATOM      1  C   LIG A   1      -6.110  -1.935 128.892  0.00  0.00    +0.025 A 
ATOM      2  C   LIG A   1      -6.653  -1.909 127.567  0.00  0.00    +0.038 A 
ATOM      3  C   LIG A   1      -7.834  -2.670 127.315  0.00  0.00    -0.010 A 
ATOM      4  C   LIG A   1      -8.394  -2.668 126.003  0.00  0.00    +0.019 A 
ATOM      5  C   LIG A   1      -7.857  -1.952 124.913  0.00  0.00    +0.029 A 
ATOM      6  C   LIG A   1      -6.706  -1.222 125.182  0.00  0.00    +0.165 A 
ATOM      7  C   LIG A   1      -6.130  -1.192 126.462  0.00  0.00    +0.167 A 
ATOM      8  C   LIG A   1      -8.436  -3.415 128.373  0.00  0.00    -0.043 A 
ATOM      9  C   LIG A   1      -7.878  -3.399 129.656  0.00  0.00    +0.005 A 
ATOM     10  C   LIG A   1      -6.731  -2.668 129.912  0.00  0.00    +0.012 A 
ATOM     11  C   LIG A   1      -9.683  -4.243 128.171  0.00  0.00    +0.044 C 
ENDROOT
BRANCH   5  12
ATOM     12  C   LIG A   1      -8.535  -1.991 123.546  0.00  0.00    +0.089 C 
ATOM     13  C   LIG A   1      -9.468  -3.202 123.414  0.00  0.00    +0.046 C 
ATOM     14  C   LIG A   1      -9.293  -0.688 123.252  0.00  0.00    +0.046 C 
BRANCH  12  15
ATOM     15  O   LIG A   1      -7.539  -2.127 122.513  0.00  0.00    -0.384 OA
ATOM     16  H   LIG A   1      -7.985  -1.965 121.660  0.00  0.00    +0.211 HD
ENDBRANCH  12  15
ENDBRANCH   5  12
BRANCH   1  17
ATOM     17  C   LIG A   1      -4.863  -1.229 129.298  0.00  0.00    +0.259 C 
ATOM     18  O   LIG A   1      -4.851  -0.025 129.535  0.00  0.00    -0.296 OA
ENDBRANCH   1  17
BRANCH   7  19
ATOM     19  O   LIG A   1      -5.018  -0.392 126.579  0.00  0.00    -0.503 OA
ATOM     20  H   LIG A   1      -4.635  -0.628 127.451  0.00  0.00    +0.292 HD
ENDBRANCH   7  19
BRANCH   6  21
ATOM     21  O   LIG A   1      -6.049  -0.476 124.232  0.00  0.00    -0.503 OA
ATOM     22  H   LIG A   1      -6.709   0.169 123.890  0.00  0.00    +0.292 HD
ENDBRANCH   6  21
TORSDOF 5
ENDMDL
MODEL 6
REMARK VINA RESULT:      -6.1      7.408      9.789
REMARK  Name = NuBBE_2262
REMARK  8 active torsions:
REMARK  status: ('A' for Active; 'I' for Inactive)
REMARK    1  A    between atoms: C_1  and  C_3
REMARK    2  A    between atoms: C_7  and  C_12
REMARK    3  A    between atoms: C_8  and  O_11
REMARK    4  A    between atoms: C_9  and  O_10
REMARK    5  A    between atoms: C_12  and  C_13
REMARK    6  A    between atoms: C_12  and  C_14
REMARK    7  A    between atoms: C_12  and  O_15
REMARK    8  A    between atoms: C_16  and  C_19
REMARK                            x       y       z     vdW  Elec       q    Type
REMARK                         _______ _______ _______ _____ _____    ______ ____
ROOT
ATOM      1  C   LIG A   1      -8.274  -2.463 127.136  0.00  0.00    +0.025 A 
ATOM      2  C   LIG A   1      -8.268  -1.184 126.489  0.00  0.00    +0.038 A 
ATOM      3  C   LIG A   1      -8.475  -1.150 125.078  0.00  0.00    -0.010 A 
ATOM      4  C   LIG A   1      -8.468   0.108 124.405  0.00  0.00    +0.019 A 
ATOM      5  C   LIG A   1      -8.270   1.348 125.048  0.00  0.00    +0.029 A 
ATOM      6  C   LIG A   1      -8.067   1.289 126.421  0.00  0.00    +0.165 A 
ATOM      7  C   LIG A   1      -8.076   0.071 127.119  0.00  0.00    +0.167 A 
ATOM      8  C   LIG A   1      -8.688  -2.366 124.363  0.00  0.00    -0.043 A 
ATOM      9  C   LIG A   1      -8.700  -3.592 125.038  0.00  0.00    +0.005 A 
ATOM     10  C   LIG A   1      -8.497  -3.638 126.407  0.00  0.00    +0.012 A 
ATOM     11  C   LIG A   1      -8.909  -2.399 122.869  0.00  0.00    +0.044 C 
ENDROOT
BRANCH   5  12
ATOM     12  C   LIG A   1      -8.299   2.651 124.251  0.00  0.00    +0.089 C 
ATOM     13  C   LIG A   1      -6.888   3.220 124.051  0.00  0.00    +0.046 C 
ATOM     14  C   LIG A   1      -9.009   2.473 122.901  0.00  0.00    +0.046 C 
BRANCH  12  15
ATOM     15  O   LIG A   1      -9.044   3.649 124.977  0.00  0.00    -0.384 OA
ATOM     16  H   LIG A   1      -8.544   3.844 125.793  0.00  0.00    +0.211 HD
ENDBRANCH  12  15
ENDBRANCH   5  12
BRANCH   1  17
ATOM     17  C   LIG A   1      -8.031  -2.664 128.591  0.00  0.00    +0.259 C 
ATOM     18  O   LIG A   1      -6.900  -2.633 129.067  0.00  0.00    -0.296 OA
ENDBRANCH   1  17
BRANCH   7  19
ATOM     19  O   LIG A   1      -7.902   0.180 128.478  0.00  0.00    -0.503 OA
ATOM     20  H   LIG A   1      -6.931   0.242 128.598  0.00  0.00    +0.292 HD
ENDBRANCH   7  19
BRANCH   6  21
ATOM     21  O   LIG A   1      -7.850   2.402 127.199  0.00  0.00    -0.503 OA
ATOM     22  H   LIG A   1      -8.052   3.176 126.626  0.00  0.00    +0.292 HD
ENDBRANCH   6  21
TORSDOF 5
ENDMDL
MODEL 7
REMARK VINA RESULT:      -6.0      6.902      8.704
REMARK  Name = NuBBE_2262
REMARK  8 active torsions:
REMARK  status: ('A' for Active; 'I' for Inactive)
REMARK    1  A    between atoms: C_1  and  C_3
REMARK    2  A    between atoms: C_7  and  C_12
REMARK    3  A    between atoms: C_8  and  O_11
REMARK    4  A    between atoms: C_9  and  O_10
REMARK    5  A    between atoms: C_12  and  C_13
REMARK    6  A    between atoms: C_12  and  C_14
REMARK    7  A    between atoms: C_12  and  O_15
REMARK    8  A    between atoms: C_16  and  C_19
REMARK                            x       y       z     vdW  Elec       q    Type
REMARK                         _______ _______ _______ _____ _____    ______ ____
ROOT
ATOM      1  C   LIG A   1      -8.943  -0.103 123.107  0.00  0.00    +0.025 A 
ATOM      2  C   LIG A   1      -8.178   0.830 123.880  0.00  0.00    +0.038 A 
ATOM      3  C   LIG A   1      -7.091   0.323 124.654  0.00  0.00    -0.010 A 
ATOM      4  C   LIG A   1      -6.316   1.227 125.438  0.00  0.00    +0.019 A 
ATOM      5  C   LIG A   1      -6.548   2.618 125.504  0.00  0.00    +0.029 A 
ATOM      6  C   LIG A   1      -7.612   3.086 124.745  0.00  0.00    +0.165 A 
ATOM      7  C   LIG A   1      -8.393   2.229 123.954  0.00  0.00    +0.167 A 
ATOM      8  C   LIG A   1      -6.795  -1.073 124.630  0.00  0.00    -0.043 A 
ATOM      9  C   LIG A   1      -7.560  -1.946 123.849  0.00  0.00    +0.005 A 
ATOM     10  C   LIG A   1      -8.619  -1.467 123.097  0.00  0.00    +0.012 A 
ATOM     11  C   LIG A   1      -5.662  -1.673 125.429  0.00  0.00    +0.044 C 
ENDROOT
BRANCH   5  12
ATOM     12  C   LIG A   1      -5.653   3.516 126.356  0.00  0.00    +0.089 C 
ATOM     13  C   LIG A   1      -5.075   2.758 127.558  0.00  0.00    +0.046 C 
ATOM     14  C   LIG A   1      -4.529   4.149 125.522  0.00  0.00    +0.046 C 
BRANCH  12  15
ATOM     15  O   LIG A   1      -6.429   4.606 126.892  0.00  0.00    -0.384 OA
ATOM     16  H   LIG A   1      -5.804   5.325 127.105  0.00  0.00    +0.211 HD
ENDBRANCH  12  15
ENDBRANCH   5  12
BRANCH   1  17
ATOM     17  C   LIG A   1     -10.128   0.266 122.285  0.00  0.00    +0.259 C 
ATOM     18  O   LIG A   1     -11.221   0.495 122.795  0.00  0.00    -0.296 OA
ENDBRANCH   1  17
BRANCH   7  19
ATOM     19  O   LIG A   1      -9.383   2.848 123.230  0.00  0.00    -0.503 OA
ATOM     20  H   LIG A   1      -9.959   2.116 122.923  0.00  0.00    +0.292 HD
ENDBRANCH   7  19
BRANCH   6  21
ATOM     21  O   LIG A   1      -7.981   4.411 124.703  0.00  0.00    -0.503 OA
ATOM     22  H   LIG A   1      -7.159   4.914 124.503  0.00  0.00    +0.292 HD
ENDBRANCH   6  21
TORSDOF 5
ENDMDL
MODEL 8
REMARK VINA RESULT:      -6.0      8.140      9.313
REMARK  Name = NuBBE_2262
REMARK  8 active torsions:
REMARK  status: ('A' for Active; 'I' for Inactive)
REMARK    1  A    between atoms: C_1  and  C_3
REMARK    2  A    between atoms: C_7  and  C_12
REMARK    3  A    between atoms: C_8  and  O_11
REMARK    4  A    between atoms: C_9  and  O_10
REMARK    5  A    between atoms: C_12  and  C_13
REMARK    6  A    between atoms: C_12  and  C_14
REMARK    7  A    between atoms: C_12  and  O_15
REMARK    8  A    between atoms: C_16  and  C_19
REMARK                            x       y       z     vdW  Elec       q    Type
REMARK                         _______ _______ _______ _____ _____    ______ ____
ROOT
ATOM      1  C   LIG A   1      -7.179   2.453 123.419  0.00  0.00    +0.025 A 
ATOM      2  C   LIG A   1      -7.599   1.175 123.913  0.00  0.00    +0.038 A 
ATOM      3  C   LIG A   1      -6.974   0.679 125.097  0.00  0.00    -0.010 A 
ATOM      4  C   LIG A   1      -7.367  -0.592 125.609  0.00  0.00    +0.019 A 
ATOM      5  C   LIG A   1      -8.353  -1.413 125.020  0.00  0.00    +0.029 A 
ATOM      6  C   LIG A   1      -8.944  -0.911 123.868  0.00  0.00    +0.165 A 
ATOM      7  C   LIG A   1      -8.590   0.340 123.339  0.00  0.00    +0.167 A 
ATOM      8  C   LIG A   1      -5.973   1.459 125.749  0.00  0.00    -0.043 A 
ATOM      9  C   LIG A   1      -5.604   2.709 125.239  0.00  0.00    +0.005 A 
ATOM     10  C   LIG A   1      -6.201   3.199 124.089  0.00  0.00    +0.012 A 
ATOM     11  C   LIG A   1      -5.271   0.990 127.002  0.00  0.00    +0.044 C 
ENDROOT
BRANCH   5  12
ATOM     12  C   LIG A   1      -8.726  -2.754 125.649  0.00  0.00    +0.089 C 
ATOM     13  C   LIG A   1      -8.147  -3.930 124.853  0.00  0.00    +0.046 C 
ATOM     14  C   LIG A   1      -8.292  -2.828 127.121  0.00  0.00    +0.046 C 
BRANCH  12  15
ATOM     15  O   LIG A   1     -10.158  -2.915 125.636  0.00  0.00    -0.384 OA
ATOM     16  H   LIG A   1     -10.416  -3.263 126.511  0.00  0.00    +0.211 HD
ENDBRANCH  12  15
ENDBRANCH   5  12
BRANCH   1  17
ATOM     17  C   LIG A   1      -7.706   3.082 122.177  0.00  0.00    +0.259 C 
ATOM     18  O   LIG A   1      -8.862   3.484 122.097  0.00  0.00    -0.296 OA
ENDBRANCH   1  17
BRANCH   7  19
ATOM     19  O   LIG A   1      -9.292   0.716 122.219  0.00  0.00    -0.503 OA
ATOM     20  H   LIG A   1      -9.369  -0.106 121.689  0.00  0.00    +0.292 HD
ENDBRANCH   7  19
BRANCH   6  21
ATOM     21  O   LIG A   1      -9.914  -1.585 123.164  0.00  0.00    -0.503 OA
ATOM     22  H   LIG A   1     -10.408  -0.900 122.659  0.00  0.00    +0.292 HD
ENDBRANCH   6  21
TORSDOF 5
ENDMDL
MODEL 9
REMARK VINA RESULT:      -5.9      8.638     10.227
REMARK  Name = NuBBE_2262
REMARK  8 active torsions:
REMARK  status: ('A' for Active; 'I' for Inactive)
REMARK    1  A    between atoms: C_1  and  C_3
REMARK    2  A    between atoms: C_7  and  C_12
REMARK    3  A    between atoms: C_8  and  O_11
REMARK    4  A    between atoms: C_9  and  O_10
REMARK    5  A    between atoms: C_12  and  C_13
REMARK    6  A    between atoms: C_12  and  C_14
REMARK    7  A    between atoms: C_12  and  O_15
REMARK    8  A    between atoms: C_16  and  C_19
REMARK                            x       y       z     vdW  Elec       q    Type
REMARK                         _______ _______ _______ _____ _____    ______ ____
ROOT
ATOM      1  C   LIG A   1      -7.611  -0.645 123.965  0.00  0.00    +0.025 A 
ATOM      2  C   LIG A   1      -7.158  -1.078 125.253  0.00  0.00    +0.038 A 
ATOM      3  C   LIG A   1      -6.169  -2.105 125.302  0.00  0.00    -0.010 A 
ATOM      4  C   LIG A   1      -5.703  -2.561 126.571  0.00  0.00    +0.019 A 
ATOM      5  C   LIG A   1      -6.156  -2.056 127.808  0.00  0.00    +0.029 A 
ATOM      6  C   LIG A   1      -7.121  -1.060 127.735  0.00  0.00    +0.165 A 
ATOM      7  C   LIG A   1      -7.598  -0.580 126.505  0.00  0.00    +0.167 A 
ATOM      8  C   LIG A   1      -5.661  -2.657 124.089  0.00  0.00    -0.043 A 
ATOM      9  C   LIG A   1      -6.122  -2.194 122.851  0.00  0.00    +0.005 A 
ATOM     10  C   LIG A   1      -7.084  -1.200 122.791  0.00  0.00    +0.012 A 
ATOM     11  C   LIG A   1      -4.617  -3.749 124.072  0.00  0.00    +0.044 C 
ENDROOT
BRANCH   5  12
ATOM     12  C   LIG A   1      -5.586  -2.590 129.121  0.00  0.00    +0.089 C 
ATOM     13  C   LIG A   1      -6.530  -3.610 129.772  0.00  0.00    +0.046 C 
ATOM     14  C   LIG A   1      -4.187  -3.192 128.927  0.00  0.00    +0.046 C 
BRANCH  12  15
ATOM     15  O   LIG A   1      -5.440  -1.508 130.062  0.00  0.00    -0.384 OA
ATOM     16  H   LIG A   1      -5.856  -0.721 129.662  0.00  0.00    +0.211 HD
ENDBRANCH  12  15
ENDBRANCH   5  12
BRANCH   1  17
ATOM     17  C   LIG A   1      -8.666   0.385 123.752  0.00  0.00    +0.259 C 
ATOM     18  O   LIG A   1      -9.857   0.128 123.899  0.00  0.00    -0.296 OA
ENDBRANCH   1  17
BRANCH   7  19
ATOM     19  O   LIG A   1      -8.520   0.435 126.597  0.00  0.00    -0.503 OA
ATOM     20  H   LIG A   1      -8.410   0.786 127.507  0.00  0.00    +0.292 HD
ENDBRANCH   7  19
BRANCH   6  21
ATOM     21  O   LIG A   1      -7.677  -0.467 128.844  0.00  0.00    -0.503 OA
ATOM     22  H   LIG A   1      -8.320   0.196 128.504  0.00  0.00    +0.292 HD
ENDBRANCH   6  21
TORSDOF 5
ENDMDL
