MODEL 1
REMARK VINA RESULT:      -6.8      0.000      0.000
REMARK  Name = NuBBE_1399
REMARK  15 active torsions:
REMARK  status: ('A' for Active; 'I' for Inactive)
REMARK    1  A    between atoms: C_7  and  C_9
REMARK    2  A    between atoms: C_9  and  C_10
REMARK    3  A    between atoms: C_10  and  C_11
REMARK    4  A    between atoms: C_11  and  C_12
REMARK    5  A    between atoms: C_12  and  C_13
REMARK    6  A    between atoms: C_13  and  C_14
REMARK    7  A    between atoms: C_14  and  C_15
REMARK    8  A    between atoms: C_15  and  C_16
REMARK    9  A    between atoms: C_16  and  C_17
REMARK   10  A    between atoms: C_17  and  C_18
REMARK   11  A    between atoms: C_18  and  C_19
REMARK   12  A    between atoms: C_19  and  C_20
REMARK   13  A    between atoms: C_20  and  C_21
REMARK   14  A    between atoms: C_20  and  C_22
REMARK   15  A    between atoms: C_20  and  O_23
REMARK                            x       y       z     vdW  Elec       q    Type
REMARK                         _______ _______ _______ _____ _____    ______ ____
ROOT
ATOM      1  C   LIG A   1      -9.017   0.966 125.385  0.00  0.00    +0.006 C 
ENDROOT
BRANCH   1   2
ATOM      2  C   LIG A   1      -9.418   1.925 124.273  0.00  0.00    +0.053 C 
BRANCH   2   9
ATOM      3  O   LIG A   1      -5.017   3.853 124.654  0.00  0.00    -0.287 OA
ATOM      4  C   LIG A   1      -6.017   3.624 123.940  0.00  0.00    +0.190 A 
ATOM      5  C   LIG A   1      -6.000   3.905 122.497  0.00  0.00    +0.045 A 
ATOM      6  C   LIG A   1      -7.093   3.456 121.731  0.00  0.00    +0.050 A 
ATOM      7  N   LIG A   1      -8.142   2.785 122.353  0.00  0.00    -0.358 N 
ATOM      8  H   LIG A   1      -8.594   2.040 121.781  0.00  0.00    +0.166 HD
ATOM      9  C   LIG A   1      -8.214   2.614 123.704  0.00  0.00    +0.020 A 
ATOM     10  C   LIG A   1      -7.225   3.048 124.549  0.00  0.00    +0.072 A 
ATOM     11  C   LIG A   1      -7.182   3.852 120.394  0.00  0.00    +0.026 A 
ATOM     12  C   LIG A   1      -6.159   4.602 119.807  0.00  0.00    +0.002 A 
ATOM     13  C   LIG A   1      -5.030   4.948 120.555  0.00  0.00    +0.001 A 
ATOM     14  C   LIG A   1      -4.952   4.614 121.902  0.00  0.00    +0.013 A 
ENDBRANCH   2   9
ENDBRANCH   1   2
BRANCH   1  15
ATOM     15  C   LIG A   1      -9.189  -0.476 124.929  0.00  0.00    +0.000 C 
BRANCH  15  16
ATOM     16  C   LIG A   1      -9.044  -0.613 123.419  0.00  0.00    +0.000 C 
BRANCH  16  17
ATOM     17  C   LIG A   1      -8.941  -2.077 122.991  0.00  0.00    -0.000 C 
BRANCH  17  18
ATOM     18  C   LIG A   1      -8.964  -3.155 124.069  0.00  0.00    -0.000 C 
BRANCH  18  19
ATOM     19  C   LIG A   1      -7.646  -3.813 124.436  0.00  0.00    -0.000 C 
BRANCH  19  20
ATOM     20  C   LIG A   1      -6.344  -3.158 123.997  0.00  0.00    -0.000 C 
BRANCH  20  21
ATOM     21  C   LIG A   1      -5.455  -2.451 125.037  0.00  0.00    +0.000 C 
BRANCH  21  22
ATOM     22  C   LIG A   1      -6.090  -1.667 126.202  0.00  0.00    +0.003 C 
BRANCH  22  23
ATOM     23  C   LIG A   1      -6.053  -2.304 127.618  0.00  0.00    +0.034 C 
BRANCH  23  24
ATOM     24  C   LIG A   1      -7.335  -2.299 128.468  0.00  0.00    +0.060 C 
ATOM     25  C   LIG A   1      -8.455  -3.145 127.838  0.00  0.00    +0.041 C 
ATOM     26  C   LIG A   1      -7.105  -2.841 129.872  0.00  0.00    +0.041 C 
BRANCH  24  27
ATOM     27  O   LIG A   1      -7.804  -0.952 128.551  0.00  0.00    -0.389 OA
ATOM     28  H   LIG A   1      -7.032  -0.373 128.674  0.00  0.00    +0.210 HD
ENDBRANCH  24  27
ENDBRANCH  23  24
ENDBRANCH  22  23
ENDBRANCH  21  22
ENDBRANCH  20  21
ENDBRANCH  19  20
ENDBRANCH  18  19
ENDBRANCH  17  18
ENDBRANCH  16  17
ENDBRANCH  15  16
ENDBRANCH   1  15
TORSDOF 13
ENDMDL
MODEL 2
REMARK VINA RESULT:      -6.7      7.381      9.838
REMARK  Name = NuBBE_1399
REMARK  15 active torsions:
REMARK  status: ('A' for Active; 'I' for Inactive)
REMARK    1  A    between atoms: C_7  and  C_9
REMARK    2  A    between atoms: C_9  and  C_10
REMARK    3  A    between atoms: C_10  and  C_11
REMARK    4  A    between atoms: C_11  and  C_12
REMARK    5  A    between atoms: C_12  and  C_13
REMARK    6  A    between atoms: C_13  and  C_14
REMARK    7  A    between atoms: C_14  and  C_15
REMARK    8  A    between atoms: C_15  and  C_16
REMARK    9  A    between atoms: C_16  and  C_17
REMARK   10  A    between atoms: C_17  and  C_18
REMARK   11  A    between atoms: C_18  and  C_19
REMARK   12  A    between atoms: C_19  and  C_20
REMARK   13  A    between atoms: C_20  and  C_21
REMARK   14  A    between atoms: C_20  and  C_22
REMARK   15  A    between atoms: C_20  and  O_23
REMARK                            x       y       z     vdW  Elec       q    Type
REMARK                         _______ _______ _______ _____ _____    ______ ____
ROOT
ATOM      1  C   LIG A   1      -8.345   5.632 132.428  0.00  0.00    +0.006 C 
ENDROOT
BRANCH   1   2
ATOM      2  C   LIG A   1      -8.344   6.657 131.302  0.00  0.00    +0.053 C 
BRANCH   2   9
ATOM      3  O   LIG A   1     -13.143   6.937 131.638  0.00  0.00    -0.287 OA
ATOM      4  C   LIG A   1     -12.133   6.884 130.904  0.00  0.00    +0.190 A 
ATOM      5  C   LIG A   1     -12.236   7.084 129.452  0.00  0.00    +0.045 A 
ATOM      6  C   LIG A   1     -11.037   7.188 128.719  0.00  0.00    +0.050 A 
ATOM      7  N   LIG A   1      -9.816   7.087 129.378  0.00  0.00    -0.358 N 
ATOM      8  H   LIG A   1      -9.050   7.675 128.986  0.00  0.00    +0.166 HD
ATOM      9  C   LIG A   1      -9.712   6.797 130.707  0.00  0.00    +0.020 A 
ATOM     10  C   LIG A   1     -10.814   6.634 131.506  0.00  0.00    +0.072 A 
ATOM     11  C   LIG A   1     -11.106   7.212 127.323  0.00  0.00    +0.026 A 
ATOM     12  C   LIG A   1     -12.342   7.224 126.674  0.00  0.00    +0.002 A 
ATOM     13  C   LIG A   1     -13.524   7.227 127.422  0.00  0.00    +0.001 A 
ATOM     14  C   LIG A   1     -13.475   7.144 128.808  0.00  0.00    +0.013 A 
ENDBRANCH   2   9
ENDBRANCH   1   2
BRANCH   1  15
ATOM     15  C   LIG A   1      -7.005   5.635 133.148  0.00  0.00    +0.000 C 
BRANCH  15  16
ATOM     16  C   LIG A   1      -6.035   4.628 132.543  0.00  0.00    +0.000 C 
BRANCH  16  17
ATOM     17  C   LIG A   1      -5.033   5.302 131.606  0.00  0.00    -0.000 C 
BRANCH  17  18
ATOM     18  C   LIG A   1      -4.676   6.764 131.849  0.00  0.00    -0.000 C 
BRANCH  18  19
ATOM     19  C   LIG A   1      -3.655   7.403 130.926  0.00  0.00    -0.000 C 
BRANCH  19  20
ATOM     20  C   LIG A   1      -2.359   6.661 130.629  0.00  0.00    -0.000 C 
BRANCH  20  21
ATOM     21  C   LIG A   1      -1.910   6.461 129.169  0.00  0.00    +0.000 C 
BRANCH  21  22
ATOM     22  C   LIG A   1      -2.805   5.696 128.175  0.00  0.00    +0.003 C 
BRANCH  22  23
ATOM     23  C   LIG A   1      -3.037   4.180 128.417  0.00  0.00    +0.034 C 
BRANCH  23  24
ATOM     24  C   LIG A   1      -3.059   3.229 127.207  0.00  0.00    +0.060 C 
ATOM     25  C   LIG A   1      -3.981   3.735 126.084  0.00  0.00    +0.041 C 
ATOM     26  C   LIG A   1      -1.679   3.035 126.594  0.00  0.00    +0.041 C 
BRANCH  24  27
ATOM     27  O   LIG A   1      -3.564   1.968 127.647  0.00  0.00    -0.389 OA
ATOM     28  H   LIG A   1      -3.650   2.001 128.615  0.00  0.00    +0.210 HD
ENDBRANCH  24  27
ENDBRANCH  23  24
ENDBRANCH  22  23
ENDBRANCH  21  22
ENDBRANCH  20  21
ENDBRANCH  19  20
ENDBRANCH  18  19
ENDBRANCH  17  18
ENDBRANCH  16  17
ENDBRANCH  15  16
ENDBRANCH   1  15
TORSDOF 13
ENDMDL
MODEL 3
REMARK VINA RESULT:      -6.5      6.100      8.068
REMARK  Name = NuBBE_1399
REMARK  15 active torsions:
REMARK  status: ('A' for Active; 'I' for Inactive)
REMARK    1  A    between atoms: C_7  and  C_9
REMARK    2  A    between atoms: C_9  and  C_10
REMARK    3  A    between atoms: C_10  and  C_11
REMARK    4  A    between atoms: C_11  and  C_12
REMARK    5  A    between atoms: C_12  and  C_13
REMARK    6  A    between atoms: C_13  and  C_14
REMARK    7  A    between atoms: C_14  and  C_15
REMARK    8  A    between atoms: C_15  and  C_16
REMARK    9  A    between atoms: C_16  and  C_17
REMARK   10  A    between atoms: C_17  and  C_18
REMARK   11  A    between atoms: C_18  and  C_19
REMARK   12  A    between atoms: C_19  and  C_20
REMARK   13  A    between atoms: C_20  and  C_21
REMARK   14  A    between atoms: C_20  and  C_22
REMARK   15  A    between atoms: C_20  and  O_23
REMARK                            x       y       z     vdW  Elec       q    Type
REMARK                         _______ _______ _______ _____ _____    ______ ____
ROOT
ATOM      1  C   LIG A   1      -8.407   2.980 133.344  0.00  0.00    +0.006 C 
ENDROOT
BRANCH   1   2
ATOM      2  C   LIG A   1      -9.313   4.135 133.748  0.00  0.00    +0.053 C 
BRANCH   2   9
ATOM      3  O   LIG A   1      -7.532   7.131 130.420  0.00  0.00    -0.287 OA
ATOM      4  C   LIG A   1      -8.537   6.655 130.988  0.00  0.00    +0.190 A 
ATOM      5  C   LIG A   1      -9.893   6.935 130.495  0.00  0.00    +0.045 A 
ATOM      6  C   LIG A   1     -10.961   6.221 131.076  0.00  0.00    +0.050 A 
ATOM      7  N   LIG A   1     -10.704   5.301 132.087  0.00  0.00    -0.358 N 
ATOM      8  H   LIG A   1     -11.329   4.466 132.097  0.00  0.00    +0.166 HD
ATOM      9  C   LIG A   1      -9.464   5.113 132.622  0.00  0.00    +0.020 A 
ATOM     10  C   LIG A   1      -8.361   5.785 132.161  0.00  0.00    +0.072 A 
ATOM     11  C   LIG A   1     -12.268   6.585 130.744  0.00  0.00    +0.026 A 
ATOM     12  C   LIG A   1     -12.508   7.575 129.788  0.00  0.00    +0.002 A 
ATOM     13  C   LIG A   1     -11.435   8.199 129.144  0.00  0.00    +0.001 A 
ATOM     14  C   LIG A   1     -10.128   7.891 129.504  0.00  0.00    +0.013 A 
ENDBRANCH   2   9
ENDBRANCH   1   2
BRANCH   1  15
ATOM     15  C   LIG A   1      -9.152   2.013 132.437  0.00  0.00    +0.000 C 
BRANCH  15  16
ATOM     16  C   LIG A   1      -8.646   2.079 131.002  0.00  0.00    +0.000 C 
BRANCH  16  17
ATOM     17  C   LIG A   1      -8.418   0.685 130.417  0.00  0.00    -0.000 C 
BRANCH  17  18
ATOM     18  C   LIG A   1      -8.328  -0.500 131.372  0.00  0.00    -0.000 C 
BRANCH  18  19
ATOM     19  C   LIG A   1      -7.750  -1.796 130.834  0.00  0.00    -0.000 C 
BRANCH  19  20
ATOM     20  C   LIG A   1      -7.865  -2.097 129.346  0.00  0.00    -0.000 C 
BRANCH  20  21
ATOM     21  C   LIG A   1      -8.250  -3.513 128.880  0.00  0.00    +0.000 C 
BRANCH  21  22
ATOM     22  C   LIG A   1      -8.824  -3.741 127.468  0.00  0.00    +0.003 C 
BRANCH  22  23
ATOM     23  C   LIG A   1      -8.867  -2.533 126.493  0.00  0.00    +0.034 C 
BRANCH  23  24
ATOM     24  C   LIG A   1      -7.981  -2.563 125.235  0.00  0.00    +0.060 C 
ATOM     25  C   LIG A   1      -6.528  -2.159 125.535  0.00  0.00    +0.041 C 
ATOM     26  C   LIG A   1      -7.935  -3.941 124.589  0.00  0.00    +0.041 C 
BRANCH  24  27
ATOM     27  O   LIG A   1      -8.510  -1.620 124.301  0.00  0.00    -0.389 OA
ATOM     28  H   LIG A   1      -8.138  -1.825 123.426  0.00  0.00    +0.210 HD
ENDBRANCH  24  27
ENDBRANCH  23  24
ENDBRANCH  22  23
ENDBRANCH  21  22
ENDBRANCH  20  21
ENDBRANCH  19  20
ENDBRANCH  18  19
ENDBRANCH  17  18
ENDBRANCH  16  17
ENDBRANCH  15  16
ENDBRANCH   1  15
TORSDOF 13
ENDMDL
MODEL 4
REMARK VINA RESULT:      -6.4      6.549      8.476
REMARK  Name = NuBBE_1399
REMARK  15 active torsions:
REMARK  status: ('A' for Active; 'I' for Inactive)
REMARK    1  A    between atoms: C_7  and  C_9
REMARK    2  A    between atoms: C_9  and  C_10
REMARK    3  A    between atoms: C_10  and  C_11
REMARK    4  A    between atoms: C_11  and  C_12
REMARK    5  A    between atoms: C_12  and  C_13
REMARK    6  A    between atoms: C_13  and  C_14
REMARK    7  A    between atoms: C_14  and  C_15
REMARK    8  A    between atoms: C_15  and  C_16
REMARK    9  A    between atoms: C_16  and  C_17
REMARK   10  A    between atoms: C_17  and  C_18
REMARK   11  A    between atoms: C_18  and  C_19
REMARK   12  A    between atoms: C_19  and  C_20
REMARK   13  A    between atoms: C_20  and  C_21
REMARK   14  A    between atoms: C_20  and  C_22
REMARK   15  A    between atoms: C_20  and  O_23
REMARK                            x       y       z     vdW  Elec       q    Type
REMARK                         _______ _______ _______ _____ _____    ______ ____
ROOT
ATOM      1  C   LIG A   1      -9.180   3.666 133.923  0.00  0.00    +0.006 C 
ENDROOT
BRANCH   1   2
ATOM      2  C   LIG A   1      -8.868   5.146 133.747  0.00  0.00    +0.053 C 
BRANCH   2   9
ATOM      3  O   LIG A   1      -8.751   5.983 129.003  0.00  0.00    -0.287 OA
ATOM      4  C   LIG A   1      -9.351   6.123 130.090  0.00  0.00    +0.190 A 
ATOM      5  C   LIG A   1     -10.708   6.685 130.142  0.00  0.00    +0.045 A 
ATOM      6  C   LIG A   1     -11.386   6.645 131.377  0.00  0.00    +0.050 A 
ATOM      7  N   LIG A   1     -10.757   6.096 132.490  0.00  0.00    -0.358 N 
ATOM      8  H   LIG A   1     -11.386   5.597 133.155  0.00  0.00    +0.166 HD
ATOM      9  C   LIG A   1      -9.462   5.669 132.474  0.00  0.00    +0.020 A 
ATOM     10  C   LIG A   1      -8.696   5.701 131.338  0.00  0.00    +0.072 A 
ATOM     11  C   LIG A   1     -12.604   7.318 131.494  0.00  0.00    +0.026 A 
ATOM     12  C   LIG A   1     -13.180   7.941 130.384  0.00  0.00    +0.002 A 
ATOM     13  C   LIG A   1     -12.544   7.879 129.141  0.00  0.00    +0.001 A 
ATOM     14  C   LIG A   1     -11.303   7.265 129.018  0.00  0.00    +0.013 A 
ENDBRANCH   2   9
ENDBRANCH   1   2
BRANCH   1  15
ATOM     15  C   LIG A   1      -7.949   2.825 133.618  0.00  0.00    +0.000 C 
BRANCH  15  16
ATOM     16  C   LIG A   1      -8.250   1.732 132.600  0.00  0.00    +0.000 C 
BRANCH  16  17
ATOM     17  C   LIG A   1      -9.634   1.906 131.975  0.00  0.00    -0.000 C 
BRANCH  17  18
ATOM     18  C   LIG A   1      -9.727   2.401 130.536  0.00  0.00    -0.000 C 
BRANCH  18  19
ATOM     19  C   LIG A   1      -8.461   2.382 129.700  0.00  0.00    -0.000 C 
BRANCH  19  20
ATOM     20  C   LIG A   1      -7.973   1.059 129.126  0.00  0.00    -0.000 C 
BRANCH  20  21
ATOM     21  C   LIG A   1      -8.303   0.690 127.668  0.00  0.00    +0.000 C 
BRANCH  21  22
ATOM     22  C   LIG A   1      -7.787  -0.628 127.059  0.00  0.00    +0.003 C 
BRANCH  22  23
ATOM     23  C   LIG A   1      -8.615  -1.280 125.919  0.00  0.00    +0.034 C 
BRANCH  23  24
ATOM     24  C   LIG A   1      -8.910  -2.789 125.986  0.00  0.00    +0.060 C 
ATOM     25  C   LIG A   1      -8.045  -3.597 125.003  0.00  0.00    +0.041 C 
ATOM     26  C   LIG A   1      -8.667  -3.369 127.373  0.00  0.00    +0.041 C 
BRANCH  24  27
ATOM     27  O   LIG A   1     -10.278  -2.987 125.622  0.00  0.00    -0.389 OA
ATOM     28  H   LIG A   1     -10.515  -3.906 125.838  0.00  0.00    +0.210 HD
ENDBRANCH  24  27
ENDBRANCH  23  24
ENDBRANCH  22  23
ENDBRANCH  21  22
ENDBRANCH  20  21
ENDBRANCH  19  20
ENDBRANCH  18  19
ENDBRANCH  17  18
ENDBRANCH  16  17
ENDBRANCH  15  16
ENDBRANCH   1  15
TORSDOF 13
ENDMDL
MODEL 5
REMARK VINA RESULT:      -6.4      1.249      2.123
REMARK  Name = NuBBE_1399
REMARK  15 active torsions:
REMARK  status: ('A' for Active; 'I' for Inactive)
REMARK    1  A    between atoms: C_7  and  C_9
REMARK    2  A    between atoms: C_9  and  C_10
REMARK    3  A    between atoms: C_10  and  C_11
REMARK    4  A    between atoms: C_11  and  C_12
REMARK    5  A    between atoms: C_12  and  C_13
REMARK    6  A    between atoms: C_13  and  C_14
REMARK    7  A    between atoms: C_14  and  C_15
REMARK    8  A    between atoms: C_15  and  C_16
REMARK    9  A    between atoms: C_16  and  C_17
REMARK   10  A    between atoms: C_17  and  C_18
REMARK   11  A    between atoms: C_18  and  C_19
REMARK   12  A    between atoms: C_19  and  C_20
REMARK   13  A    between atoms: C_20  and  C_21
REMARK   14  A    between atoms: C_20  and  C_22
REMARK   15  A    between atoms: C_20  and  O_23
REMARK                            x       y       z     vdW  Elec       q    Type
REMARK                         _______ _______ _______ _____ _____    ______ ____
ROOT
ATOM      1  C   LIG A   1      -7.666   2.088 125.084  0.00  0.00    +0.006 C 
ENDROOT
BRANCH   1   2
ATOM      2  C   LIG A   1      -8.490   2.599 123.910  0.00  0.00    +0.053 C 
BRANCH   2   9
ATOM      3  O   LIG A   1      -4.320   4.522 122.448  0.00  0.00    -0.287 OA
ATOM      4  C   LIG A   1      -5.511   4.250 122.188  0.00  0.00    +0.190 A 
ATOM      5  C   LIG A   1      -6.053   4.430 120.833  0.00  0.00    +0.045 A 
ATOM      6  C   LIG A   1      -7.348   3.935 120.576  0.00  0.00    +0.050 A 
ATOM      7  N   LIG A   1      -8.063   3.315 121.596  0.00  0.00    -0.358 N 
ATOM      8  H   LIG A   1      -8.684   2.536 121.291  0.00  0.00    +0.166 HD
ATOM      9  C   LIG A   1      -7.610   3.239 122.880  0.00  0.00    +0.020 A 
ATOM     10  C   LIG A   1      -6.383   3.725 123.250  0.00  0.00    +0.072 A 
ATOM     11  C   LIG A   1      -7.949   4.238 119.352  0.00  0.00    +0.026 A 
ATOM     12  C   LIG A   1      -7.245   4.940 118.370  0.00  0.00    +0.002 A 
ATOM     13  C   LIG A   1      -5.923   5.330 118.604  0.00  0.00    +0.001 A 
ATOM     14  C   LIG A   1      -5.329   5.090 119.837  0.00  0.00    +0.013 A 
ENDBRANCH   2   9
ENDBRANCH   1   2
BRANCH   1  15
ATOM     15  C   LIG A   1      -7.716   0.568 125.146  0.00  0.00    +0.000 C 
BRANCH  15  16
ATOM     16  C   LIG A   1      -6.599  -0.069 124.330  0.00  0.00    +0.000 C 
BRANCH  16  17
ATOM     17  C   LIG A   1      -5.868  -1.153 125.122  0.00  0.00    -0.000 C 
BRANCH  17  18
ATOM     18  C   LIG A   1      -5.432  -2.419 124.395  0.00  0.00    -0.000 C 
BRANCH  18  19
ATOM     19  C   LIG A   1      -6.486  -3.479 124.130  0.00  0.00    -0.000 C 
BRANCH  19  20
ATOM     20  C   LIG A   1      -7.946  -3.158 124.416  0.00  0.00    -0.000 C 
BRANCH  20  21
ATOM     21  C   LIG A   1      -8.591  -3.637 125.730  0.00  0.00    +0.000 C 
BRANCH  21  22
ATOM     22  C   LIG A   1      -8.631  -2.714 126.963  0.00  0.00    +0.003 C 
BRANCH  22  23
ATOM     23  C   LIG A   1      -7.662  -3.019 128.137  0.00  0.00    +0.034 C 
BRANCH  23  24
ATOM     24  C   LIG A   1      -7.143  -1.851 128.994  0.00  0.00    +0.060 C 
ATOM     25  C   LIG A   1      -7.846  -1.773 130.360  0.00  0.00    +0.041 C 
ATOM     26  C   LIG A   1      -5.648  -1.950 129.268  0.00  0.00    +0.041 C 
BRANCH  24  27
ATOM     27  O   LIG A   1      -7.417  -0.636 128.295  0.00  0.00    -0.389 OA
ATOM     28  H   LIG A   1      -8.036  -0.113 128.834  0.00  0.00    +0.210 HD
ENDBRANCH  24  27
ENDBRANCH  23  24
ENDBRANCH  22  23
ENDBRANCH  21  22
ENDBRANCH  20  21
ENDBRANCH  19  20
ENDBRANCH  18  19
ENDBRANCH  17  18
ENDBRANCH  16  17
ENDBRANCH  15  16
ENDBRANCH   1  15
TORSDOF 13
ENDMDL
MODEL 6
REMARK VINA RESULT:      -6.3     13.418     15.522
REMARK  Name = NuBBE_1399
REMARK  15 active torsions:
REMARK  status: ('A' for Active; 'I' for Inactive)
REMARK    1  A    between atoms: C_7  and  C_9
REMARK    2  A    between atoms: C_9  and  C_10
REMARK    3  A    between atoms: C_10  and  C_11
REMARK    4  A    between atoms: C_11  and  C_12
REMARK    5  A    between atoms: C_12  and  C_13
REMARK    6  A    between atoms: C_13  and  C_14
REMARK    7  A    between atoms: C_14  and  C_15
REMARK    8  A    between atoms: C_15  and  C_16
REMARK    9  A    between atoms: C_16  and  C_17
REMARK   10  A    between atoms: C_17  and  C_18
REMARK   11  A    between atoms: C_18  and  C_19
REMARK   12  A    between atoms: C_19  and  C_20
REMARK   13  A    between atoms: C_20  and  C_21
REMARK   14  A    between atoms: C_20  and  C_22
REMARK   15  A    between atoms: C_20  and  O_23
REMARK                            x       y       z     vdW  Elec       q    Type
REMARK                         _______ _______ _______ _____ _____    ______ ____
ROOT
ATOM      1  C   LIG A   1      -7.208   5.322 135.193  0.00  0.00    +0.006 C 
ENDROOT
BRANCH   1   2
ATOM      2  C   LIG A   1      -8.454   4.713 134.564  0.00  0.00    +0.053 C 
BRANCH   2   9
ATOM      3  O   LIG A   1      -7.349   6.886 130.407  0.00  0.00    -0.287 OA
ATOM      4  C   LIG A   1      -8.228   6.568 131.237  0.00  0.00    +0.190 A 
ATOM      5  C   LIG A   1      -9.655   6.774 130.949  0.00  0.00    +0.045 A 
ATOM      6  C   LIG A   1     -10.589   6.229 131.853  0.00  0.00    +0.050 A 
ATOM      7  N   LIG A   1     -10.140   5.537 132.974  0.00  0.00    -0.358 N 
ATOM      8  H   LIG A   1     -10.742   4.741 133.274  0.00  0.00    +0.166 HD
ATOM      9  C   LIG A   1      -8.820   5.434 133.302  0.00  0.00    +0.020 A 
ATOM     10  C   LIG A   1      -7.829   5.963 132.516  0.00  0.00    +0.072 A 
ATOM     11  C   LIG A   1     -11.939   6.550 131.694  0.00  0.00    +0.026 A 
ATOM     12  C   LIG A   1     -12.363   7.320 130.608  0.00  0.00    +0.002 A 
ATOM     13  C   LIG A   1     -11.433   7.764 129.663  0.00  0.00    +0.001 A 
ATOM     14  C   LIG A   1     -10.079   7.505 129.836  0.00  0.00    +0.013 A 
ENDBRANCH   2   9
ENDBRANCH   1   2
BRANCH   1  15
ATOM     15  C   LIG A   1      -7.489   5.738 136.630  0.00  0.00    +0.000 C 
BRANCH  15  16
ATOM     16  C   LIG A   1      -7.706   7.240 136.752  0.00  0.00    +0.000 C 
BRANCH  16  17
ATOM     17  C   LIG A   1      -8.854   7.570 137.706  0.00  0.00    -0.000 C 
BRANCH  17  18
ATOM     18  C   LIG A   1      -9.795   8.715 137.346  0.00  0.00    -0.000 C 
BRANCH  18  19
ATOM     19  C   LIG A   1     -10.241   9.639 138.465  0.00  0.00    -0.000 C 
BRANCH  19  20
ATOM     20  C   LIG A   1      -9.193  10.429 139.235  0.00  0.00    -0.000 C 
BRANCH  20  21
ATOM     21  C   LIG A   1      -9.369  10.663 140.747  0.00  0.00    +0.000 C 
BRANCH  21  22
ATOM     22  C   LIG A   1     -10.072  11.933 141.264  0.00  0.00    +0.003 C 
BRANCH  22  23
ATOM     23  C   LIG A   1     -10.553  12.978 140.221  0.00  0.00    +0.034 C 
BRANCH  23  24
ATOM     24  C   LIG A   1      -9.889  14.366 140.202  0.00  0.00    +0.060 C 
ATOM     25  C   LIG A   1      -8.355  14.279 140.139  0.00  0.00    +0.041 C 
ATOM     26  C   LIG A   1     -10.336  15.208 139.013  0.00  0.00    +0.041 C 
BRANCH  24  27
ATOM     27  O   LIG A   1     -10.236  15.038 141.414  0.00  0.00    -0.389 OA
ATOM     28  H   LIG A   1     -11.109  15.449 141.290  0.00  0.00    +0.210 HD
ENDBRANCH  24  27
ENDBRANCH  23  24
ENDBRANCH  22  23
ENDBRANCH  21  22
ENDBRANCH  20  21
ENDBRANCH  19  20
ENDBRANCH  18  19
ENDBRANCH  17  18
ENDBRANCH  16  17
ENDBRANCH  15  16
ENDBRANCH   1  15
TORSDOF 13
ENDMDL
MODEL 7
REMARK VINA RESULT:      -6.2      5.794      7.702
REMARK  Name = NuBBE_1399
REMARK  15 active torsions:
REMARK  status: ('A' for Active; 'I' for Inactive)
REMARK    1  A    between atoms: C_7  and  C_9
REMARK    2  A    between atoms: C_9  and  C_10
REMARK    3  A    between atoms: C_10  and  C_11
REMARK    4  A    between atoms: C_11  and  C_12
REMARK    5  A    between atoms: C_12  and  C_13
REMARK    6  A    between atoms: C_13  and  C_14
REMARK    7  A    between atoms: C_14  and  C_15
REMARK    8  A    between atoms: C_15  and  C_16
REMARK    9  A    between atoms: C_16  and  C_17
REMARK   10  A    between atoms: C_17  and  C_18
REMARK   11  A    between atoms: C_18  and  C_19
REMARK   12  A    between atoms: C_19  and  C_20
REMARK   13  A    between atoms: C_20  and  C_21
REMARK   14  A    between atoms: C_20  and  C_22
REMARK   15  A    between atoms: C_20  and  O_23
REMARK                            x       y       z     vdW  Elec       q    Type
REMARK                         _______ _______ _______ _____ _____    ______ ____
ROOT
ATOM      1  C   LIG A   1      -7.744   4.004 129.878  0.00  0.00    +0.006 C 
ENDROOT
BRANCH   1   2
ATOM      2  C   LIG A   1      -8.304   4.655 131.135  0.00  0.00    +0.053 C 
BRANCH   2   9
ATOM      3  O   LIG A   1     -12.546   6.703 132.152  0.00  0.00    -0.287 OA
ATOM      4  C   LIG A   1     -11.629   6.518 131.323  0.00  0.00    +0.190 A 
ATOM      5  C   LIG A   1     -11.593   7.257 130.053  0.00  0.00    +0.045 A 
ATOM      6  C   LIG A   1     -10.438   7.129 129.255  0.00  0.00    +0.050 A 
ATOM      7  N   LIG A   1      -9.395   6.311 129.679  0.00  0.00    -0.358 N 
ATOM      8  H   LIG A   1      -8.441   6.639 129.418  0.00  0.00    +0.166 HD
ATOM      9  C   LIG A   1      -9.466   5.542 130.803  0.00  0.00    +0.020 A 
ATOM     10  C   LIG A   1     -10.559   5.558 131.630  0.00  0.00    +0.072 A 
ATOM     11  C   LIG A   1     -10.446   7.685 127.973  0.00  0.00    +0.026 A 
ATOM     12  C   LIG A   1     -11.541   8.430 127.529  0.00  0.00    +0.002 A 
ATOM     13  C   LIG A   1     -12.634   8.637 128.376  0.00  0.00    +0.001 A 
ATOM     14  C   LIG A   1     -12.670   8.042 129.632  0.00  0.00    +0.013 A 
ENDBRANCH   2   9
ENDBRANCH   1   2
BRANCH   1  15
ATOM     15  C   LIG A   1      -8.539   2.754 129.529  0.00  0.00    +0.000 C 
BRANCH  15  16
ATOM     16  C   LIG A   1      -8.493   1.723 130.649  0.00  0.00    +0.000 C 
BRANCH  16  17
ATOM     17  C   LIG A   1      -7.820   0.427 130.198  0.00  0.00    -0.000 C 
BRANCH  17  18
ATOM     18  C   LIG A   1      -8.281  -0.888 130.817  0.00  0.00    -0.000 C 
BRANCH  18  19
ATOM     19  C   LIG A   1      -7.397  -2.107 130.623  0.00  0.00    -0.000 C 
BRANCH  19  20
ATOM     20  C   LIG A   1      -7.783  -3.142 129.577  0.00  0.00    -0.000 C 
BRANCH  20  21
ATOM     21  C   LIG A   1      -8.148  -2.689 128.151  0.00  0.00    +0.000 C 
BRANCH  21  22
ATOM     22  C   LIG A   1      -8.859  -3.654 127.182  0.00  0.00    +0.003 C 
BRANCH  22  23
ATOM     23  C   LIG A   1      -9.546  -3.054 125.926  0.00  0.00    +0.034 C 
BRANCH  23  24
ATOM     24  C   LIG A   1      -8.725  -2.901 124.633  0.00  0.00    +0.060 C 
ATOM     25  C   LIG A   1      -7.532  -3.869 124.582  0.00  0.00    +0.041 C 
ATOM     26  C   LIG A   1      -9.557  -3.153 123.383  0.00  0.00    +0.041 C 
BRANCH  24  27
ATOM     27  O   LIG A   1      -8.206  -1.570 124.596  0.00  0.00    -0.389 OA
ATOM     28  H   LIG A   1      -7.373  -1.560 125.099  0.00  0.00    +0.210 HD
ENDBRANCH  24  27
ENDBRANCH  23  24
ENDBRANCH  22  23
ENDBRANCH  21  22
ENDBRANCH  20  21
ENDBRANCH  19  20
ENDBRANCH  18  19
ENDBRANCH  17  18
ENDBRANCH  16  17
ENDBRANCH  15  16
ENDBRANCH   1  15
TORSDOF 13
ENDMDL
MODEL 8
REMARK VINA RESULT:      -6.2      2.660      6.732
REMARK  Name = NuBBE_1399
REMARK  15 active torsions:
REMARK  status: ('A' for Active; 'I' for Inactive)
REMARK    1  A    between atoms: C_7  and  C_9
REMARK    2  A    between atoms: C_9  and  C_10
REMARK    3  A    between atoms: C_10  and  C_11
REMARK    4  A    between atoms: C_11  and  C_12
REMARK    5  A    between atoms: C_12  and  C_13
REMARK    6  A    between atoms: C_13  and  C_14
REMARK    7  A    between atoms: C_14  and  C_15
REMARK    8  A    between atoms: C_15  and  C_16
REMARK    9  A    between atoms: C_16  and  C_17
REMARK   10  A    between atoms: C_17  and  C_18
REMARK   11  A    between atoms: C_18  and  C_19
REMARK   12  A    between atoms: C_19  and  C_20
REMARK   13  A    between atoms: C_20  and  C_21
REMARK   14  A    between atoms: C_20  and  C_22
REMARK   15  A    between atoms: C_20  and  O_23
REMARK                            x       y       z     vdW  Elec       q    Type
REMARK                         _______ _______ _______ _____ _____    ______ ____
ROOT
ATOM      1  C   LIG A   1      -8.231  -2.874 128.871  0.00  0.00    +0.006 C 
ENDROOT
BRANCH   1   2
ATOM      2  C   LIG A   1      -8.875  -3.739 127.797  0.00  0.00    +0.053 C 
BRANCH   2   9
ATOM      3  O   LIG A   1      -9.823  -1.781 123.497  0.00  0.00    -0.287 OA
ATOM      4  C   LIG A   1      -8.994  -2.334 124.251  0.00  0.00    +0.190 A 
ATOM      5  C   LIG A   1      -7.577  -2.437 123.877  0.00  0.00    +0.045 A 
ATOM      6  C   LIG A   1      -6.676  -2.910 124.851  0.00  0.00    +0.050 A 
ATOM      7  N   LIG A   1      -7.149  -3.271 126.109  0.00  0.00    -0.358 N 
ATOM      8  H   LIG A   1      -6.497  -3.080 126.900  0.00  0.00    +0.166 HD
ATOM      9  C   LIG A   1      -8.474  -3.278 126.429  0.00  0.00    +0.020 A 
ATOM     10  C   LIG A   1      -9.441  -2.877 125.543  0.00  0.00    +0.072 A 
ATOM     11  C   LIG A   1      -5.357  -3.174 124.472  0.00  0.00    +0.026 A 
ATOM     12  C   LIG A   1      -4.921  -2.887 123.176  0.00  0.00    +0.002 A 
ATOM     13  C   LIG A   1      -5.803  -2.318 122.252  0.00  0.00    +0.001 A 
ATOM     14  C   LIG A   1      -7.133  -2.104 122.594  0.00  0.00    +0.013 A 
ENDBRANCH   2   9
ENDBRANCH   1   2
BRANCH   1  15
ATOM     15  C   LIG A   1      -7.194  -3.675 129.646  0.00  0.00    +0.000 C 
BRANCH  15  16
ATOM     16  C   LIG A   1      -5.951  -2.848 129.949  0.00  0.00    +0.000 C 
BRANCH  16  17
ATOM     17  C   LIG A   1      -5.349  -2.246 128.679  0.00  0.00    -0.000 C 
BRANCH  17  18
ATOM     18  C   LIG A   1      -5.419  -0.736 128.484  0.00  0.00    -0.000 C 
BRANCH  18  19
ATOM     19  C   LIG A   1      -5.794  -0.220 127.106  0.00  0.00    -0.000 C 
BRANCH  19  20
ATOM     20  C   LIG A   1      -5.129   1.045 126.584  0.00  0.00    -0.000 C 
BRANCH  20  21
ATOM     21  C   LIG A   1      -5.992   2.265 126.210  0.00  0.00    +0.000 C 
BRANCH  21  22
ATOM     22  C   LIG A   1      -5.707   3.058 124.920  0.00  0.00    +0.003 C 
BRANCH  22  23
ATOM     23  C   LIG A   1      -6.906   3.718 124.187  0.00  0.00    +0.034 C 
BRANCH  23  24
ATOM     24  C   LIG A   1      -8.090   2.834 123.755  0.00  0.00    +0.060 C 
ATOM     25  C   LIG A   1      -8.536   3.121 122.311  0.00  0.00    +0.041 C 
ATOM     26  C   LIG A   1      -7.765   1.348 123.833  0.00  0.00    +0.041 C 
BRANCH  24  27
ATOM     27  O   LIG A   1      -9.193   3.123 124.615  0.00  0.00    -0.389 OA
ATOM     28  H   LIG A   1      -9.209   4.083 124.769  0.00  0.00    +0.210 HD
ENDBRANCH  24  27
ENDBRANCH  23  24
ENDBRANCH  22  23
ENDBRANCH  21  22
ENDBRANCH  20  21
ENDBRANCH  19  20
ENDBRANCH  18  19
ENDBRANCH  17  18
ENDBRANCH  16  17
ENDBRANCH  15  16
ENDBRANCH   1  15
TORSDOF 13
ENDMDL
MODEL 9
REMARK VINA RESULT:      -6.2      4.497      8.032
REMARK  Name = NuBBE_1399
REMARK  15 active torsions:
REMARK  status: ('A' for Active; 'I' for Inactive)
REMARK    1  A    between atoms: C_7  and  C_9
REMARK    2  A    between atoms: C_9  and  C_10
REMARK    3  A    between atoms: C_10  and  C_11
REMARK    4  A    between atoms: C_11  and  C_12
REMARK    5  A    between atoms: C_12  and  C_13
REMARK    6  A    between atoms: C_13  and  C_14
REMARK    7  A    between atoms: C_14  and  C_15
REMARK    8  A    between atoms: C_15  and  C_16
REMARK    9  A    between atoms: C_16  and  C_17
REMARK   10  A    between atoms: C_17  and  C_18
REMARK   11  A    between atoms: C_18  and  C_19
REMARK   12  A    between atoms: C_19  and  C_20
REMARK   13  A    between atoms: C_20  and  C_21
REMARK   14  A    between atoms: C_20  and  C_22
REMARK   15  A    between atoms: C_20  and  O_23
REMARK                            x       y       z     vdW  Elec       q    Type
REMARK                         _______ _______ _______ _____ _____    ______ ____
ROOT
ATOM      1  C   LIG A   1      -7.087  -3.275 129.852  0.00  0.00    +0.006 C 
ENDROOT
BRANCH   1   2
ATOM      2  C   LIG A   1      -8.316  -3.297 128.954  0.00  0.00    +0.053 C 
BRANCH   2   9
ATOM      3  O   LIG A   1      -5.440  -1.184 125.715  0.00  0.00    -0.287 OA
ATOM      4  C   LIG A   1      -6.517  -1.772 125.953  0.00  0.00    +0.190 A 
ATOM      5  C   LIG A   1      -7.409  -2.195 124.865  0.00  0.00    +0.045 A 
ATOM      6  C   LIG A   1      -8.511  -3.007 125.201  0.00  0.00    +0.050 A 
ATOM      7  N   LIG A   1      -8.723  -3.364 126.529  0.00  0.00    -0.358 N 
ATOM      8  H   LIG A   1      -9.131  -4.313 126.673  0.00  0.00    +0.166 HD
ATOM      9  C   LIG A   1      -7.962  -2.890 127.555  0.00  0.00    +0.020 A 
ATOM     10  C   LIG A   1      -6.890  -2.060 127.346  0.00  0.00    +0.072 A 
ATOM     11  C   LIG A   1      -9.463  -3.284 124.216  0.00  0.00    +0.026 A 
ATOM     12  C   LIG A   1      -9.276  -2.841 122.904  0.00  0.00    +0.002 A 
ATOM     13  C   LIG A   1      -8.123  -2.127 122.566  0.00  0.00    +0.001 A 
ATOM     14  C   LIG A   1      -7.195  -1.791 123.544  0.00  0.00    +0.013 A 
ENDBRANCH   2   9
ENDBRANCH   1   2
BRANCH   1  15
ATOM     15  C   LIG A   1      -7.477  -2.907 131.276  0.00  0.00    +0.000 C 
BRANCH  15  16
ATOM     16  C   LIG A   1      -6.768  -1.645 131.749  0.00  0.00    +0.000 C 
BRANCH  16  17
ATOM     17  C   LIG A   1      -7.034  -0.463 130.817  0.00  0.00    -0.000 C 
BRANCH  17  18
ATOM     18  C   LIG A   1      -8.458   0.069 130.702  0.00  0.00    -0.000 C 
BRANCH  18  19
ATOM     19  C   LIG A   1      -9.158   0.491 131.981  0.00  0.00    -0.000 C 
BRANCH  19  20
ATOM     20  C   LIG A   1      -9.711   1.906 132.089  0.00  0.00    -0.000 C 
BRANCH  20  21
ATOM     21  C   LIG A   1      -8.980   3.068 131.393  0.00  0.00    +0.000 C 
BRANCH  21  22
ATOM     22  C   LIG A   1      -9.645   3.822 130.225  0.00  0.00    +0.003 C 
BRANCH  22  23
ATOM     23  C   LIG A   1     -11.080   4.376 130.437  0.00  0.00    +0.034 C 
BRANCH  23  24
ATOM     24  C   LIG A   1     -11.262   5.877 130.725  0.00  0.00    +0.060 C 
ATOM     25  C   LIG A   1      -9.918   6.605 130.894  0.00  0.00    +0.041 C 
ATOM     26  C   LIG A   1     -12.020   6.595 129.616  0.00  0.00    +0.041 C 
BRANCH  24  27
ATOM     27  O   LIG A   1     -11.982   6.006 131.952  0.00  0.00    -0.389 OA
ATOM     28  H   LIG A   1     -12.120   6.954 132.120  0.00  0.00    +0.210 HD
ENDBRANCH  24  27
ENDBRANCH  23  24
ENDBRANCH  22  23
ENDBRANCH  21  22
ENDBRANCH  20  21
ENDBRANCH  19  20
ENDBRANCH  18  19
ENDBRANCH  17  18
ENDBRANCH  16  17
ENDBRANCH  15  16
ENDBRANCH   1  15
TORSDOF 13
ENDMDL
