MODEL 1
REMARK VINA RESULT:      -7.3      0.000      0.000
REMARK  Name = NuBBE_205
REMARK  11 active torsions:
REMARK  status: ('A' for Active; 'I' for Inactive)
REMARK    1  A    between atoms: O_1  and  C_2
REMARK    2  A    between atoms: C_2  and  C_3
REMARK    3  A    between atoms: C_8  and  C_9
REMARK    4  A    between atoms: C_9  and  O_10
REMARK    5  A    between atoms: C_15  and  O_17
REMARK    6  A    between atoms: O_17  and  C_18
REMARK    7  A    between atoms: C_21  and  C_23
REMARK    8  A    between atoms: C_23  and  O_24
REMARK    9  A    between atoms: C_25  and  O_27
REMARK   10  A    between atoms: C_28  and  O_30
REMARK   11  A    between atoms: C_31  and  O_33
REMARK                            x       y       z     vdW  Elec       q    Type
REMARK                         _______ _______ _______ _____ _____    ______ ____
ROOT
ATOM      1  C   LIG A   1      -7.067   3.614 121.522  0.00  0.00    +0.075 C 
ATOM      2  C   LIG A   1      -6.117   3.190 122.620  0.00  0.00    +0.046 C 
ATOM      3  C   LIG A   1      -6.880   2.696 123.879  0.00  0.00    +0.093 C 
ATOM      4  C   LIG A   1      -6.903   3.933 124.764  0.00  0.00    -0.039 C 
ATOM      5  C   LIG A   1      -6.000   4.834 124.352  0.00  0.00    -0.024 C 
ATOM      6  C   LIG A   1      -5.258   4.366 123.141  0.00  0.00    +0.036 C 
ATOM      7  C   LIG A   1      -8.399   3.517 121.659  0.00  0.00    +0.201 C 
ATOM      8  O   LIG A   1      -9.055   2.964 122.725  0.00  0.00    -0.470 OA
ATOM      9  C   LIG A   1      -8.248   2.080 123.519  0.00  0.00    +0.317 C 
ENDROOT
BRANCH   1  10
ATOM     10  C   LIG A   1      -6.516   4.125 120.253  0.00  0.00    +0.336 C 
ATOM     11  O   LIG A   1      -5.343   4.407 120.047  0.00  0.00    -0.245 OA
BRANCH  10  12
ATOM     12  O   LIG A   1      -7.448   4.297 119.301  0.00  0.00    -0.477 OA
ATOM     13  H   LIG A   1      -7.428   3.469 118.781  0.00  0.00    +0.295 HD
ENDBRANCH  10  12
ENDBRANCH   1  10
BRANCH   4  14
ATOM     14  C   LIG A   1      -7.793   4.070 125.949  0.00  0.00    +0.187 C 
BRANCH  14  15
ATOM     15  O   LIG A   1      -9.041   4.600 125.539  0.00  0.00    -0.391 OA
ATOM     16  H   LIG A   1      -8.862   5.158 124.761  0.00  0.00    +0.210 HD
ENDBRANCH  14  15
ENDBRANCH   4  14
BRANCH   9  17
ATOM     17  O   LIG A   1      -8.038   0.820 122.855  0.00  0.00    -0.309 OA
BRANCH  17  18
ATOM     18  C   LIG A   1      -7.687  -0.237 123.764  0.00  0.00    +0.286 C 
ATOM     19  O   LIG A   1      -6.709  -1.079 123.138  0.00  0.00    -0.340 OA
ATOM     20  C   LIG A   1      -6.390  -2.241 123.913  0.00  0.00    +0.178 C 
ATOM     21  C   LIG A   1      -7.614  -3.154 123.948  0.00  0.00    +0.177 C 
ATOM     22  C   LIG A   1      -8.732  -2.416 124.676  0.00  0.00    +0.179 C 
ATOM     23  C   LIG A   1      -8.989  -1.014 124.114  0.00  0.00    +0.201 C 
BRANCH  21  24
ATOM     24  O   LIG A   1      -7.369  -4.393 124.621  0.00  0.00    -0.387 OA
ATOM     25  H   LIG A   1      -6.933  -5.007 124.002  0.00  0.00    +0.210 HD
ENDBRANCH  21  24
BRANCH  22  26
ATOM     26  O   LIG A   1      -9.953  -3.176 124.618  0.00  0.00    -0.386 OA
ATOM     27  H   LIG A   1      -9.730  -4.086 124.897  0.00  0.00    +0.210 HD
ENDBRANCH  22  26
BRANCH  23  28
ATOM     28  O   LIG A   1      -9.763  -0.304 125.102  0.00  0.00    -0.384 OA
ATOM     29  H   LIG A   1      -9.379  -0.561 125.965  0.00  0.00    +0.210 HD
ENDBRANCH  23  28
BRANCH  20  30
ATOM     30  C   LIG A   1      -5.185  -2.943 123.280  0.00  0.00    +0.190 C 
BRANCH  30  31
ATOM     31  O   LIG A   1      -4.655  -3.904 124.194  0.00  0.00    -0.392 OA
ATOM     32  H   LIG A   1      -5.420  -4.426 124.502  0.00  0.00    +0.209 HD
ENDBRANCH  30  31
ENDBRANCH  20  30
ENDBRANCH  17  18
ENDBRANCH   9  17
TORSDOF 11
ENDMDL
MODEL 2
REMARK VINA RESULT:      -7.1      8.456     10.908
REMARK  Name = NuBBE_205
REMARK  11 active torsions:
REMARK  status: ('A' for Active; 'I' for Inactive)
REMARK    1  A    between atoms: O_1  and  C_2
REMARK    2  A    between atoms: C_2  and  C_3
REMARK    3  A    between atoms: C_8  and  C_9
REMARK    4  A    between atoms: C_9  and  O_10
REMARK    5  A    between atoms: C_15  and  O_17
REMARK    6  A    between atoms: O_17  and  C_18
REMARK    7  A    between atoms: C_21  and  C_23
REMARK    8  A    between atoms: C_23  and  O_24
REMARK    9  A    between atoms: C_25  and  O_27
REMARK   10  A    between atoms: C_28  and  O_30
REMARK   11  A    between atoms: C_31  and  O_33
REMARK                            x       y       z     vdW  Elec       q    Type
REMARK                         _______ _______ _______ _____ _____    ______ ____
ROOT
ATOM      1  C   LIG A   1      -7.858   4.343 132.489  0.00  0.00    +0.075 C 
ATOM      2  C   LIG A   1      -7.069   5.500 133.059  0.00  0.00    +0.046 C 
ATOM      3  C   LIG A   1      -6.576   6.463 131.945  0.00  0.00    +0.093 C 
ATOM      4  C   LIG A   1      -5.155   5.985 131.693  0.00  0.00    -0.039 C 
ATOM      5  C   LIG A   1      -4.723   5.214 132.700  0.00  0.00    -0.024 C 
ATOM      6  C   LIG A   1      -5.768   5.038 133.756  0.00  0.00    +0.036 C 
ATOM      7  C   LIG A   1      -8.106   4.233 131.173  0.00  0.00    +0.201 C 
ATOM      8  O   LIG A   1      -7.773   5.152 130.217  0.00  0.00    -0.470 OA
ATOM      9  C   LIG A   1      -7.527   6.471 130.730  0.00  0.00    +0.317 C 
ENDROOT
BRANCH   1  10
ATOM     10  C   LIG A   1      -8.394   3.319 133.403  0.00  0.00    +0.336 C 
ATOM     11  O   LIG A   1      -7.830   2.280 133.722  0.00  0.00    -0.245 OA
BRANCH  10  12
ATOM     12  O   LIG A   1      -9.624   3.607 133.861  0.00  0.00    -0.477 OA
ATOM     13  H   LIG A   1      -9.558   3.510 134.831  0.00  0.00    +0.295 HD
ENDBRANCH  10  12
ENDBRANCH   1  10
BRANCH   4  14
ATOM     14  C   LIG A   1      -4.364   6.380 130.496  0.00  0.00    +0.187 C 
BRANCH  14  15
ATOM     15  O   LIG A   1      -4.876   5.713 129.355  0.00  0.00    -0.391 OA
ATOM     16  H   LIG A   1      -4.314   4.930 129.218  0.00  0.00    +0.210 HD
ENDBRANCH  14  15
ENDBRANCH   4  14
BRANCH   9  17
ATOM     17  O   LIG A   1      -8.753   7.132 131.093  0.00  0.00    -0.309 OA
BRANCH  17  18
ATOM     18  C   LIG A   1      -9.892   6.629 130.375  0.00  0.00    +0.286 C 
ATOM     19  O   LIG A   1     -10.036   7.372 129.157  0.00  0.00    -0.340 OA
ATOM     20  C   LIG A   1     -11.224   7.035 128.430  0.00  0.00    +0.178 C 
ATOM     21  C   LIG A   1     -12.435   7.508 129.232  0.00  0.00    +0.177 C 
ATOM     22  C   LIG A   1     -12.468   6.728 130.541  0.00  0.00    +0.179 C 
ATOM     23  C   LIG A   1     -11.136   6.774 131.299  0.00  0.00    +0.201 C 
BRANCH  21  24
ATOM     24  O   LIG A   1     -13.674   7.303 128.545  0.00  0.00    -0.387 OA
ATOM     25  H   LIG A   1     -13.761   7.974 127.844  0.00  0.00    +0.210 HD
ENDBRANCH  21  24
BRANCH  22  26
ATOM     26  O   LIG A   1     -13.511   7.232 131.396  0.00  0.00    -0.386 OA
ATOM     27  H   LIG A   1     -13.410   8.205 131.419  0.00  0.00    +0.210 HD
ENDBRANCH  22  26
BRANCH  23  28
ATOM     28  O   LIG A   1     -11.177   5.716 132.278  0.00  0.00    -0.384 OA
ATOM     29  H   LIG A   1     -12.041   5.814 132.728  0.00  0.00    +0.210 HD
ENDBRANCH  23  28
BRANCH  20  30
ATOM     30  C   LIG A   1     -11.168   7.700 127.053  0.00  0.00    +0.190 C 
BRANCH  30  31
ATOM     31  O   LIG A   1     -11.819   6.869 126.091  0.00  0.00    -0.392 OA
ATOM     32  H   LIG A   1     -12.674   7.301 125.904  0.00  0.00    +0.209 HD
ENDBRANCH  30  31
ENDBRANCH  20  30
ENDBRANCH  17  18
ENDBRANCH   9  17
TORSDOF 11
ENDMDL
MODEL 3
REMARK VINA RESULT:      -6.9      7.934     10.308
REMARK  Name = NuBBE_205
REMARK  11 active torsions:
REMARK  status: ('A' for Active; 'I' for Inactive)
REMARK    1  A    between atoms: O_1  and  C_2
REMARK    2  A    between atoms: C_2  and  C_3
REMARK    3  A    between atoms: C_8  and  C_9
REMARK    4  A    between atoms: C_9  and  O_10
REMARK    5  A    between atoms: C_15  and  O_17
REMARK    6  A    between atoms: O_17  and  C_18
REMARK    7  A    between atoms: C_21  and  C_23
REMARK    8  A    between atoms: C_23  and  O_24
REMARK    9  A    between atoms: C_25  and  O_27
REMARK   10  A    between atoms: C_28  and  O_30
REMARK   11  A    between atoms: C_31  and  O_33
REMARK                            x       y       z     vdW  Elec       q    Type
REMARK                         _______ _______ _______ _____ _____    ______ ____
ROOT
ATOM      1  C   LIG A   1      -5.712   5.496 130.701  0.00  0.00    +0.075 C 
ATOM      2  C   LIG A   1      -6.835   4.573 130.284  0.00  0.00    +0.046 C 
ATOM      3  C   LIG A   1      -7.969   4.533 131.344  0.00  0.00    +0.093 C 
ATOM      4  C   LIG A   1      -7.629   3.293 132.154  0.00  0.00    -0.039 C 
ATOM      5  C   LIG A   1      -6.762   2.512 131.493  0.00  0.00    -0.024 C 
ATOM      6  C   LIG A   1      -6.375   3.100 130.174  0.00  0.00    +0.036 C 
ATOM      7  C   LIG A   1      -5.761   6.202 131.843  0.00  0.00    +0.201 C 
ATOM      8  O   LIG A   1      -6.820   6.254 132.706  0.00  0.00    -0.470 OA
ATOM      9  C   LIG A   1      -8.073   5.860 132.125  0.00  0.00    +0.317 C 
ENDROOT
BRANCH   1  10
ATOM     10  C   LIG A   1      -4.541   5.647 129.819  0.00  0.00    +0.336 C 
ATOM     11  O   LIG A   1      -4.540   6.184 128.719  0.00  0.00    -0.245 OA
BRANCH  10  12
ATOM     12  O   LIG A   1      -3.422   5.097 130.322  0.00  0.00    -0.477 OA
ATOM     13  H   LIG A   1      -3.257   5.586 131.153  0.00  0.00    +0.295 HD
ENDBRANCH  10  12
ENDBRANCH   1  10
BRANCH   4  14
ATOM     14  C   LIG A   1      -8.233   2.996 133.481  0.00  0.00    +0.187 C 
BRANCH  14  15
ATOM     15  O   LIG A   1      -9.640   3.144 133.399  0.00  0.00    -0.391 OA
ATOM     16  H   LIG A   1      -9.868   3.914 133.948  0.00  0.00    +0.210 HD
ENDBRANCH  14  15
ENDBRANCH   4  14
BRANCH   9  17
ATOM     17  O   LIG A   1      -8.593   6.881 131.254  0.00  0.00    -0.309 OA
BRANCH  17  18
ATOM     18  C   LIG A   1      -9.748   6.449 130.514  0.00  0.00    +0.286 C 
ATOM     19  O   LIG A   1      -9.811   7.185 129.285  0.00  0.00    -0.340 OA
ATOM     20  C   LIG A   1     -11.002   6.921 128.533  0.00  0.00    +0.178 C 
ATOM     21  C   LIG A   1     -12.196   7.487 129.300  0.00  0.00    +0.177 C 
ATOM     22  C   LIG A   1     -12.313   6.728 130.617  0.00  0.00    +0.179 C 
ATOM     23  C   LIG A   1     -11.000   6.692 131.406  0.00  0.00    +0.201 C 
BRANCH  21  24
ATOM     24  O   LIG A   1     -13.430   7.359 128.586  0.00  0.00    -0.387 OA
ATOM     25  H   LIG A   1     -13.298   6.756 127.832  0.00  0.00    +0.210 HD
ENDBRANCH  21  24
BRANCH  22  26
ATOM     26  O   LIG A   1     -13.339   7.313 131.441  0.00  0.00    -0.386 OA
ATOM     27  H   LIG A   1     -12.903   7.997 131.988  0.00  0.00    +0.210 HD
ENDBRANCH  22  26
BRANCH  23  28
ATOM     28  O   LIG A   1     -11.137   5.651 132.395  0.00  0.00    -0.384 OA
ATOM     29  H   LIG A   1     -11.615   6.066 133.142  0.00  0.00    +0.210 HD
ENDBRANCH  23  28
BRANCH  20  30
ATOM     30  C   LIG A   1     -10.868   7.564 127.150  0.00  0.00    +0.190 C 
BRANCH  30  31
ATOM     31  O   LIG A   1     -11.545   6.762 126.181  0.00  0.00    -0.392 OA
ATOM     32  H   LIG A   1     -11.194   5.859 126.292  0.00  0.00    +0.209 HD
ENDBRANCH  30  31
ENDBRANCH  20  30
ENDBRANCH  17  18
ENDBRANCH   9  17
TORSDOF 11
ENDMDL
MODEL 4
REMARK VINA RESULT:      -6.8      5.311      8.938
REMARK  Name = NuBBE_205
REMARK  11 active torsions:
REMARK  status: ('A' for Active; 'I' for Inactive)
REMARK    1  A    between atoms: O_1  and  C_2
REMARK    2  A    between atoms: C_2  and  C_3
REMARK    3  A    between atoms: C_8  and  C_9
REMARK    4  A    between atoms: C_9  and  O_10
REMARK    5  A    between atoms: C_15  and  O_17
REMARK    6  A    between atoms: O_17  and  C_18
REMARK    7  A    between atoms: C_21  and  C_23
REMARK    8  A    between atoms: C_23  and  O_24
REMARK    9  A    between atoms: C_25  and  O_27
REMARK   10  A    between atoms: C_28  and  O_30
REMARK   11  A    between atoms: C_31  and  O_33
REMARK                            x       y       z     vdW  Elec       q    Type
REMARK                         _______ _______ _______ _____ _____    ______ ____
ROOT
ATOM      1  C   LIG A   1      -9.731   6.125 131.686  0.00  0.00    +0.075 C 
ATOM      2  C   LIG A   1     -11.039   5.810 130.997  0.00  0.00    +0.046 C 
ATOM      3  C   LIG A   1     -11.047   6.306 129.526  0.00  0.00    +0.093 C 
ATOM      4  C   LIG A   1     -11.748   7.650 129.628  0.00  0.00    -0.039 C 
ATOM      5  C   LIG A   1     -12.405   7.761 130.791  0.00  0.00    -0.024 C 
ATOM      6  C   LIG A   1     -12.236   6.544 131.645  0.00  0.00    +0.036 C 
ATOM      7  C   LIG A   1      -8.717   6.726 131.043  0.00  0.00    +0.201 C 
ATOM      8  O   LIG A   1      -8.690   7.046 129.713  0.00  0.00    -0.470 OA
ATOM      9  C   LIG A   1      -9.631   6.311 128.913  0.00  0.00    +0.317 C 
ENDROOT
BRANCH   1  10
ATOM     10  C   LIG A   1      -9.550   5.737 133.097  0.00  0.00    +0.336 C 
ATOM     11  O   LIG A   1      -8.919   6.368 133.935  0.00  0.00    -0.245 OA
BRANCH  10  12
ATOM     12  O   LIG A   1     -10.130   4.565 133.404  0.00  0.00    -0.477 OA
ATOM     13  H   LIG A   1      -9.858   3.957 132.688  0.00  0.00    +0.295 HD
ENDBRANCH  10  12
ENDBRANCH   1  10
BRANCH   4  14
ATOM     14  C   LIG A   1     -11.725   8.666 128.541  0.00  0.00    +0.187 C 
BRANCH  14  15
ATOM     15  O   LIG A   1     -12.634   9.707 128.853  0.00  0.00    -0.391 OA
ATOM     16  H   LIG A   1     -12.816   9.638 129.806  0.00  0.00    +0.210 HD
ENDBRANCH  14  15
ENDBRANCH   4  14
BRANCH   9  17
ATOM     17  O   LIG A   1      -9.199   4.954 128.707  0.00  0.00    -0.309 OA
BRANCH  17  18
ATOM     18  C   LIG A   1      -8.124   4.848 127.759  0.00  0.00    +0.286 C 
ATOM     19  O   LIG A   1      -8.571   4.075 126.637  0.00  0.00    -0.340 OA
ATOM     20  C   LIG A   1      -7.528   3.799 125.693  0.00  0.00    +0.178 C 
ATOM     21  C   LIG A   1      -6.520   2.854 126.345  0.00  0.00    +0.177 C 
ATOM     22  C   LIG A   1      -5.885   3.582 127.524  0.00  0.00    +0.179 C 
ATOM     23  C   LIG A   1      -6.917   4.183 128.483  0.00  0.00    +0.201 C 
BRANCH  21  24
ATOM     24  O   LIG A   1      -5.484   2.439 125.450  0.00  0.00    -0.387 OA
ATOM     25  H   LIG A   1      -4.846   1.887 125.938  0.00  0.00    +0.210 HD
ENDBRANCH  21  24
BRANCH  22  26
ATOM     26  O   LIG A   1      -5.027   2.689 128.258  0.00  0.00    -0.386 OA
ATOM     27  H   LIG A   1      -5.103   1.812 127.831  0.00  0.00    +0.210 HD
ENDBRANCH  22  26
BRANCH  23  28
ATOM     28  O   LIG A   1      -6.217   5.141 129.303  0.00  0.00    -0.384 OA
ATOM     29  H   LIG A   1      -6.701   5.984 129.187  0.00  0.00    +0.210 HD
ENDBRANCH  23  28
BRANCH  20  30
ATOM     30  C   LIG A   1      -8.147   3.180 124.438  0.00  0.00    +0.190 C 
BRANCH  30  31
ATOM     31  O   LIG A   1      -9.453   2.685 124.741  0.00  0.00    -0.392 OA
ATOM     32  H   LIG A   1      -9.314   1.893 125.294  0.00  0.00    +0.209 HD
ENDBRANCH  30  31
ENDBRANCH  20  30
ENDBRANCH  17  18
ENDBRANCH   9  17
TORSDOF 11
ENDMDL
MODEL 5
REMARK VINA RESULT:      -6.8      8.174     11.196
REMARK  Name = NuBBE_205
REMARK  11 active torsions:
REMARK  status: ('A' for Active; 'I' for Inactive)
REMARK    1  A    between atoms: O_1  and  C_2
REMARK    2  A    between atoms: C_2  and  C_3
REMARK    3  A    between atoms: C_8  and  C_9
REMARK    4  A    between atoms: C_9  and  O_10
REMARK    5  A    between atoms: C_15  and  O_17
REMARK    6  A    between atoms: O_17  and  C_18
REMARK    7  A    between atoms: C_21  and  C_23
REMARK    8  A    between atoms: C_23  and  O_24
REMARK    9  A    between atoms: C_25  and  O_27
REMARK   10  A    between atoms: C_28  and  O_30
REMARK   11  A    between atoms: C_31  and  O_33
REMARK                            x       y       z     vdW  Elec       q    Type
REMARK                         _______ _______ _______ _____ _____    ______ ____
ROOT
ATOM      1  C   LIG A   1      -8.337   3.871 132.123  0.00  0.00    +0.075 C 
ATOM      2  C   LIG A   1      -8.222   5.234 132.766  0.00  0.00    +0.046 C 
ATOM      3  C   LIG A   1      -7.925   6.341 131.718  0.00  0.00    +0.093 C 
ATOM      4  C   LIG A   1      -6.414   6.486 131.802  0.00  0.00    -0.039 C 
ATOM      5  C   LIG A   1      -5.941   5.932 132.927  0.00  0.00    -0.024 C 
ATOM      6  C   LIG A   1      -7.032   5.322 133.749  0.00  0.00    +0.036 C 
ATOM      7  C   LIG A   1      -8.227   3.702 130.795  0.00  0.00    +0.201 C 
ATOM      8  O   LIG A   1      -8.089   4.699 129.870  0.00  0.00    -0.470 OA
ATOM      9  C   LIG A   1      -8.509   5.993 130.333  0.00  0.00    +0.317 C 
ENDROOT
BRANCH   1  10
ATOM     10  C   LIG A   1      -8.605   2.696 132.972  0.00  0.00    +0.336 C 
ATOM     11  O   LIG A   1      -7.756   1.990 133.501  0.00  0.00    -0.245 OA
BRANCH  10  12
ATOM     12  O   LIG A   1      -9.914   2.424 133.103  0.00  0.00    -0.477 OA
ATOM     13  H   LIG A   1     -10.309   2.679 132.246  0.00  0.00    +0.295 HD
ENDBRANCH  10  12
ENDBRANCH   1  10
BRANCH   4  14
ATOM     14  C   LIG A   1      -5.606   7.195 130.773  0.00  0.00    +0.187 C 
BRANCH  14  15
ATOM     15  O   LIG A   1      -5.268   6.290 129.736  0.00  0.00    -0.391 OA
ATOM     16  H   LIG A   1      -5.962   5.608 129.729  0.00  0.00    +0.210 HD
ENDBRANCH  14  15
ENDBRANCH   4  14
BRANCH   9  17
ATOM     17  O   LIG A   1      -9.944   6.092 130.387  0.00  0.00    -0.309 OA
BRANCH  17  18
ATOM     18  C   LIG A   1     -10.460   7.169 129.586  0.00  0.00    +0.286 C 
ATOM     19  O   LIG A   1     -11.545   7.789 130.287  0.00  0.00    -0.340 OA
ATOM     20  C   LIG A   1     -12.215   8.792 129.513  0.00  0.00    +0.178 C 
ATOM     21  C   LIG A   1     -12.938   8.109 128.353  0.00  0.00    +0.177 C 
ATOM     22  C   LIG A   1     -11.888   7.467 127.454  0.00  0.00    +0.179 C 
ATOM     23  C   LIG A   1     -10.910   6.570 128.221  0.00  0.00    +0.201 C 
BRANCH  21  24
ATOM     24  O   LIG A   1     -13.720   9.016 127.570  0.00  0.00    -0.387 OA
ATOM     25  H   LIG A   1     -13.927   9.801 128.109  0.00  0.00    +0.210 HD
ENDBRANCH  21  24
BRANCH  22  26
ATOM     26  O   LIG A   1     -12.523   6.692 126.420  0.00  0.00    -0.386 OA
ATOM     27  H   LIG A   1     -11.917   5.952 126.212  0.00  0.00    +0.210 HD
ENDBRANCH  22  26
BRANCH  23  28
ATOM     28  O   LIG A   1      -9.778   6.352 127.355  0.00  0.00    -0.384 OA
ATOM     29  H   LIG A   1      -9.611   7.215 126.925  0.00  0.00    +0.210 HD
ENDBRANCH  23  28
BRANCH  20  30
ATOM     30  C   LIG A   1     -13.192   9.546 130.418  0.00  0.00    +0.190 C 
BRANCH  30  31
ATOM     31  O   LIG A   1     -13.423  10.853 129.890  0.00  0.00    -0.392 OA
ATOM     32  H   LIG A   1     -13.628  10.725 128.945  0.00  0.00    +0.209 HD
ENDBRANCH  30  31
ENDBRANCH  20  30
ENDBRANCH  17  18
ENDBRANCH   9  17
TORSDOF 11
ENDMDL
MODEL 6
REMARK VINA RESULT:      -6.7      3.162      7.442
REMARK  Name = NuBBE_205
REMARK  11 active torsions:
REMARK  status: ('A' for Active; 'I' for Inactive)
REMARK    1  A    between atoms: O_1  and  C_2
REMARK    2  A    between atoms: C_2  and  C_3
REMARK    3  A    between atoms: C_8  and  C_9
REMARK    4  A    between atoms: C_9  and  O_10
REMARK    5  A    between atoms: C_15  and  O_17
REMARK    6  A    between atoms: O_17  and  C_18
REMARK    7  A    between atoms: C_21  and  C_23
REMARK    8  A    between atoms: C_23  and  O_24
REMARK    9  A    between atoms: C_25  and  O_27
REMARK   10  A    between atoms: C_28  and  O_30
REMARK   11  A    between atoms: C_31  and  O_33
REMARK                            x       y       z     vdW  Elec       q    Type
REMARK                         _______ _______ _______ _____ _____    ______ ____
ROOT
ATOM      1  C   LIG A   1      -7.792  -2.577 126.158  0.00  0.00    +0.075 C 
ATOM      2  C   LIG A   1      -8.289  -2.200 127.535  0.00  0.00    +0.046 C 
ATOM      3  C   LIG A   1      -7.265  -1.309 128.290  0.00  0.00    +0.093 C 
ATOM      4  C   LIG A   1      -6.511  -2.314 129.146  0.00  0.00    -0.039 C 
ATOM      5  C   LIG A   1      -7.186  -3.468 129.235  0.00  0.00    -0.024 C 
ATOM      6  C   LIG A   1      -8.461  -3.431 128.455  0.00  0.00    +0.036 C 
ATOM      7  C   LIG A   1      -6.617  -2.133 125.681  0.00  0.00    +0.201 C 
ATOM      8  O   LIG A   1      -5.783  -1.248 126.306  0.00  0.00    -0.470 OA
ATOM      9  C   LIG A   1      -6.420  -0.456 127.321  0.00  0.00    +0.317 C 
ENDROOT
BRANCH   1  10
ATOM     10  C   LIG A   1      -8.631  -3.435 125.301  0.00  0.00    +0.336 C 
ATOM     11  O   LIG A   1      -8.246  -4.416 124.679  0.00  0.00    -0.245 OA
BRANCH  10  12
ATOM     12  O   LIG A   1      -9.907  -3.022 125.224  0.00  0.00    -0.477 OA
ATOM     13  H   LIG A   1     -10.280  -3.506 124.461  0.00  0.00    +0.295 HD
ENDBRANCH  10  12
ENDBRANCH   1  10
BRANCH   4  14
ATOM     14  C   LIG A   1      -5.219  -2.005 129.816  0.00  0.00    +0.187 C 
BRANCH  14  15
ATOM     15  O   LIG A   1      -4.160  -2.157 128.886  0.00  0.00    -0.391 OA
ATOM     16  H   LIG A   1      -3.547  -1.418 129.043  0.00  0.00    +0.210 HD
ENDBRANCH  14  15
ENDBRANCH   4  14
BRANCH   9  17
ATOM     17  O   LIG A   1      -7.251   0.568 126.745  0.00  0.00    -0.309 OA
BRANCH  17  18
ATOM     18  C   LIG A   1      -6.563   1.356 125.759  0.00  0.00    +0.286 C 
ATOM     19  O   LIG A   1      -5.901   2.445 126.416  0.00  0.00    -0.340 OA
ATOM     20  C   LIG A   1      -5.294   3.368 125.503  0.00  0.00    +0.178 C 
ATOM     21  C   LIG A   1      -6.399   4.089 124.734  0.00  0.00    +0.177 C 
ATOM     22  C   LIG A   1      -7.148   3.054 123.903  0.00  0.00    +0.179 C 
ATOM     23  C   LIG A   1      -7.618   1.850 124.727  0.00  0.00    +0.201 C 
BRANCH  21  24
ATOM     24  O   LIG A   1      -5.899   5.105 123.859  0.00  0.00    -0.387 OA
ATOM     25  H   LIG A   1      -5.619   4.692 123.022  0.00  0.00    +0.210 HD
ENDBRANCH  21  24
BRANCH  22  26
ATOM     26  O   LIG A   1      -8.289   3.658 123.263  0.00  0.00    -0.386 OA
ATOM     27  H   LIG A   1      -8.547   4.423 123.816  0.00  0.00    +0.210 HD
ENDBRANCH  22  26
BRANCH  23  28
ATOM     28  O   LIG A   1      -7.949   0.807 123.788  0.00  0.00    -0.384 OA
ATOM     29  H   LIG A   1      -7.155   0.705 123.224  0.00  0.00    +0.210 HD
ENDBRANCH  23  28
BRANCH  20  30
ATOM     30  C   LIG A   1      -4.427   4.350 126.294  0.00  0.00    +0.190 C 
BRANCH  30  31
ATOM     31  O   LIG A   1      -5.212   5.481 126.677  0.00  0.00    -0.392 OA
ATOM     32  H   LIG A   1      -4.605   6.245 126.654  0.00  0.00    +0.209 HD
ENDBRANCH  30  31
ENDBRANCH  20  30
ENDBRANCH  17  18
ENDBRANCH   9  17
TORSDOF 11
ENDMDL
MODEL 7
REMARK VINA RESULT:      -6.6      2.690      7.221
REMARK  Name = NuBBE_205
REMARK  11 active torsions:
REMARK  status: ('A' for Active; 'I' for Inactive)
REMARK    1  A    between atoms: O_1  and  C_2
REMARK    2  A    between atoms: C_2  and  C_3
REMARK    3  A    between atoms: C_8  and  C_9
REMARK    4  A    between atoms: C_9  and  O_10
REMARK    5  A    between atoms: C_15  and  O_17
REMARK    6  A    between atoms: O_17  and  C_18
REMARK    7  A    between atoms: C_21  and  C_23
REMARK    8  A    between atoms: C_23  and  O_24
REMARK    9  A    between atoms: C_25  and  O_27
REMARK   10  A    between atoms: C_28  and  O_30
REMARK   11  A    between atoms: C_31  and  O_33
REMARK                            x       y       z     vdW  Elec       q    Type
REMARK                         _______ _______ _______ _____ _____    ______ ____
ROOT
ATOM      1  C   LIG A   1      -8.052  -2.066 126.635  0.00  0.00    +0.075 C 
ATOM      2  C   LIG A   1      -6.695  -1.543 126.224  0.00  0.00    +0.046 C 
ATOM      3  C   LIG A   1      -6.747  -0.836 124.842  0.00  0.00    +0.093 C 
ATOM      4  C   LIG A   1      -6.301  -1.932 123.887  0.00  0.00    -0.039 C 
ATOM      5  C   LIG A   1      -5.699  -2.929 124.550  0.00  0.00    -0.024 C 
ATOM      6  C   LIG A   1      -5.663  -2.678 126.024  0.00  0.00    +0.036 C 
ATOM      7  C   LIG A   1      -9.145  -1.878 125.877  0.00  0.00    +0.201 C 
ATOM      8  O   LIG A   1      -9.202  -1.147 124.723  0.00  0.00    -0.470 OA
ATOM      9  C   LIG A   1      -8.128  -0.204 124.571  0.00  0.00    +0.317 C 
ENDROOT
BRANCH   1  10
ATOM     10  C   LIG A   1      -8.188  -2.779 127.919  0.00  0.00    +0.336 C 
ATOM     11  O   LIG A   1      -7.819  -2.363 129.009  0.00  0.00    -0.245 OA
BRANCH  10  12
ATOM     12  O   LIG A   1      -8.748  -3.995 127.793  0.00  0.00    -0.477 OA
ATOM     13  H   LIG A   1      -8.084  -4.613 128.158  0.00  0.00    +0.295 HD
ENDBRANCH  10  12
ENDBRANCH   1  10
BRANCH   4  14
ATOM     14  C   LIG A   1      -6.486  -1.853 122.413  0.00  0.00    +0.187 C 
BRANCH  14  15
ATOM     15  O   LIG A   1      -7.828  -2.176 122.091  0.00  0.00    -0.391 OA
ATOM     16  H   LIG A   1      -8.254  -2.445 122.923  0.00  0.00    +0.210 HD
ENDBRANCH  14  15
ENDBRANCH   4  14
BRANCH   9  17
ATOM     17  O   LIG A   1      -8.303   0.936 125.431  0.00  0.00    -0.309 OA
BRANCH  17  18
ATOM     18  C   LIG A   1      -7.398   2.010 125.125  0.00  0.00    +0.286 C 
ATOM     19  O   LIG A   1      -6.385   2.065 126.137  0.00  0.00    -0.340 OA
ATOM     20  C   LIG A   1      -5.506   3.188 125.995  0.00  0.00    +0.178 C 
ATOM     21  C   LIG A   1      -6.300   4.464 126.274  0.00  0.00    +0.177 C 
ATOM     22  C   LIG A   1      -7.379   4.592 125.205  0.00  0.00    +0.179 C 
ATOM     23  C   LIG A   1      -8.228   3.325 125.057  0.00  0.00    +0.201 C 
BRANCH  21  24
ATOM     24  O   LIG A   1      -5.489   5.642 126.251  0.00  0.00    -0.387 OA
ATOM     25  H   LIG A   1      -5.825   6.244 125.562  0.00  0.00    +0.210 HD
ENDBRANCH  21  24
BRANCH  22  26
ATOM     26  O   LIG A   1      -8.244   5.705 125.501  0.00  0.00    -0.386 OA
ATOM     27  H   LIG A   1      -7.671   6.426 125.828  0.00  0.00    +0.210 HD
ENDBRANCH  22  26
BRANCH  23  28
ATOM     28  O   LIG A   1      -8.921   3.433 123.796  0.00  0.00    -0.384 OA
ATOM     29  H   LIG A   1      -9.570   2.701 123.794  0.00  0.00    +0.210 HD
ENDBRANCH  23  28
BRANCH  20  30
ATOM     30  C   LIG A   1      -4.337   3.030 126.969  0.00  0.00    +0.190 C 
BRANCH  30  31
ATOM     31  O   LIG A   1      -3.205   3.751 126.481  0.00  0.00    -0.392 OA
ATOM     32  H   LIG A   1      -2.960   4.373 127.192  0.00  0.00    +0.209 HD
ENDBRANCH  30  31
ENDBRANCH  20  30
ENDBRANCH  17  18
ENDBRANCH   9  17
TORSDOF 11
ENDMDL
MODEL 8
REMARK VINA RESULT:      -6.6      6.633     10.165
REMARK  Name = NuBBE_205
REMARK  11 active torsions:
REMARK  status: ('A' for Active; 'I' for Inactive)
REMARK    1  A    between atoms: O_1  and  C_2
REMARK    2  A    between atoms: C_2  and  C_3
REMARK    3  A    between atoms: C_8  and  C_9
REMARK    4  A    between atoms: C_9  and  O_10
REMARK    5  A    between atoms: C_15  and  O_17
REMARK    6  A    between atoms: O_17  and  C_18
REMARK    7  A    between atoms: C_21  and  C_23
REMARK    8  A    between atoms: C_23  and  O_24
REMARK    9  A    between atoms: C_25  and  O_27
REMARK   10  A    between atoms: C_28  and  O_30
REMARK   11  A    between atoms: C_31  and  O_33
REMARK                            x       y       z     vdW  Elec       q    Type
REMARK                         _______ _______ _______ _____ _____    ______ ____
ROOT
ATOM      1  C   LIG A   1      -3.317   6.097 130.675  0.00  0.00    +0.075 C 
ATOM      2  C   LIG A   1      -3.585   6.344 129.207  0.00  0.00    +0.046 C 
ATOM      3  C   LIG A   1      -4.608   5.327 128.632  0.00  0.00    +0.093 C 
ATOM      4  C   LIG A   1      -3.714   4.271 128.002  0.00  0.00    -0.039 C 
ATOM      5  C   LIG A   1      -2.467   4.735 127.837  0.00  0.00    -0.024 C 
ATOM      6  C   LIG A   1      -2.323   6.137 128.337  0.00  0.00    +0.036 C 
ATOM      7  C   LIG A   1      -3.946   5.127 131.358  0.00  0.00    +0.201 C 
ATOM      8  O   LIG A   1      -4.936   4.319 130.871  0.00  0.00    -0.470 OA
ATOM      9  C   LIG A   1      -5.600   4.838 129.707  0.00  0.00    +0.317 C 
ENDROOT
BRANCH   1  10
ATOM     10  C   LIG A   1      -2.358   6.962 131.386  0.00  0.00    +0.336 C 
ATOM     11  O   LIG A   1      -2.598   8.075 131.835  0.00  0.00    -0.245 OA
BRANCH  10  12
ATOM     12  O   LIG A   1      -1.130   6.426 131.482  0.00  0.00    -0.477 OA
ATOM     13  H   LIG A   1      -0.532   7.192 131.595  0.00  0.00    +0.295 HD
ENDBRANCH  10  12
ENDBRANCH   1  10
BRANCH   4  14
ATOM     14  C   LIG A   1      -4.204   2.926 127.594  0.00  0.00    +0.187 C 
BRANCH  14  15
ATOM     15  O   LIG A   1      -3.255   2.324 126.731  0.00  0.00    -0.391 OA
ATOM     16  H   LIG A   1      -3.153   2.925 125.972  0.00  0.00    +0.210 HD
ENDBRANCH  14  15
ENDBRANCH   4  14
BRANCH   9  17
ATOM     17  O   LIG A   1      -6.495   5.913 130.048  0.00  0.00    -0.309 OA
BRANCH  17  18
ATOM     18  C   LIG A   1      -7.793   5.450 130.456  0.00  0.00    +0.286 C 
ATOM     19  O   LIG A   1      -8.794   6.172 129.726  0.00  0.00    -0.340 OA
ATOM     20  C   LIG A   1     -10.128   5.876 130.157  0.00  0.00    +0.178 C 
ATOM     21  C   LIG A   1     -10.314   6.424 131.571  0.00  0.00    +0.177 C 
ATOM     22  C   LIG A   1      -9.362   5.675 132.496  0.00  0.00    +0.179 C 
ATOM     23  C   LIG A   1      -7.915   5.674 131.992  0.00  0.00    +0.201 C 
BRANCH  21  24
ATOM     24  O   LIG A   1     -11.649   6.263 132.060  0.00  0.00    -0.387 OA
ATOM     25  H   LIG A   1     -12.276   6.520 131.359  0.00  0.00    +0.210 HD
ENDBRANCH  21  24
BRANCH  22  26
ATOM     26  O   LIG A   1      -9.397   6.246 133.817  0.00  0.00    -0.386 OA
ATOM     27  H   LIG A   1      -8.521   6.651 133.971  0.00  0.00    +0.210 HD
ENDBRANCH  22  26
BRANCH  23  28
ATOM     28  O   LIG A   1      -7.221   4.640 132.720  0.00  0.00    -0.384 OA
ATOM     29  H   LIG A   1      -6.855   5.083 133.512  0.00  0.00    +0.210 HD
ENDBRANCH  23  28
BRANCH  20  30
ATOM     30  C   LIG A   1     -11.117   6.509 129.175  0.00  0.00    +0.190 C 
BRANCH  30  31
ATOM     31  O   LIG A   1     -11.419   7.842 129.590  0.00  0.00    -0.392 OA
ATOM     32  H   LIG A   1     -10.585   8.341 129.504  0.00  0.00    +0.209 HD
ENDBRANCH  30  31
ENDBRANCH  20  30
ENDBRANCH  17  18
ENDBRANCH   9  17
TORSDOF 11
ENDMDL
MODEL 9
REMARK VINA RESULT:      -6.5      5.141      8.540
REMARK  Name = NuBBE_205
REMARK  11 active torsions:
REMARK  status: ('A' for Active; 'I' for Inactive)
REMARK    1  A    between atoms: O_1  and  C_2
REMARK    2  A    between atoms: C_2  and  C_3
REMARK    3  A    between atoms: C_8  and  C_9
REMARK    4  A    between atoms: C_9  and  O_10
REMARK    5  A    between atoms: C_15  and  O_17
REMARK    6  A    between atoms: O_17  and  C_18
REMARK    7  A    between atoms: C_21  and  C_23
REMARK    8  A    between atoms: C_23  and  O_24
REMARK    9  A    between atoms: C_25  and  O_27
REMARK   10  A    between atoms: C_28  and  O_30
REMARK   11  A    between atoms: C_31  and  O_33
REMARK                            x       y       z     vdW  Elec       q    Type
REMARK                         _______ _______ _______ _____ _____    ______ ____
ROOT
ATOM      1  C   LIG A   1     -10.659   5.527 130.800  0.00  0.00    +0.075 C 
ATOM      2  C   LIG A   1      -9.208   5.797 131.125  0.00  0.00    +0.046 C 
ATOM      3  C   LIG A   1      -8.317   4.556 130.847  0.00  0.00    +0.093 C 
ATOM      4  C   LIG A   1      -8.210   3.905 132.216  0.00  0.00    -0.039 C 
ATOM      5  C   LIG A   1      -8.570   4.761 133.183  0.00  0.00    -0.024 C 
ATOM      6  C   LIG A   1      -8.986   6.086 132.628  0.00  0.00    +0.036 C 
ATOM      7  C   LIG A   1     -11.067   4.351 130.295  0.00  0.00    +0.201 C 
ATOM      8  O   LIG A   1     -10.256   3.309 129.938  0.00  0.00    -0.470 OA
ATOM      9  C   LIG A   1      -8.887   3.682 129.710  0.00  0.00    +0.317 C 
ENDROOT
BRANCH   1  10
ATOM     10  C   LIG A   1     -11.655   6.593 131.016  0.00  0.00    +0.336 C 
ATOM     11  O   LIG A   1     -11.768   7.610 130.345  0.00  0.00    -0.245 OA
BRANCH  10  12
ATOM     12  O   LIG A   1     -12.449   6.370 132.077  0.00  0.00    -0.477 OA
ATOM     13  H   LIG A   1     -13.350   6.580 131.761  0.00  0.00    +0.295 HD
ENDBRANCH  10  12
ENDBRANCH   1  10
BRANCH   4  14
ATOM     14  C   LIG A   1      -7.723   2.514 132.421  0.00  0.00    +0.187 C 
BRANCH  14  15
ATOM     15  O   LIG A   1      -8.775   1.722 132.945  0.00  0.00    -0.391 OA
ATOM     16  H   LIG A   1      -8.706   0.852 132.514  0.00  0.00    +0.210 HD
ENDBRANCH  14  15
ENDBRANCH   4  14
BRANCH   9  17
ATOM     17  O   LIG A   1      -8.732   4.375 128.458  0.00  0.00    -0.309 OA
BRANCH  17  18
ATOM     18  C   LIG A   1      -7.780   3.744 127.585  0.00  0.00    +0.286 C 
ATOM     19  O   LIG A   1      -6.498   3.734 128.227  0.00  0.00    -0.340 OA
ATOM     20  C   LIG A   1      -5.449   3.244 127.383  0.00  0.00    +0.178 C 
ATOM     21  C   LIG A   1      -5.227   4.247 126.252  0.00  0.00    +0.177 C 
ATOM     22  C   LIG A   1      -6.498   4.301 125.413  0.00  0.00    +0.179 C 
ATOM     23  C   LIG A   1      -7.758   4.544 126.250  0.00  0.00    +0.201 C 
BRANCH  21  24
ATOM     24  O   LIG A   1      -4.130   3.896 125.402  0.00  0.00    -0.387 OA
ATOM     25  H   LIG A   1      -3.986   2.933 125.454  0.00  0.00    +0.210 HD
ENDBRANCH  21  24
BRANCH  22  26
ATOM     26  O   LIG A   1      -6.393   5.333 124.414  0.00  0.00    -0.386 OA
ATOM     27  H   LIG A   1      -6.600   4.914 123.555  0.00  0.00    +0.210 HD
ENDBRANCH  22  26
BRANCH  23  28
ATOM     28  O   LIG A   1      -8.884   4.191 125.420  0.00  0.00    -0.384 OA
ATOM     29  H   LIG A   1      -9.357   5.032 125.254  0.00  0.00    +0.210 HD
ENDBRANCH  23  28
BRANCH  20  30
ATOM     30  C   LIG A   1      -4.184   3.055 128.223  0.00  0.00    +0.190 C 
BRANCH  30  31
ATOM     31  O   LIG A   1      -3.243   2.259 127.501  0.00  0.00    -0.392 OA
ATOM     32  H   LIG A   1      -3.130   1.443 128.025  0.00  0.00    +0.209 HD
ENDBRANCH  30  31
ENDBRANCH  20  30
ENDBRANCH  17  18
ENDBRANCH   9  17
TORSDOF 11
ENDMDL
