MODEL 1
REMARK VINA RESULT:      -7.0      0.000      0.000
REMARK  Name = NuBBE_1658
REMARK  5 active torsions:
REMARK  status: ('A' for Active; 'I' for Inactive)
REMARK    1  A    between atoms: C_1  and  C_3
REMARK    2  A    between atoms: C_1  and  C_5
REMARK    3  A    between atoms: C_1  and  C_15
REMARK    4  A    between atoms: C_9  and  O_13
REMARK    5  A    between atoms: O_13  and  C_14
REMARK                            x       y       z     vdW  Elec       q    Type
REMARK                         _______ _______ _______ _____ _____    ______ ____
ROOT
ATOM      1  C   LIG A   1      -7.520  -1.035 124.167  0.00  0.00    +0.014 C 
ATOM      2  C   LIG A   1      -6.768   0.071 124.298  0.00  0.00    +0.062 C 
ATOM      3  C   LIG A   1      -7.208   1.406 123.857  0.00  0.00    +0.221 C 
ATOM      4  O   LIG A   1      -6.447   2.359 123.979  0.00  0.00    -0.284 OA
ATOM      5  C   LIG A   1      -8.584   1.536 123.288  0.00  0.00    +0.170 C 
ATOM      6  C   LIG A   1      -9.320   0.426 123.131  0.00  0.00    +0.100 C 
ATOM      7  C   LIG A   1      -8.842  -0.920 123.502  0.00  0.00    +0.187 C 
ATOM      8  O   LIG A   1      -9.538  -1.895 123.247  0.00  0.00    -0.287 OA
ENDROOT
BRANCH   5   9
ATOM      9  O   LIG A   1      -8.978   2.820 122.962  0.00  0.00    -0.491 OA
ATOM     10  C   LIG A   1      -8.748   3.276 121.636  0.00  0.00    +0.277 C 
ENDBRANCH   5   9
BRANCH   1  11
ATOM     11  C   LIG A   1      -7.106  -2.429 124.610  0.00  0.00    +0.075 C 
BRANCH  11  12
ATOM     12  C   LIG A   1      -7.573  -2.732 126.038  0.00  0.00    -0.036 A 
ATOM     13  C   LIG A   1      -8.700  -3.532 126.303  0.00  0.00    +0.004 A 
ATOM     14  C   LIG A   1      -9.077  -3.829 127.615  0.00  0.00    +0.000 A 
ATOM     15  C   LIG A   1      -8.341  -3.329 128.684  0.00  0.00    +0.000 A 
ATOM     16  C   LIG A   1      -7.229  -2.524 128.443  0.00  0.00    +0.000 A 
ATOM     17  C   LIG A   1      -6.849  -2.227 127.131  0.00  0.00    +0.004 A 
ENDBRANCH  11  12
BRANCH  11  18
ATOM     18  C   LIG A   1      -5.616  -2.680 124.422  0.00  0.00    -0.022 C 
ATOM     19  C   LIG A   1      -5.100  -3.816 123.929  0.00  0.00    +0.005 C 
ENDBRANCH  11  18
ENDBRANCH   1  11
TORSDOF 4
ENDMDL
MODEL 2
REMARK VINA RESULT:      -7.0      2.168      6.680
REMARK  Name = NuBBE_1658
REMARK  5 active torsions:
REMARK  status: ('A' for Active; 'I' for Inactive)
REMARK    1  A    between atoms: C_1  and  C_3
REMARK    2  A    between atoms: C_1  and  C_5
REMARK    3  A    between atoms: C_1  and  C_15
REMARK    4  A    between atoms: C_9  and  O_13
REMARK    5  A    between atoms: O_13  and  C_14
REMARK                            x       y       z     vdW  Elec       q    Type
REMARK                         _______ _______ _______ _____ _____    ______ ____
ROOT
ATOM      1  C   LIG A   1      -7.648   1.685 123.940  0.00  0.00    +0.014 C 
ATOM      2  C   LIG A   1      -7.139   0.569 123.393  0.00  0.00    +0.062 C 
ATOM      3  C   LIG A   1      -7.677  -0.778 123.653  0.00  0.00    +0.221 C 
ATOM      4  O   LIG A   1      -7.132  -1.751 123.143  0.00  0.00    -0.284 OA
ATOM      5  C   LIG A   1      -8.886  -0.892 124.525  0.00  0.00    +0.170 C 
ATOM      6  C   LIG A   1      -9.374   0.220 125.092  0.00  0.00    +0.100 C 
ATOM      7  C   LIG A   1      -8.781   1.557 124.891  0.00  0.00    +0.187 C 
ATOM      8  O   LIG A   1      -9.230   2.512 125.514  0.00  0.00    -0.287 OA
ENDROOT
BRANCH   5   9
ATOM      9  O   LIG A   1      -9.399  -2.167 124.673  0.00  0.00    -0.491 OA
ATOM     10  C   LIG A   1      -9.183  -2.837 125.907  0.00  0.00    +0.277 C 
ENDBRANCH   5   9
BRANCH   1  11
ATOM     11  C   LIG A   1      -7.126   3.093 123.698  0.00  0.00    +0.075 C 
BRANCH  11  12
ATOM     12  C   LIG A   1      -7.191   3.474 122.216  0.00  0.00    -0.036 A 
ATOM     13  C   LIG A   1      -8.407   3.533 121.511  0.00  0.00    +0.004 A 
ATOM     14  C   LIG A   1      -8.441   3.928 120.171  0.00  0.00    +0.000 A 
ATOM     15  C   LIG A   1      -7.264   4.264 119.510  0.00  0.00    +0.000 A 
ATOM     16  C   LIG A   1      -6.047   4.200 120.188  0.00  0.00    +0.000 A 
ATOM     17  C   LIG A   1      -6.011   3.807 121.529  0.00  0.00    +0.004 A 
ENDBRANCH  11  12
BRANCH  11  18
ATOM     18  C   LIG A   1      -5.741   3.308 124.293  0.00  0.00    -0.022 C 
ATOM     19  C   LIG A   1      -5.463   3.221 125.603  0.00  0.00    +0.005 C 
ENDBRANCH  11  18
ENDBRANCH   1  11
TORSDOF 4
ENDMDL
MODEL 3
REMARK VINA RESULT:      -6.6      8.882     10.213
REMARK  Name = NuBBE_1658
REMARK  5 active torsions:
REMARK  status: ('A' for Active; 'I' for Inactive)
REMARK    1  A    between atoms: C_1  and  C_3
REMARK    2  A    between atoms: C_1  and  C_5
REMARK    3  A    between atoms: C_1  and  C_15
REMARK    4  A    between atoms: C_9  and  O_13
REMARK    5  A    between atoms: O_13  and  C_14
REMARK                            x       y       z     vdW  Elec       q    Type
REMARK                         _______ _______ _______ _____ _____    ______ ____
ROOT
ATOM      1  C   LIG A   1     -10.602   6.479 130.233  0.00  0.00    +0.014 C 
ATOM      2  C   LIG A   1     -10.328   7.071 129.058  0.00  0.00    +0.062 C 
ATOM      3  C   LIG A   1     -11.157   8.141 128.478  0.00  0.00    +0.221 C 
ATOM      4  O   LIG A   1     -10.858   8.605 127.383  0.00  0.00    -0.284 OA
ATOM      5  C   LIG A   1     -12.328   8.626 129.270  0.00  0.00    +0.170 C 
ATOM      6  C   LIG A   1     -12.616   8.014 130.427  0.00  0.00    +0.100 C 
ATOM      7  C   LIG A   1     -11.827   6.888 130.965  0.00  0.00    +0.187 C 
ATOM      8  O   LIG A   1     -12.205   6.323 131.984  0.00  0.00    -0.287 OA
ENDROOT
BRANCH   5   9
ATOM      9  O   LIG A   1     -13.026   9.684 128.719  0.00  0.00    -0.491 OA
ATOM     10  C   LIG A   1     -13.490  10.707 129.589  0.00  0.00    +0.277 C 
ENDBRANCH   5   9
BRANCH   1  11
ATOM     11  C   LIG A   1      -9.773   5.374 130.869  0.00  0.00    +0.075 C 
BRANCH  11  12
ATOM     12  C   LIG A   1      -8.271   5.633 130.716  0.00  0.00    -0.036 A 
ATOM     13  C   LIG A   1      -7.630   6.715 131.347  0.00  0.00    +0.004 A 
ATOM     14  C   LIG A   1      -6.250   6.901 131.227  0.00  0.00    +0.000 A 
ATOM     15  C   LIG A   1      -5.488   6.016 130.471  0.00  0.00    +0.000 A 
ATOM     16  C   LIG A   1      -6.107   4.946 129.827  0.00  0.00    +0.000 A 
ATOM     17  C   LIG A   1      -7.486   4.757 129.948  0.00  0.00    +0.004 A 
ENDBRANCH  11  12
BRANCH  11  18
ATOM     18  C   LIG A   1     -10.177   3.991 130.377  0.00  0.00    -0.022 C 
ATOM     19  C   LIG A   1     -10.217   2.898 131.155  0.00  0.00    +0.005 C 
ENDBRANCH  11  18
ENDBRANCH   1  11
TORSDOF 4
ENDMDL
MODEL 4
REMARK VINA RESULT:      -6.6      8.465     10.553
REMARK  Name = NuBBE_1658
REMARK  5 active torsions:
REMARK  status: ('A' for Active; 'I' for Inactive)
REMARK    1  A    between atoms: C_1  and  C_3
REMARK    2  A    between atoms: C_1  and  C_5
REMARK    3  A    between atoms: C_1  and  C_15
REMARK    4  A    between atoms: C_9  and  O_13
REMARK    5  A    between atoms: O_13  and  C_14
REMARK                            x       y       z     vdW  Elec       q    Type
REMARK                         _______ _______ _______ _____ _____    ______ ____
ROOT
ATOM      1  C   LIG A   1      -9.128   4.661 131.582  0.00  0.00    +0.014 C 
ATOM      2  C   LIG A   1      -9.047   3.934 130.455  0.00  0.00    +0.062 C 
ATOM      3  C   LIG A   1      -9.064   2.461 130.438  0.00  0.00    +0.221 C 
ATOM      4  O   LIG A   1      -8.949   1.872 129.369  0.00  0.00    -0.284 OA
ATOM      5  C   LIG A   1      -9.235   1.749 131.741  0.00  0.00    +0.170 C 
ATOM      6  C   LIG A   1      -9.285   2.475 132.866  0.00  0.00    +0.100 C 
ATOM      7  C   LIG A   1      -9.188   3.948 132.883  0.00  0.00    +0.187 C 
ATOM      8  O   LIG A   1      -9.153   4.534 133.958  0.00  0.00    -0.287 OA
ENDROOT
BRANCH   5   9
ATOM      9  O   LIG A   1      -9.323   0.372 131.662  0.00  0.00    -0.491 OA
ATOM     10  C   LIG A   1      -8.219  -0.398 132.119  0.00  0.00    +0.277 C 
ENDBRANCH   5   9
BRANCH   1  11
ATOM     11  C   LIG A   1      -9.117   6.180 131.645  0.00  0.00    +0.075 C 
BRANCH  11  12
ATOM     12  C   LIG A   1     -10.380   6.782 131.020  0.00  0.00    -0.036 A 
ATOM     13  C   LIG A   1     -11.641   6.676 131.634  0.00  0.00    +0.004 A 
ATOM     14  C   LIG A   1     -12.769   7.274 131.064  0.00  0.00    +0.000 A 
ATOM     15  C   LIG A   1     -12.659   7.980 129.871  0.00  0.00    +0.000 A 
ATOM     16  C   LIG A   1     -11.420   8.085 129.241  0.00  0.00    +0.000 A 
ATOM     17  C   LIG A   1     -10.291   7.490 129.810  0.00  0.00    +0.004 A 
ENDBRANCH  11  12
BRANCH  11  18
ATOM     18  C   LIG A   1      -7.841   6.775 131.064  0.00  0.00    -0.022 C 
ATOM     19  C   LIG A   1      -6.617   6.574 131.573  0.00  0.00    +0.005 C 
ENDBRANCH  11  18
ENDBRANCH   1  11
TORSDOF 4
ENDMDL
MODEL 5
REMARK VINA RESULT:      -6.6      8.674      9.984
REMARK  Name = NuBBE_1658
REMARK  5 active torsions:
REMARK  status: ('A' for Active; 'I' for Inactive)
REMARK    1  A    between atoms: C_1  and  C_3
REMARK    2  A    between atoms: C_1  and  C_5
REMARK    3  A    between atoms: C_1  and  C_15
REMARK    4  A    between atoms: C_9  and  O_13
REMARK    5  A    between atoms: O_13  and  C_14
REMARK                            x       y       z     vdW  Elec       q    Type
REMARK                         _______ _______ _______ _____ _____    ______ ____
ROOT
ATOM      1  C   LIG A   1      -9.984   6.251 131.502  0.00  0.00    +0.014 C 
ATOM      2  C   LIG A   1     -11.271   6.328 131.881  0.00  0.00    +0.062 C 
ATOM      3  C   LIG A   1     -12.277   7.137 131.171  0.00  0.00    +0.221 C 
ATOM      4  O   LIG A   1     -13.423   7.183 131.603  0.00  0.00    -0.284 OA
ATOM      5  C   LIG A   1     -11.848   7.859 129.934  0.00  0.00    +0.170 C 
ATOM      6  C   LIG A   1     -10.557   7.803 129.575  0.00  0.00    +0.100 C 
ATOM      7  C   LIG A   1      -9.538   7.055 130.337  0.00  0.00    +0.187 C 
ATOM      8  O   LIG A   1      -8.363   7.125 129.995  0.00  0.00    -0.287 OA
ENDROOT
BRANCH   5   9
ATOM      9  O   LIG A   1     -12.846   8.538 129.261  0.00  0.00    -0.491 OA
ATOM     10  C   LIG A   1     -13.432   7.916 128.126  0.00  0.00    +0.277 C 
ENDBRANCH   5   9
BRANCH   1  11
ATOM     11  C   LIG A   1      -8.915   5.429 132.204  0.00  0.00    +0.075 C 
BRANCH  11  12
ATOM     12  C   LIG A   1      -8.980   3.952 131.800  0.00  0.00    -0.036 A 
ATOM     13  C   LIG A   1      -8.607   3.510 130.518  0.00  0.00    +0.004 A 
ATOM     14  C   LIG A   1      -8.633   2.151 130.191  0.00  0.00    +0.000 A 
ATOM     15  C   LIG A   1      -9.037   1.213 131.135  0.00  0.00    +0.000 A 
ATOM     16  C   LIG A   1      -9.423   1.632 132.407  0.00  0.00    +0.000 A 
ATOM     17  C   LIG A   1      -9.396   2.990 132.736  0.00  0.00    +0.004 A 
ENDBRANCH  11  12
BRANCH  11  18
ATOM     18  C   LIG A   1      -8.935   5.619 133.715  0.00  0.00    -0.022 C 
ATOM     19  C   LIG A   1      -7.836   5.670 134.481  0.00  0.00    +0.005 C 
ENDBRANCH  11  18
ENDBRANCH   1  11
TORSDOF 4
ENDMDL
MODEL 6
REMARK VINA RESULT:      -6.1      1.727      2.486
REMARK  Name = NuBBE_1658
REMARK  5 active torsions:
REMARK  status: ('A' for Active; 'I' for Inactive)
REMARK    1  A    between atoms: C_1  and  C_3
REMARK    2  A    between atoms: C_1  and  C_5
REMARK    3  A    between atoms: C_1  and  C_15
REMARK    4  A    between atoms: C_9  and  O_13
REMARK    5  A    between atoms: O_13  and  C_14
REMARK                            x       y       z     vdW  Elec       q    Type
REMARK                         _______ _______ _______ _____ _____    ______ ____
ROOT
ATOM      1  C   LIG A   1      -6.309  -0.455 125.227  0.00  0.00    +0.014 C 
ATOM      2  C   LIG A   1      -5.306   0.137 125.897  0.00  0.00    +0.062 C 
ATOM      3  C   LIG A   1      -5.147   1.598 125.991  0.00  0.00    +0.221 C 
ATOM      4  O   LIG A   1      -4.182   2.059 126.591  0.00  0.00    -0.284 OA
ATOM      5  C   LIG A   1      -6.190   2.458 125.354  0.00  0.00    +0.170 C 
ATOM      6  C   LIG A   1      -7.174   1.866 124.662  0.00  0.00    +0.100 C 
ATOM      7  C   LIG A   1      -7.283   0.402 124.505  0.00  0.00    +0.187 C 
ATOM      8  O   LIG A   1      -8.159  -0.060 123.784  0.00  0.00    -0.287 OA
ENDROOT
BRANCH   5   9
ATOM      9  O   LIG A   1      -6.038   3.819 125.538  0.00  0.00    -0.491 OA
ATOM     10  C   LIG A   1      -5.884   4.639 124.387  0.00  0.00    +0.277 C 
ENDBRANCH   5   9
BRANCH   1  11
ATOM     11  C   LIG A   1      -6.513  -1.957 125.106  0.00  0.00    +0.075 C 
BRANCH  11  12
ATOM     12  C   LIG A   1      -7.212  -2.535 126.341  0.00  0.00    -0.036 A 
ATOM     13  C   LIG A   1      -6.696  -2.370 127.640  0.00  0.00    +0.004 A 
ATOM     14  C   LIG A   1      -7.378  -2.869 128.752  0.00  0.00    +0.000 A 
ATOM     15  C   LIG A   1      -8.582  -3.547 128.588  0.00  0.00    +0.000 A 
ATOM     16  C   LIG A   1      -9.102  -3.733 127.309  0.00  0.00    +0.000 A 
ATOM     17  C   LIG A   1      -8.423  -3.232 126.195  0.00  0.00    +0.004 A 
ENDBRANCH  11  12
BRANCH  11  18
ATOM     18  C   LIG A   1      -5.221  -2.692 124.773  0.00  0.00    -0.022 C 
ATOM     19  C   LIG A   1      -5.144  -3.730 123.927  0.00  0.00    +0.005 C 
ENDBRANCH  11  18
ENDBRANCH   1  11
TORSDOF 4
ENDMDL
MODEL 7
REMARK VINA RESULT:      -5.9      2.993      6.148
REMARK  Name = NuBBE_1658
REMARK  5 active torsions:
REMARK  status: ('A' for Active; 'I' for Inactive)
REMARK    1  A    between atoms: C_1  and  C_3
REMARK    2  A    between atoms: C_1  and  C_5
REMARK    3  A    between atoms: C_1  and  C_15
REMARK    4  A    between atoms: C_9  and  O_13
REMARK    5  A    between atoms: O_13  and  C_14
REMARK                            x       y       z     vdW  Elec       q    Type
REMARK                         _______ _______ _______ _____ _____    ______ ____
ROOT
ATOM      1  C   LIG A   1      -7.429  -2.388 126.240  0.00  0.00    +0.014 C 
ATOM      2  C   LIG A   1      -8.134  -2.813 127.302  0.00  0.00    +0.062 C 
ATOM      3  C   LIG A   1      -7.551  -2.989 128.643  0.00  0.00    +0.221 C 
ATOM      4  O   LIG A   1      -8.255  -3.416 129.552  0.00  0.00    -0.284 OA
ATOM      5  C   LIG A   1      -6.116  -2.621 128.836  0.00  0.00    +0.170 C 
ATOM      6  C   LIG A   1      -5.407  -2.226 127.769  0.00  0.00    +0.100 C 
ATOM      7  C   LIG A   1      -5.977  -2.128 126.411  0.00  0.00    +0.187 C 
ATOM      8  O   LIG A   1      -5.244  -1.844 125.472  0.00  0.00    -0.287 OA
ENDROOT
BRANCH   5   9
ATOM      9  O   LIG A   1      -5.639  -2.730 130.128  0.00  0.00    -0.491 OA
ATOM     10  C   LIG A   1      -4.907  -3.898 130.477  0.00  0.00    +0.277 C 
ENDBRANCH   5   9
BRANCH   1  11
ATOM     11  C   LIG A   1      -7.990  -2.190 124.841  0.00  0.00    +0.075 C 
BRANCH  11  12
ATOM     12  C   LIG A   1      -8.323  -0.720 124.567  0.00  0.00    -0.036 A 
ATOM     13  C   LIG A   1      -7.651   0.029 123.583  0.00  0.00    +0.004 A 
ATOM     14  C   LIG A   1      -8.007   1.355 123.324  0.00  0.00    +0.000 A 
ATOM     15  C   LIG A   1      -9.033   1.958 124.044  0.00  0.00    +0.000 A 
ATOM     16  C   LIG A   1      -9.702   1.237 125.032  0.00  0.00    +0.000 A 
ATOM     17  C   LIG A   1      -9.349  -0.090 125.291  0.00  0.00    +0.004 A 
ENDBRANCH  11  12
BRANCH  11  18
ATOM     18  C   LIG A   1      -9.164  -3.115 124.550  0.00  0.00    -0.022 C 
ATOM     19  C   LIG A   1      -9.658  -3.342 123.324  0.00  0.00    +0.005 C 
ENDBRANCH  11  18
ENDBRANCH   1  11
TORSDOF 4
ENDMDL
MODEL 8
REMARK VINA RESULT:      -5.9      3.078      5.090
REMARK  Name = NuBBE_1658
REMARK  5 active torsions:
REMARK  status: ('A' for Active; 'I' for Inactive)
REMARK    1  A    between atoms: C_1  and  C_3
REMARK    2  A    between atoms: C_1  and  C_5
REMARK    3  A    between atoms: C_1  and  C_15
REMARK    4  A    between atoms: C_9  and  O_13
REMARK    5  A    between atoms: O_13  and  C_14
REMARK                            x       y       z     vdW  Elec       q    Type
REMARK                         _______ _______ _______ _____ _____    ______ ____
ROOT
ATOM      1  C   LIG A   1      -7.456  -3.039 128.260  0.00  0.00    +0.014 C 
ATOM      2  C   LIG A   1      -6.581  -2.416 127.453  0.00  0.00    +0.062 C 
ATOM      3  C   LIG A   1      -6.827  -2.182 126.019  0.00  0.00    +0.221 C 
ATOM      4  O   LIG A   1      -5.961  -1.638 125.343  0.00  0.00    -0.284 OA
ATOM      5  C   LIG A   1      -8.143  -2.614 125.456  0.00  0.00    +0.170 C 
ATOM      6  C   LIG A   1      -9.001  -3.261 126.256  0.00  0.00    +0.100 C 
ATOM      7  C   LIG A   1      -8.715  -3.562 127.673  0.00  0.00    +0.187 C 
ATOM      8  O   LIG A   1      -9.512  -4.235 128.315  0.00  0.00    -0.287 OA
ENDROOT
BRANCH   5   9
ATOM      9  O   LIG A   1      -8.355  -2.301 124.126  0.00  0.00    -0.491 OA
ATOM     10  C   LIG A   1      -9.306  -3.069 123.401  0.00  0.00    +0.277 C 
ENDBRANCH   5   9
BRANCH   1  11
ATOM     11  C   LIG A   1      -7.244  -3.298 129.743  0.00  0.00    +0.075 C 
BRANCH  11  12
ATOM     12  C   LIG A   1      -7.564  -2.060 130.586  0.00  0.00    -0.036 A 
ATOM     13  C   LIG A   1      -8.045  -0.868 130.013  0.00  0.00    +0.004 A 
ATOM     14  C   LIG A   1      -8.371   0.232 130.812  0.00  0.00    +0.000 A 
ATOM     15  C   LIG A   1      -8.218   0.163 132.193  0.00  0.00    +0.000 A 
ATOM     16  C   LIG A   1      -7.730  -1.004 132.778  0.00  0.00    +0.000 A 
ATOM     17  C   LIG A   1      -7.405  -2.105 131.982  0.00  0.00    +0.004 A 
ENDBRANCH  11  12
BRANCH  11  18
ATOM     18  C   LIG A   1      -5.862  -3.863 130.042  0.00  0.00    -0.022 C 
ATOM     19  C   LIG A   1      -5.645  -5.024 130.677  0.00  0.00    +0.005 C 
ENDBRANCH  11  18
ENDBRANCH   1  11
TORSDOF 4
ENDMDL
MODEL 9
REMARK VINA RESULT:      -5.9      5.001      8.145
REMARK  Name = NuBBE_1658
REMARK  5 active torsions:
REMARK  status: ('A' for Active; 'I' for Inactive)
REMARK    1  A    between atoms: C_1  and  C_3
REMARK    2  A    between atoms: C_1  and  C_5
REMARK    3  A    between atoms: C_1  and  C_15
REMARK    4  A    between atoms: C_9  and  O_13
REMARK    5  A    between atoms: O_13  and  C_14
REMARK                            x       y       z     vdW  Elec       q    Type
REMARK                         _______ _______ _______ _____ _____    ______ ____
ROOT
ATOM      1  C   LIG A   1      -6.277  -2.189 130.765  0.00  0.00    +0.014 C 
ATOM      2  C   LIG A   1      -5.038  -1.984 130.288  0.00  0.00    +0.062 C 
ATOM      3  C   LIG A   1      -3.835  -2.608 130.865  0.00  0.00    +0.221 C 
ATOM      4  O   LIG A   1      -2.735  -2.340 130.394  0.00  0.00    -0.284 OA
ATOM      5  C   LIG A   1      -4.018  -3.559 132.003  0.00  0.00    +0.170 C 
ATOM      6  C   LIG A   1      -5.252  -3.739 132.495  0.00  0.00    +0.100 C 
ATOM      7  C   LIG A   1      -6.443  -3.049 131.963  0.00  0.00    +0.187 C 
ATOM      8  O   LIG A   1      -7.522  -3.198 132.523  0.00  0.00    -0.287 OA
ENDROOT
BRANCH   5   9
ATOM      9  O   LIG A   1      -2.868  -4.178 132.457  0.00  0.00    -0.491 OA
ATOM     10  C   LIG A   1      -2.904  -4.808 133.730  0.00  0.00    +0.277 C 
ENDBRANCH   5   9
BRANCH   1  11
ATOM     11  C   LIG A   1      -7.544  -1.568 130.199  0.00  0.00    +0.075 C 
BRANCH  11  12
ATOM     12  C   LIG A   1      -7.978  -2.251 128.898  0.00  0.00    -0.036 A 
ATOM     13  C   LIG A   1      -8.594  -3.516 128.886  0.00  0.00    +0.004 A 
ATOM     14  C   LIG A   1      -9.020  -4.096 127.688  0.00  0.00    +0.000 A 
ATOM     15  C   LIG A   1      -8.833  -3.427 126.482  0.00  0.00    +0.000 A 
ATOM     16  C   LIG A   1      -8.213  -2.179 126.471  0.00  0.00    +0.000 A 
ATOM     17  C   LIG A   1      -7.788  -1.597 127.669  0.00  0.00    +0.004 A 
ENDBRANCH  11  12
BRANCH  11  18
ATOM     18  C   LIG A   1      -7.434  -0.056 130.052  0.00  0.00    -0.022 C 
ATOM     19  C   LIG A   1      -8.300   0.817 130.588  0.00  0.00    +0.005 C 
ENDBRANCH  11  18
ENDBRANCH   1  11
TORSDOF 4
ENDMDL
