MODEL 1
REMARK VINA RESULT:      -7.7      0.000      0.000
REMARK  Name = NuBBE_128
REMARK  7 active torsions:
REMARK  status: ('A' for Active; 'I' for Inactive)
REMARK    1  A    between atoms: O_1  and  C_2
REMARK    2  A    between atoms: C_5  and  O_6
REMARK    3  A    between atoms: C_8  and  C_9
REMARK    4  A    between atoms: C_16  and  O_17
REMARK    5  A    between atoms: O_17  and  C_18
REMARK    6  A    between atoms: C_19  and  O_20
REMARK    7  A    between atoms: C_21  and  O_22
REMARK                            x       y       z     vdW  Elec       q    Type
REMARK                         _______ _______ _______ _____ _____    ______ ____
ROOT
ATOM      1  C   LIG A   1      -6.502   2.705 123.265  0.00  0.00    +0.139 A 
ATOM      2  O   LIG A   1      -7.264   1.578 123.001  0.00  0.00    -0.454 OA
ATOM      3  C   LIG A   1      -6.033   3.012 124.482  0.00  0.00    +0.098 A 
ATOM      4  C   LIG A   1      -6.348   2.150 125.636  0.00  0.00    +0.197 A 
ATOM      5  C   LIG A   1      -7.159   0.948 125.357  0.00  0.00    +0.109 A 
ATOM      6  C   LIG A   1      -7.568   0.727 124.037  0.00  0.00    +0.146 A 
ATOM      7  C   LIG A   1      -8.334  -0.399 123.691  0.00  0.00    +0.096 A 
ATOM      8  C   LIG A   1      -8.703  -1.317 124.670  0.00  0.00    +0.169 A 
ATOM      9  C   LIG A   1      -8.295  -1.086 125.986  0.00  0.00    +0.202 A 
ATOM     10  C   LIG A   1      -7.531   0.030 126.336  0.00  0.00    +0.177 A 
ATOM     11  O   LIG A   1      -5.932   2.472 126.740  0.00  0.00    -0.287 OA
ENDROOT
BRANCH   1  17
ATOM     12  C   LIG A   1      -5.662   5.133 119.825  0.00  0.00    +0.158 A 
ATOM     13  C   LIG A   1      -6.705   4.220 119.769  0.00  0.00    +0.050 A 
ATOM     14  C   LIG A   1      -6.977   3.426 120.891  0.00  0.00    +0.015 A 
ATOM     15  C   LIG A   1      -4.898   5.250 120.980  0.00  0.00    +0.159 A 
ATOM     16  C   LIG A   1      -5.166   4.469 122.098  0.00  0.00    +0.060 A 
ATOM     17  C   LIG A   1      -6.223   3.545 122.076  0.00  0.00    +0.021 A 
BRANCH  12  18
ATOM     18  O   LIG A   1      -5.346   5.936 118.766  0.00  0.00    -0.503 OA
ATOM     19  H   LIG A   1      -4.643   6.548 119.048  0.00  0.00    +0.292 HD
ENDBRANCH  12  18
BRANCH  15  20
ATOM     20  O   LIG A   1      -3.865   6.143 121.025  0.00  0.00    -0.503 OA
ATOM     21  H   LIG A   1      -3.235   5.822 120.348  0.00  0.00    +0.292 HD
ENDBRANCH  15  20
ENDBRANCH   1  17
BRANCH   8  22
ATOM     22  O   LIG A   1      -9.444  -2.453 124.484  0.00  0.00    -0.491 OA
ATOM     23  C   LIG A   1      -9.374  -3.057 123.197  0.00  0.00    +0.277 C 
ENDBRANCH   8  22
BRANCH   9  24
ATOM     24  O   LIG A   1      -8.642  -1.964 126.985  0.00  0.00    -0.501 OA
ATOM     25  H   LIG A   1      -7.794  -2.344 127.292  0.00  0.00    +0.292 HD
ENDBRANCH   9  24
BRANCH  10  26
ATOM     26  O   LIG A   1      -7.179   0.170 127.650  0.00  0.00    -0.503 OA
ATOM     27  H   LIG A   1      -7.910   0.665 128.070  0.00  0.00    +0.292 HD
ENDBRANCH  10  26
TORSDOF 6
ENDMDL
MODEL 2
REMARK VINA RESULT:      -7.5      1.830      2.526
REMARK  Name = NuBBE_128
REMARK  7 active torsions:
REMARK  status: ('A' for Active; 'I' for Inactive)
REMARK    1  A    between atoms: O_1  and  C_2
REMARK    2  A    between atoms: C_5  and  O_6
REMARK    3  A    between atoms: C_8  and  C_9
REMARK    4  A    between atoms: C_16  and  O_17
REMARK    5  A    between atoms: O_17  and  C_18
REMARK    6  A    between atoms: C_19  and  O_20
REMARK    7  A    between atoms: C_21  and  O_22
REMARK                            x       y       z     vdW  Elec       q    Type
REMARK                         _______ _______ _______ _____ _____    ______ ____
ROOT
ATOM      1  C   LIG A   1      -7.224   2.131 122.764  0.00  0.00    +0.139 A 
ATOM      2  O   LIG A   1      -6.626   0.883 122.687  0.00  0.00    -0.454 OA
ATOM      3  C   LIG A   1      -8.272   2.402 123.554  0.00  0.00    +0.098 A 
ATOM      4  C   LIG A   1      -8.872   1.338 124.378  0.00  0.00    +0.197 A 
ATOM      5  C   LIG A   1      -8.236   0.007 124.299  0.00  0.00    +0.109 A 
ATOM      6  C   LIG A   1      -7.132  -0.141 123.453  0.00  0.00    +0.146 A 
ATOM      7  C   LIG A   1      -6.467  -1.373 123.331  0.00  0.00    +0.096 A 
ATOM      8  C   LIG A   1      -6.908  -2.476 124.058  0.00  0.00    +0.169 A 
ATOM      9  C   LIG A   1      -8.015  -2.321 124.897  0.00  0.00    +0.202 A 
ATOM     10  C   LIG A   1      -8.678  -1.098 125.024  0.00  0.00    +0.177 A 
ATOM     11  O   LIG A   1      -9.847   1.606 125.066  0.00  0.00    -0.287 OA
ENDROOT
BRANCH   1  17
ATOM     12  C   LIG A   1      -5.424   5.133 120.278  0.00  0.00    +0.158 A 
ATOM     13  C   LIG A   1      -4.861   4.854 121.514  0.00  0.00    +0.050 A 
ATOM     14  C   LIG A   1      -5.450   3.876 122.327  0.00  0.00    +0.015 A 
ATOM     15  C   LIG A   1      -6.561   4.452 119.858  0.00  0.00    +0.159 A 
ATOM     16  C   LIG A   1      -7.147   3.477 120.656  0.00  0.00    +0.060 A 
ATOM     17  C   LIG A   1      -6.592   3.164 121.908  0.00  0.00    +0.021 A 
BRANCH  12  18
ATOM     18  O   LIG A   1      -4.898   6.075 119.440  0.00  0.00    -0.503 OA
ATOM     19  H   LIG A   1      -4.095   5.705 119.031  0.00  0.00    +0.292 HD
ENDBRANCH  12  18
BRANCH  15  20
ATOM     20  O   LIG A   1      -7.117   4.741 118.644  0.00  0.00    -0.503 OA
ATOM     21  H   LIG A   1      -7.689   3.972 118.448  0.00  0.00    +0.292 HD
ENDBRANCH  15  20
ENDBRANCH   1  17
BRANCH   8  22
ATOM     22  O   LIG A   1      -6.365  -3.732 124.041  0.00  0.00    -0.491 OA
ATOM     23  C   LIG A   1      -4.943  -3.813 124.030  0.00  0.00    +0.277 C 
ENDBRANCH   8  22
BRANCH   9  24
ATOM     24  O   LIG A   1      -8.486  -3.385 125.627  0.00  0.00    -0.501 OA
ATOM     25  H   LIG A   1      -9.454  -3.248 125.678  0.00  0.00    +0.292 HD
ENDBRANCH   9  24
BRANCH  10  26
ATOM     26  O   LIG A   1      -9.751  -1.044 125.870  0.00  0.00    -0.503 OA
ATOM     27  H   LIG A   1      -9.861  -0.101 126.102  0.00  0.00    +0.292 HD
ENDBRANCH  10  26
TORSDOF 6
ENDMDL
MODEL 3
REMARK VINA RESULT:      -7.2      9.362     10.504
REMARK  Name = NuBBE_128
REMARK  7 active torsions:
REMARK  status: ('A' for Active; 'I' for Inactive)
REMARK    1  A    between atoms: O_1  and  C_2
REMARK    2  A    between atoms: C_5  and  O_6
REMARK    3  A    between atoms: C_8  and  C_9
REMARK    4  A    between atoms: C_16  and  O_17
REMARK    5  A    between atoms: O_17  and  C_18
REMARK    6  A    between atoms: C_19  and  O_20
REMARK    7  A    between atoms: C_21  and  O_22
REMARK                            x       y       z     vdW  Elec       q    Type
REMARK                         _______ _______ _______ _____ _____    ______ ____
ROOT
ATOM      1  C   LIG A   1      -9.085   6.675 131.257  0.00  0.00    +0.139 A 
ATOM      2  O   LIG A   1      -7.877   7.071 130.704  0.00  0.00    -0.454 OA
ATOM      3  C   LIG A   1      -9.183   5.994 132.407  0.00  0.00    +0.098 A 
ATOM      4  C   LIG A   1      -7.966   5.596 133.138  0.00  0.00    +0.197 A 
ATOM      5  C   LIG A   1      -6.678   6.018 132.551  0.00  0.00    +0.109 A 
ATOM      6  C   LIG A   1      -6.711   6.746 131.357  0.00  0.00    +0.146 A 
ATOM      7  C   LIG A   1      -5.529   7.191 130.742  0.00  0.00    +0.096 A 
ATOM      8  C   LIG A   1      -4.295   6.905 131.320  0.00  0.00    +0.169 A 
ATOM      9  C   LIG A   1      -4.270   6.172 132.509  0.00  0.00    +0.202 A 
ATOM     10  C   LIG A   1      -5.443   5.730 133.127  0.00  0.00    +0.177 A 
ATOM     11  O   LIG A   1      -8.086   4.948 134.168  0.00  0.00    -0.287 OA
ENDROOT
BRANCH   1  17
ATOM     12  C   LIG A   1     -12.523   7.860 128.977  0.00  0.00    +0.158 A 
ATOM     13  C   LIG A   1     -12.708   7.216 130.191  0.00  0.00    +0.050 A 
ATOM     14  C   LIG A   1     -11.585   6.826 130.934  0.00  0.00    +0.015 A 
ATOM     15  C   LIG A   1     -11.239   8.111 128.507  0.00  0.00    +0.159 A 
ATOM     16  C   LIG A   1     -10.121   7.732 129.241  0.00  0.00    +0.060 A 
ATOM     17  C   LIG A   1     -10.277   7.088 130.479  0.00  0.00    +0.021 A 
BRANCH  12  18
ATOM     18  O   LIG A   1     -13.576   8.265 128.205  0.00  0.00    -0.503 OA
ATOM     19  H   LIG A   1     -13.327   8.156 127.270  0.00  0.00    +0.292 HD
ENDBRANCH  12  18
BRANCH  15  20
ATOM     20  O   LIG A   1     -11.065   8.737 127.305  0.00  0.00    -0.503 OA
ATOM     21  H   LIG A   1     -10.094   8.803 127.202  0.00  0.00    +0.292 HD
ENDBRANCH  15  20
ENDBRANCH   1  17
BRANCH   8  22
ATOM     22  O   LIG A   1      -3.066   7.269 130.837  0.00  0.00    -0.491 OA
ATOM     23  C   LIG A   1      -2.598   6.569 129.689  0.00  0.00    +0.277 C 
ENDBRANCH   8  22
BRANCH   9  24
ATOM     24  O   LIG A   1      -3.073   5.863 133.109  0.00  0.00    -0.501 OA
ATOM     25  H   LIG A   1      -2.673   6.727 133.333  0.00  0.00    +0.292 HD
ENDBRANCH   9  24
BRANCH  10  26
ATOM     26  O   LIG A   1      -5.317   5.020 134.288  0.00  0.00    -0.503 OA
ATOM     27  H   LIG A   1      -6.192   5.064 134.723  0.00  0.00    +0.292 HD
ENDBRANCH  10  26
TORSDOF 6
ENDMDL
MODEL 4
REMARK VINA RESULT:      -7.2      6.882      8.436
REMARK  Name = NuBBE_128
REMARK  7 active torsions:
REMARK  status: ('A' for Active; 'I' for Inactive)
REMARK    1  A    between atoms: O_1  and  C_2
REMARK    2  A    between atoms: C_5  and  O_6
REMARK    3  A    between atoms: C_8  and  C_9
REMARK    4  A    between atoms: C_16  and  O_17
REMARK    5  A    between atoms: O_17  and  C_18
REMARK    6  A    between atoms: C_19  and  O_20
REMARK    7  A    between atoms: C_21  and  O_22
REMARK                            x       y       z     vdW  Elec       q    Type
REMARK                         _______ _______ _______ _____ _____    ______ ____
ROOT
ATOM      1  C   LIG A   1      -6.143   5.145 130.101  0.00  0.00    +0.139 A 
ATOM      2  O   LIG A   1      -7.355   5.155 129.429  0.00  0.00    -0.454 OA
ATOM      3  C   LIG A   1      -6.024   5.388 131.413  0.00  0.00    +0.098 A 
ATOM      4  C   LIG A   1      -7.215   5.720 132.216  0.00  0.00    +0.197 A 
ATOM      5  C   LIG A   1      -8.508   5.729 131.502  0.00  0.00    +0.109 A 
ATOM      6  C   LIG A   1      -8.502   5.435 130.135  0.00  0.00    +0.146 A 
ATOM      7  C   LIG A   1      -9.691   5.415 129.388  0.00  0.00    +0.096 A 
ATOM      8  C   LIG A   1     -10.906   5.695 130.009  0.00  0.00    +0.169 A 
ATOM      9  C   LIG A   1     -10.903   5.994 131.374  0.00  0.00    +0.202 A 
ATOM     10  C   LIG A   1      -9.723   6.012 132.122  0.00  0.00    +0.177 A 
ATOM     11  O   LIG A   1      -7.072   5.968 133.405  0.00  0.00    -0.287 OA
ENDROOT
BRANCH   1  17
ATOM     12  C   LIG A   1      -2.741   4.216 127.654  0.00  0.00    +0.158 A 
ATOM     13  C   LIG A   1      -3.695   3.237 127.882  0.00  0.00    +0.050 A 
ATOM     14  C   LIG A   1      -4.805   3.539 128.684  0.00  0.00    +0.015 A 
ATOM     15  C   LIG A   1      -2.885   5.478 128.219  0.00  0.00    +0.159 A 
ATOM     16  C   LIG A   1      -3.985   5.787 129.010  0.00  0.00    +0.060 A 
ATOM     17  C   LIG A   1      -4.975   4.819 129.249  0.00  0.00    +0.021 A 
BRANCH  12  18
ATOM     18  O   LIG A   1      -1.637   3.985 126.883  0.00  0.00    -0.503 OA
ATOM     19  H   LIG A   1      -1.488   3.023 126.845  0.00  0.00    +0.292 HD
ENDBRANCH  12  18
BRANCH  15  20
ATOM     20  O   LIG A   1      -1.935   6.435 127.998  0.00  0.00    -0.503 OA
ATOM     21  H   LIG A   1      -1.661   6.718 128.894  0.00  0.00    +0.292 HD
ENDBRANCH  15  20
ENDBRANCH   1  17
BRANCH   8  22
ATOM     22  O   LIG A   1     -12.139   5.714 129.414  0.00  0.00    -0.491 OA
ATOM     23  C   LIG A   1     -12.432   6.837 128.588  0.00  0.00    +0.277 C 
ENDBRANCH   8  22
BRANCH   9  24
ATOM     24  O   LIG A   1     -12.079   6.281 132.024  0.00  0.00    -0.501 OA
ATOM     25  H   LIG A   1     -12.053   7.248 132.175  0.00  0.00    +0.292 HD
ENDBRANCH   9  24
BRANCH  10  26
ATOM     26  O   LIG A   1      -9.821   6.314 133.451  0.00  0.00    -0.503 OA
ATOM     27  H   LIG A   1     -10.776   6.291 133.660  0.00  0.00    +0.292 HD
ENDBRANCH  10  26
TORSDOF 6
ENDMDL
MODEL 5
REMARK VINA RESULT:      -7.1      7.010      8.698
REMARK  Name = NuBBE_128
REMARK  7 active torsions:
REMARK  status: ('A' for Active; 'I' for Inactive)
REMARK    1  A    between atoms: O_1  and  C_2
REMARK    2  A    between atoms: C_5  and  O_6
REMARK    3  A    between atoms: C_8  and  C_9
REMARK    4  A    between atoms: C_16  and  O_17
REMARK    5  A    between atoms: O_17  and  C_18
REMARK    6  A    between atoms: C_19  and  O_20
REMARK    7  A    between atoms: C_21  and  O_22
REMARK                            x       y       z     vdW  Elec       q    Type
REMARK                         _______ _______ _______ _____ _____    ______ ____
ROOT
ATOM      1  C   LIG A   1     -10.296   5.384 130.951  0.00  0.00    +0.139 A 
ATOM      2  O   LIG A   1      -9.949   4.431 130.006  0.00  0.00    -0.454 OA
ATOM      3  C   LIG A   1     -10.000   5.275 132.253  0.00  0.00    +0.098 A 
ATOM      4  C   LIG A   1      -9.301   4.079 132.756  0.00  0.00    +0.197 A 
ATOM      5  C   LIG A   1      -8.929   3.062 131.751  0.00  0.00    +0.109 A 
ATOM      6  C   LIG A   1      -9.274   3.305 130.417  0.00  0.00    +0.146 A 
ATOM      7  C   LIG A   1      -8.947   2.391 129.402  0.00  0.00    +0.096 A 
ATOM      8  C   LIG A   1      -8.272   1.215 129.717  0.00  0.00    +0.169 A 
ATOM      9  C   LIG A   1      -7.936   0.977 131.052  0.00  0.00    +0.202 A 
ATOM     10  C   LIG A   1      -8.255   1.884 132.065  0.00  0.00    +0.177 A 
ATOM     11  O   LIG A   1      -9.072   3.993 133.954  0.00  0.00    -0.287 OA
ENDROOT
BRANCH   1  17
ATOM     12  C   LIG A   1     -12.356   8.778 129.320  0.00  0.00    +0.158 A 
ATOM     13  C   LIG A   1     -12.846   8.180 130.472  0.00  0.00    +0.050 A 
ATOM     14  C   LIG A   1     -12.175   7.070 131.002  0.00  0.00    +0.015 A 
ATOM     15  C   LIG A   1     -11.217   8.276 128.702  0.00  0.00    +0.159 A 
ATOM     16  C   LIG A   1     -10.543   7.179 129.226  0.00  0.00    +0.060 A 
ATOM     17  C   LIG A   1     -11.008   6.560 130.398  0.00  0.00    +0.021 A 
BRANCH  12  18
ATOM     18  O   LIG A   1     -12.965   9.862 128.753  0.00  0.00    -0.503 OA
ATOM     19  H   LIG A   1     -13.821   9.998 129.196  0.00  0.00    +0.292 HD
ENDBRANCH  12  18
BRANCH  15  20
ATOM     20  O   LIG A   1     -10.746   8.863 127.562  0.00  0.00    -0.503 OA
ATOM     21  H   LIG A   1     -11.228   8.414 126.839  0.00  0.00    +0.292 HD
ENDBRANCH  15  20
ENDBRANCH   1  17
BRANCH   8  22
ATOM     22  O   LIG A   1      -7.890   0.235 128.839  0.00  0.00    -0.491 OA
ATOM     23  C   LIG A   1      -7.936   0.565 127.455  0.00  0.00    +0.277 C 
ENDBRANCH   8  22
BRANCH   9  24
ATOM     24  O   LIG A   1      -7.274  -0.174 131.407  0.00  0.00    -0.501 OA
ATOM     25  H   LIG A   1      -7.377  -0.235 132.378  0.00  0.00    +0.292 HD
ENDBRANCH   9  24
BRANCH  10  26
ATOM     26  O   LIG A   1      -7.885   1.564 133.341  0.00  0.00    -0.503 OA
ATOM     27  H   LIG A   1      -7.100   2.114 133.537  0.00  0.00    +0.292 HD
ENDBRANCH  10  26
TORSDOF 6
ENDMDL
MODEL 6
REMARK VINA RESULT:      -6.9      3.027      4.789
REMARK  Name = NuBBE_128
REMARK  7 active torsions:
REMARK  status: ('A' for Active; 'I' for Inactive)
REMARK    1  A    between atoms: O_1  and  C_2
REMARK    2  A    between atoms: C_5  and  O_6
REMARK    3  A    between atoms: C_8  and  C_9
REMARK    4  A    between atoms: C_16  and  O_17
REMARK    5  A    between atoms: O_17  and  C_18
REMARK    6  A    between atoms: C_19  and  O_20
REMARK    7  A    between atoms: C_21  and  O_22
REMARK                            x       y       z     vdW  Elec       q    Type
REMARK                         _______ _______ _______ _____ _____    ______ ____
ROOT
ATOM      1  C   LIG A   1      -6.010   2.685 125.352  0.00  0.00    +0.139 A 
ATOM      2  O   LIG A   1      -6.030   1.311 125.532  0.00  0.00    -0.454 OA
ATOM      3  C   LIG A   1      -6.895   3.344 124.592  0.00  0.00    +0.098 A 
ATOM      4  C   LIG A   1      -7.942   2.605 123.865  0.00  0.00    +0.197 A 
ATOM      5  C   LIG A   1      -7.967   1.140 124.056  0.00  0.00    +0.109 A 
ATOM      6  C   LIG A   1      -7.001   0.574 124.895  0.00  0.00    +0.146 A 
ATOM      7  C   LIG A   1      -6.965  -0.810 125.134  0.00  0.00    +0.096 A 
ATOM      8  C   LIG A   1      -7.900  -1.645 124.527  0.00  0.00    +0.169 A 
ATOM      9  C   LIG A   1      -8.857  -1.072 123.687  0.00  0.00    +0.202 A 
ATOM     10  C   LIG A   1      -8.900   0.304 123.447  0.00  0.00    +0.177 A 
ATOM     11  O   LIG A   1      -8.717   3.230 123.154  0.00  0.00    -0.287 OA
ENDROOT
BRANCH   1  17
ATOM     12  C   LIG A   1      -2.909   4.713 127.520  0.00  0.00    +0.158 A 
ATOM     13  C   LIG A   1      -2.694   3.411 127.094  0.00  0.00    +0.050 A 
ATOM     14  C   LIG A   1      -3.707   2.748 126.389  0.00  0.00    +0.015 A 
ATOM     15  C   LIG A   1      -4.117   5.345 127.252  0.00  0.00    +0.159 A 
ATOM     16  C   LIG A   1      -5.124   4.696 126.548  0.00  0.00    +0.060 A 
ATOM     17  C   LIG A   1      -4.931   3.381 126.093  0.00  0.00    +0.021 A 
BRANCH  12  18
ATOM     18  O   LIG A   1      -1.961   5.414 128.212  0.00  0.00    -0.503 OA
ATOM     19  H   LIG A   1      -1.482   5.982 127.582  0.00  0.00    +0.292 HD
ENDBRANCH  12  18
BRANCH  15  20
ATOM     20  O   LIG A   1      -4.326   6.624 127.684  0.00  0.00    -0.503 OA
ATOM     21  H   LIG A   1      -3.503   6.860 128.157  0.00  0.00    +0.292 HD
ENDBRANCH  15  20
ENDBRANCH   1  17
BRANCH   8  22
ATOM     22  O   LIG A   1      -7.987  -3.005 124.664  0.00  0.00    -0.491 OA
ATOM     23  C   LIG A   1      -8.480  -3.490 125.909  0.00  0.00    +0.277 C 
ENDBRANCH   8  22
BRANCH   9  24
ATOM     24  O   LIG A   1      -9.795  -1.861 123.064  0.00  0.00    -0.501 OA
ATOM     25  H   LIG A   1      -9.668  -1.696 122.107  0.00  0.00    +0.292 HD
ENDBRANCH   9  24
BRANCH  10  26
ATOM     26  O   LIG A   1      -9.874   0.771 122.610  0.00  0.00    -0.503 OA
ATOM     27  H   LIG A   1     -10.445   0.003 122.411  0.00  0.00    +0.292 HD
ENDBRANCH  10  26
TORSDOF 6
ENDMDL
MODEL 7
REMARK VINA RESULT:      -6.8      4.597      9.299
REMARK  Name = NuBBE_128
REMARK  7 active torsions:
REMARK  status: ('A' for Active; 'I' for Inactive)
REMARK    1  A    between atoms: O_1  and  C_2
REMARK    2  A    between atoms: C_5  and  O_6
REMARK    3  A    between atoms: C_8  and  C_9
REMARK    4  A    between atoms: C_16  and  O_17
REMARK    5  A    between atoms: O_17  and  C_18
REMARK    6  A    between atoms: C_19  and  O_20
REMARK    7  A    between atoms: C_21  and  O_22
REMARK                            x       y       z     vdW  Elec       q    Type
REMARK                         _______ _______ _______ _____ _____    ______ ____
ROOT
ATOM      1  C   LIG A   1      -6.571  -3.258 129.188  0.00  0.00    +0.139 A 
ATOM      2  O   LIG A   1      -6.153  -2.352 128.226  0.00  0.00    -0.454 OA
ATOM      3  C   LIG A   1      -7.745  -3.902 129.136  0.00  0.00    +0.098 A 
ATOM      4  C   LIG A   1      -8.686  -3.638 128.032  0.00  0.00    +0.197 A 
ATOM      5  C   LIG A   1      -8.241  -2.674 127.005  0.00  0.00    +0.109 A 
ATOM      6  C   LIG A   1      -6.982  -2.086 127.161  0.00  0.00    +0.146 A 
ATOM      7  C   LIG A   1      -6.485  -1.166 126.223  0.00  0.00    +0.096 A 
ATOM      8  C   LIG A   1      -7.253  -0.822 125.113  0.00  0.00    +0.169 A 
ATOM      9  C   LIG A   1      -8.512  -1.409 124.967  0.00  0.00    +0.202 A 
ATOM     10  C   LIG A   1      -9.010  -2.327 125.896  0.00  0.00    +0.177 A 
ATOM     11  O   LIG A   1      -9.763  -4.217 128.027  0.00  0.00    -0.287 OA
ENDROOT
BRANCH   1  17
ATOM     12  C   LIG A   1      -3.751  -3.868 132.366  0.00  0.00    +0.158 A 
ATOM     13  C   LIG A   1      -4.768  -4.791 132.180  0.00  0.00    +0.050 A 
ATOM     14  C   LIG A   1      -5.691  -4.590 131.145  0.00  0.00    +0.015 A 
ATOM     15  C   LIG A   1      -3.654  -2.758 131.535  0.00  0.00    +0.159 A 
ATOM     16  C   LIG A   1      -4.562  -2.555 130.503  0.00  0.00    +0.060 A 
ATOM     17  C   LIG A   1      -5.596  -3.479 130.282  0.00  0.00    +0.021 A 
BRANCH  12  18
ATOM     18  O   LIG A   1      -2.820  -4.006 133.357  0.00  0.00    -0.503 OA
ATOM     19  H   LIG A   1      -3.134  -3.518 134.139  0.00  0.00    +0.292 HD
ENDBRANCH  12  18
BRANCH  15  20
ATOM     20  O   LIG A   1      -2.655  -1.847 131.731  0.00  0.00    -0.503 OA
ATOM     21  H   LIG A   1      -2.609  -1.739 132.702  0.00  0.00    +0.292 HD
ENDBRANCH  15  20
ENDBRANCH   1  17
BRANCH   8  22
ATOM     22  O   LIG A   1      -6.903   0.055 124.121  0.00  0.00    -0.491 OA
ATOM     23  C   LIG A   1      -6.848   1.432 124.477  0.00  0.00    +0.277 C 
ENDBRANCH   8  22
BRANCH   9  24
ATOM     24  O   LIG A   1      -9.304  -1.094 123.890  0.00  0.00    -0.501 OA
ATOM     25  H   LIG A   1      -9.088  -0.162 123.682  0.00  0.00    +0.292 HD
ENDBRANCH   9  24
BRANCH  10  26
ATOM     26  O   LIG A   1     -10.252  -2.848 125.667  0.00  0.00    -0.503 OA
ATOM     27  H   LIG A   1     -10.527  -2.510 124.792  0.00  0.00    +0.292 HD
ENDBRANCH  10  26
TORSDOF 6
ENDMDL
MODEL 8
REMARK VINA RESULT:      -6.8      3.033      8.113
REMARK  Name = NuBBE_128
REMARK  7 active torsions:
REMARK  status: ('A' for Active; 'I' for Inactive)
REMARK    1  A    between atoms: O_1  and  C_2
REMARK    2  A    between atoms: C_5  and  O_6
REMARK    3  A    between atoms: C_8  and  C_9
REMARK    4  A    between atoms: C_16  and  O_17
REMARK    5  A    between atoms: O_17  and  C_18
REMARK    6  A    between atoms: C_19  and  O_20
REMARK    7  A    between atoms: C_21  and  O_22
REMARK                            x       y       z     vdW  Elec       q    Type
REMARK                         _______ _______ _______ _____ _____    ______ ____
ROOT
ATOM      1  C   LIG A   1      -7.392  -1.977 126.695  0.00  0.00    +0.139 A 
ATOM      2  O   LIG A   1      -7.090  -0.656 126.401  0.00  0.00    -0.454 OA
ATOM      3  C   LIG A   1      -8.252  -2.715 125.980  0.00  0.00    +0.098 A 
ATOM      4  C   LIG A   1      -8.961  -2.122 124.832  0.00  0.00    +0.197 A 
ATOM      5  C   LIG A   1      -8.639  -0.715 124.515  0.00  0.00    +0.109 A 
ATOM      6  C   LIG A   1      -7.706  -0.060 125.325  0.00  0.00    +0.146 A 
ATOM      7  C   LIG A   1      -7.341   1.275 125.083  0.00  0.00    +0.096 A 
ATOM      8  C   LIG A   1      -7.915   1.971 124.023  0.00  0.00    +0.169 A 
ATOM      9  C   LIG A   1      -8.851   1.312 123.223  0.00  0.00    +0.202 A 
ATOM     10  C   LIG A   1      -9.216  -0.017 123.457  0.00  0.00    +0.177 A 
ATOM     11  O   LIG A   1      -9.762  -2.811 124.217  0.00  0.00    -0.287 OA
ENDROOT
BRANCH   1  17
ATOM     12  C   LIG A   1      -5.267  -3.531 130.085  0.00  0.00    +0.158 A 
ATOM     13  C   LIG A   1      -6.631  -3.761 129.980  0.00  0.00    +0.050 A 
ATOM     14  C   LIG A   1      -7.325  -3.251 128.875  0.00  0.00    +0.015 A 
ATOM     15  C   LIG A   1      -4.604  -2.800 129.107  0.00  0.00    +0.159 A 
ATOM     16  C   LIG A   1      -5.285  -2.296 128.005  0.00  0.00    +0.060 A 
ATOM     17  C   LIG A   1      -6.664  -2.523 127.864  0.00  0.00    +0.021 A 
BRANCH  12  18
ATOM     18  O   LIG A   1      -4.533  -4.001 131.138  0.00  0.00    -0.503 OA
ATOM     19  H   LIG A   1      -3.873  -4.628 130.793  0.00  0.00    +0.292 HD
ENDBRANCH  12  18
BRANCH  15  20
ATOM     20  O   LIG A   1      -3.263  -2.569 129.222  0.00  0.00    -0.503 OA
ATOM     21  H   LIG A   1      -2.871  -3.003 128.438  0.00  0.00    +0.292 HD
ENDBRANCH  15  20
ENDBRANCH   1  17
BRANCH   8  22
ATOM     22  O   LIG A   1      -7.661   3.269 123.668  0.00  0.00    -0.491 OA
ATOM     23  C   LIG A   1      -6.387   3.534 123.089  0.00  0.00    +0.277 C 
ENDBRANCH   8  22
BRANCH   9  24
ATOM     24  O   LIG A   1      -9.446   1.964 122.169  0.00  0.00    -0.501 OA
ATOM     25  H   LIG A   1      -9.763   2.811 122.544  0.00  0.00    +0.292 HD
ENDBRANCH   9  24
BRANCH  10  26
ATOM     26  O   LIG A   1     -10.139  -0.577 122.619  0.00  0.00    -0.503 OA
ATOM     27  H   LIG A   1     -11.011  -0.277 122.944  0.00  0.00    +0.292 HD
ENDBRANCH  10  26
TORSDOF 6
ENDMDL
MODEL 9
REMARK VINA RESULT:      -6.5      3.670      8.766
REMARK  Name = NuBBE_128
REMARK  7 active torsions:
REMARK  status: ('A' for Active; 'I' for Inactive)
REMARK    1  A    between atoms: O_1  and  C_2
REMARK    2  A    between atoms: C_5  and  O_6
REMARK    3  A    between atoms: C_8  and  C_9
REMARK    4  A    between atoms: C_16  and  O_17
REMARK    5  A    between atoms: O_17  and  C_18
REMARK    6  A    between atoms: C_19  and  O_20
REMARK    7  A    between atoms: C_21  and  O_22
REMARK                            x       y       z     vdW  Elec       q    Type
REMARK                         _______ _______ _______ _____ _____    ______ ____
ROOT
ATOM      1  C   LIG A   1      -8.002  -1.890 127.792  0.00  0.00    +0.139 A 
ATOM      2  O   LIG A   1      -8.068  -0.515 127.634  0.00  0.00    -0.454 OA
ATOM      3  C   LIG A   1      -8.302  -2.761 126.820  0.00  0.00    +0.098 A 
ATOM      4  C   LIG A   1      -8.762  -2.275 125.506  0.00  0.00    +0.197 A 
ATOM      5  C   LIG A   1      -8.831  -0.810 125.334  0.00  0.00    +0.109 A 
ATOM      6  C   LIG A   1      -8.468  -0.006 126.420  0.00  0.00    +0.146 A 
ATOM      7  C   LIG A   1      -8.498   1.395 126.332  0.00  0.00    +0.096 A 
ATOM      8  C   LIG A   1      -8.899   2.009 125.148  0.00  0.00    +0.169 A 
ATOM      9  C   LIG A   1      -9.266   1.199 124.070  0.00  0.00    +0.202 A 
ATOM     10  C   LIG A   1      -9.235  -0.195 124.151  0.00  0.00    +0.177 A 
ATOM     11  O   LIG A   1      -9.058  -3.094 124.647  0.00  0.00    -0.287 OA
ENDROOT
BRANCH   1  17
ATOM     12  C   LIG A   1      -6.715  -3.154 131.687  0.00  0.00    +0.158 A 
ATOM     13  C   LIG A   1      -6.346  -3.902 130.579  0.00  0.00    +0.050 A 
ATOM     14  C   LIG A   1      -6.770  -3.491 129.308  0.00  0.00    +0.015 A 
ATOM     15  C   LIG A   1      -7.497  -2.016 131.534  0.00  0.00    +0.159 A 
ATOM     16  C   LIG A   1      -7.915  -1.599 130.275  0.00  0.00    +0.060 A 
ATOM     17  C   LIG A   1      -7.548  -2.329 129.133  0.00  0.00    +0.021 A 
BRANCH  12  18
ATOM     18  O   LIG A   1      -6.336  -3.502 132.953  0.00  0.00    -0.503 OA
ATOM     19  H   LIG A   1      -5.520  -4.030 132.893  0.00  0.00    +0.292 HD
ENDBRANCH  12  18
BRANCH  15  20
ATOM     20  O   LIG A   1      -7.865  -1.290 132.631  0.00  0.00    -0.503 OA
ATOM     21  H   LIG A   1      -7.504  -1.793 133.389  0.00  0.00    +0.292 HD
ENDBRANCH  15  20
ENDBRANCH   1  17
BRANCH   8  22
ATOM     22  O   LIG A   1      -8.980   3.356 124.915  0.00  0.00    -0.491 OA
ATOM     23  C   LIG A   1      -7.864   4.141 125.321  0.00  0.00    +0.277 C 
ENDBRANCH   8  22
BRANCH   9  24
ATOM     24  O   LIG A   1      -9.673   1.764 122.885  0.00  0.00    -0.501 OA
ATOM     25  H   LIG A   1      -9.601   2.729 123.027  0.00  0.00    +0.292 HD
ENDBRANCH   9  24
BRANCH  10  26
ATOM     26  O   LIG A   1      -9.610  -0.902 123.043  0.00  0.00    -0.503 OA
ATOM     27  H   LIG A   1      -8.864  -0.831 122.415  0.00  0.00    +0.292 HD
ENDBRANCH  10  26
TORSDOF 6
ENDMDL
