MODEL 1
REMARK VINA RESULT:      -9.2      0.000      0.000
REMARK  Name = NuBBE_952
REMARK  9 active torsions:
REMARK  status: ('A' for Active; 'I' for Inactive)
REMARK    1  A    between atoms: C_5  and  C_6
REMARK    2  A    between atoms: C_8  and  C_9
REMARK    3  A    between atoms: C_8  and  C_10
REMARK    4  A    between atoms: C_14  and  C_15
REMARK    5  A    between atoms: C_17  and  O_19
REMARK    6  A    between atoms: O_19  and  C_20
REMARK    7  A    between atoms: C_20  and  C_21
REMARK    8  A    between atoms: C_24  and  C_25
REMARK    9  A    between atoms: C_32  and  C_34
REMARK                            x       y       z     vdW  Elec       q    Type
REMARK                         _______ _______ _______ _____ _____    ______ ____
ROOT
ATOM      1  O   LIG A   1      -9.765  -2.975 123.837  0.00  0.00    -0.246 OA
ATOM      2  C   LIG A   1      -8.832  -2.500 124.468  0.00  0.00    +0.332 C 
ATOM      3  C   LIG A   1      -9.050  -1.498 125.526  0.00  0.00    +0.088 C 
ATOM      4  C   LIG A   1      -8.134  -0.821 126.242  0.00  0.00    -0.012 C 
ATOM      5  C   LIG A   1      -6.617  -0.855 126.113  0.00  0.00    +0.000 C 
ATOM      6  C   LIG A   1      -6.118  -2.115 126.871  0.00  0.00    +0.016 C 
ATOM      7  C   LIG A   1      -6.218  -0.865 124.594  0.00  0.00    +0.050 C 
ATOM      8  C   LIG A   1      -6.539  -2.187 123.793  0.00  0.00    +0.112 C 
ATOM      9  C   LIG A   1      -6.899  -1.995 122.306  0.00  0.00    +0.056 C 
ATOM     10  C   LIG A   1      -5.288  -3.098 123.805  0.00  0.00    +0.056 C 
ATOM     11  O   LIG A   1      -7.576  -2.982 124.409  0.00  0.00    -0.455 OA
ATOM     12  C   LIG A   1      -6.796   0.394 123.926  0.00  0.00    +0.083 C 
ATOM     13  C   LIG A   1      -6.328   1.681 124.551  0.00  0.00    +0.143 C 
ATOM     14  C   LIG A   1      -6.126   1.811 126.084  0.00  0.00    +0.066 C 
ATOM     15  C   LIG A   1      -4.805   2.643 126.158  0.00  0.00    +0.022 C 
ATOM     16  C   LIG A   1      -5.887   0.419 126.780  0.00  0.00    +0.056 C 
ATOM     17  C   LIG A   1      -6.086   0.469 128.329  0.00  0.00    +0.182 C 
ATOM     18  C   LIG A   1      -6.240   1.847 128.963  0.00  0.00    +0.058 C 
ATOM     19  C   LIG A   1      -7.330   2.712 128.318  0.00  0.00    +0.045 C 
ATOM     20  C   LIG A   1      -8.718   2.232 128.815  0.00  0.00    +0.018 C 
ATOM     21  C   LIG A   1      -7.241   2.638 126.776  0.00  0.00    +0.129 C 
ATOM     22  O   LIG A   1      -8.504   2.608 126.100  0.00  0.00    -0.351 OA
ATOM     23  C   LIG A   1      -7.810   3.869 126.077  0.00  0.00    +0.260 C 
ATOM     24  C   LIG A   1      -8.464   4.956 126.842  0.00  0.00    +0.340 C 
ATOM     25  O   LIG A   1      -8.128   5.058 128.158  0.00  0.00    -0.454 OA
ATOM     26  C   LIG A   1      -7.096   4.217 128.718  0.00  0.00    +0.218 C 
ATOM     27  O   LIG A   1      -9.254   5.714 126.312  0.00  0.00    -0.248 OA
ATOM     28  O   LIG A   1      -6.178   2.660 123.807  0.00  0.00    -0.297 OA
ENDROOT
BRANCH  26  29
ATOM     29  C   LIG A   1      -7.018   4.486 130.206  0.00  0.00    +0.031 A 
ATOM     30  C   LIG A   1      -5.888   4.620 130.996  0.00  0.00    +0.202 A 
ATOM     31  O   LIG A   1      -6.219   4.918 132.279  0.00  0.00    -0.471 OA
ATOM     32  C   LIG A   1      -7.570   4.998 132.331  0.00  0.00    +0.195 A 
ATOM     33  C   LIG A   1      -8.110   4.735 131.095  0.00  0.00    +0.048 A 
ENDBRANCH  26  29
BRANCH  17  34
ATOM     34  O   LIG A   1      -5.091  -0.291 129.072  0.00  0.00    -0.461 OA
BRANCH  34  35
ATOM     35  C   LIG A   1      -5.368  -0.737 130.327  0.00  0.00    +0.304 C 
ATOM     36  C   LIG A   1      -6.720  -1.381 130.356  0.00  0.00    +0.136 C 
ATOM     37  O   LIG A   1      -4.658  -0.585 131.309  0.00  0.00    -0.251 OA
ENDBRANCH  34  35
ENDBRANCH  17  34
TORSDOF 3
ENDMDL
MODEL 2
REMARK VINA RESULT:      -9.1      2.593      6.062
REMARK  Name = NuBBE_952
REMARK  9 active torsions:
REMARK  status: ('A' for Active; 'I' for Inactive)
REMARK    1  A    between atoms: C_5  and  C_6
REMARK    2  A    between atoms: C_8  and  C_9
REMARK    3  A    between atoms: C_8  and  C_10
REMARK    4  A    between atoms: C_14  and  C_15
REMARK    5  A    between atoms: C_17  and  O_19
REMARK    6  A    between atoms: O_19  and  C_20
REMARK    7  A    between atoms: C_20  and  C_21
REMARK    8  A    between atoms: C_24  and  C_25
REMARK    9  A    between atoms: C_32  and  C_34
REMARK                            x       y       z     vdW  Elec       q    Type
REMARK                         _______ _______ _______ _____ _____    ______ ____
ROOT
ATOM      1  O   LIG A   1      -9.173   0.116 131.844  0.00  0.00    -0.246 OA
ATOM      2  C   LIG A   1      -8.267   0.121 131.025  0.00  0.00    +0.332 C 
ATOM      3  C   LIG A   1      -8.319   0.975 129.825  0.00  0.00    +0.088 C 
ATOM      4  C   LIG A   1      -7.455   1.029 128.796  0.00  0.00    -0.012 C 
ATOM      5  C   LIG A   1      -6.216   0.176 128.552  0.00  0.00    +0.000 C 
ATOM      6  C   LIG A   1      -5.067   0.778 129.405  0.00  0.00    +0.016 C 
ATOM      7  C   LIG A   1      -6.526  -1.319 128.922  0.00  0.00    +0.050 C 
ATOM      8  C   LIG A   1      -6.718  -1.636 130.457  0.00  0.00    +0.112 C 
ATOM      9  C   LIG A   1      -7.719  -2.762 130.785  0.00  0.00    +0.056 C 
ATOM     10  C   LIG A   1      -5.363  -2.099 131.047  0.00  0.00    +0.056 C 
ATOM     11  O   LIG A   1      -7.076  -0.472 131.234  0.00  0.00    -0.455 OA
ATOM     12  C   LIG A   1      -7.703  -1.805 128.060  0.00  0.00    +0.083 C 
ATOM     13  C   LIG A   1      -7.452  -1.705 126.579  0.00  0.00    +0.143 C 
ATOM     14  C   LIG A   1      -6.667  -0.513 125.970  0.00  0.00    +0.066 C 
ATOM     15  C   LIG A   1      -5.784  -1.233 124.898  0.00  0.00    +0.022 C 
ATOM     16  C   LIG A   1      -5.722   0.185 127.017  0.00  0.00    +0.056 C 
ATOM     17  C   LIG A   1      -5.243   1.600 126.560  0.00  0.00    +0.182 C 
ATOM     18  C   LIG A   1      -5.543   2.000 125.120  0.00  0.00    +0.058 C 
ATOM     19  C   LIG A   1      -7.016   1.849 124.725  0.00  0.00    +0.045 C 
ATOM     20  C   LIG A   1      -7.824   3.035 125.314  0.00  0.00    +0.018 C 
ATOM     21  C   LIG A   1      -7.577   0.498 125.225  0.00  0.00    +0.129 C 
ATOM     22  O   LIG A   1      -8.925   0.547 125.710  0.00  0.00    -0.351 OA
ATOM     23  C   LIG A   1      -8.751  -0.014 124.396  0.00  0.00    +0.260 C 
ATOM     24  C   LIG A   1      -9.324   0.791 123.292  0.00  0.00    +0.340 C 
ATOM     25  O   LIG A   1      -8.510   1.734 122.744  0.00  0.00    -0.454 OA
ATOM     26  C   LIG A   1      -7.129   1.838 123.154  0.00  0.00    +0.218 C 
ATOM     27  O   LIG A   1     -10.461   0.606 122.901  0.00  0.00    -0.248 OA
ATOM     28  O   LIG A   1      -7.957  -2.570 125.851  0.00  0.00    -0.297 OA
ENDROOT
BRANCH  26  29
ATOM     29  C   LIG A   1      -6.512   3.030 122.452  0.00  0.00    +0.031 A 
ATOM     30  C   LIG A   1      -5.717   4.026 122.992  0.00  0.00    +0.202 A 
ATOM     31  O   LIG A   1      -5.302   4.896 122.035  0.00  0.00    -0.471 OA
ATOM     32  C   LIG A   1      -5.812   4.460 120.857  0.00  0.00    +0.195 A 
ATOM     33  C   LIG A   1      -6.566   3.329 121.056  0.00  0.00    +0.048 A 
ENDBRANCH  26  29
BRANCH  17  34
ATOM     34  O   LIG A   1      -3.841   1.865 126.849  0.00  0.00    -0.461 OA
BRANCH  34  35
ATOM     35  C   LIG A   1      -3.397   3.146 126.966  0.00  0.00    +0.304 C 
ATOM     36  C   LIG A   1      -1.944   3.220 126.612  0.00  0.00    +0.136 C 
ATOM     37  O   LIG A   1      -4.057   4.095 127.361  0.00  0.00    -0.251 OA
ENDBRANCH  34  35
ENDBRANCH  17  34
TORSDOF 3
ENDMDL
MODEL 3
REMARK VINA RESULT:      -8.8      2.052      4.741
REMARK  Name = NuBBE_952
REMARK  9 active torsions:
REMARK  status: ('A' for Active; 'I' for Inactive)
REMARK    1  A    between atoms: C_5  and  C_6
REMARK    2  A    between atoms: C_8  and  C_9
REMARK    3  A    between atoms: C_8  and  C_10
REMARK    4  A    between atoms: C_14  and  C_15
REMARK    5  A    between atoms: C_17  and  O_19
REMARK    6  A    between atoms: O_19  and  C_20
REMARK    7  A    between atoms: C_20  and  C_21
REMARK    8  A    between atoms: C_24  and  C_25
REMARK    9  A    between atoms: C_32  and  C_34
REMARK                            x       y       z     vdW  Elec       q    Type
REMARK                         _______ _______ _______ _____ _____    ______ ____
ROOT
ATOM      1  O   LIG A   1      -5.125  -4.358 123.928  0.00  0.00    -0.246 OA
ATOM      2  C   LIG A   1      -5.661  -3.270 124.071  0.00  0.00    +0.332 C 
ATOM      3  C   LIG A   1      -4.946  -2.135 124.682  0.00  0.00    +0.088 C 
ATOM      4  C   LIG A   1      -5.417  -0.913 124.988  0.00  0.00    -0.012 C 
ATOM      5  C   LIG A   1      -6.839  -0.384 124.849  0.00  0.00    +0.000 C 
ATOM      6  C   LIG A   1      -7.032   0.034 123.366  0.00  0.00    +0.016 C 
ATOM      7  C   LIG A   1      -7.859  -1.489 125.305  0.00  0.00    +0.050 C 
ATOM      8  C   LIG A   1      -7.996  -2.748 124.362  0.00  0.00    +0.112 C 
ATOM      9  C   LIG A   1      -8.308  -4.081 125.071  0.00  0.00    +0.056 C 
ATOM     10  C   LIG A   1      -9.169  -2.514 123.379  0.00  0.00    +0.056 C 
ATOM     11  O   LIG A   1      -6.844  -2.946 123.514  0.00  0.00    -0.455 OA
ATOM     12  C   LIG A   1      -7.555  -1.865 126.764  0.00  0.00    +0.083 C 
ATOM     13  C   LIG A   1      -7.628  -0.703 127.718  0.00  0.00    +0.143 C 
ATOM     14  C   LIG A   1      -7.135   0.711 127.311  0.00  0.00    +0.066 C 
ATOM     15  C   LIG A   1      -8.242   1.622 127.936  0.00  0.00    +0.022 C 
ATOM     16  C   LIG A   1      -7.130   0.921 125.751  0.00  0.00    +0.056 C 
ATOM     17  C   LIG A   1      -6.275   2.150 125.303  0.00  0.00    +0.182 C 
ATOM     18  C   LIG A   1      -5.779   3.085 126.400  0.00  0.00    +0.058 C 
ATOM     19  C   LIG A   1      -5.029   2.375 127.533  0.00  0.00    +0.045 C 
ATOM     20  C   LIG A   1      -3.594   2.034 127.056  0.00  0.00    +0.018 C 
ATOM     21  C   LIG A   1      -5.784   1.097 127.967  0.00  0.00    +0.129 C 
ATOM     22  O   LIG A   1      -4.944  -0.019 128.289  0.00  0.00    -0.351 OA
ATOM     23  C   LIG A   1      -5.504   0.688 129.410  0.00  0.00    +0.260 C 
ATOM     24  C   LIG A   1      -4.519   1.421 130.241  0.00  0.00    +0.340 C 
ATOM     25  O   LIG A   1      -4.243   2.700 129.867  0.00  0.00    -0.454 OA
ATOM     26  C   LIG A   1      -4.977   3.323 128.789  0.00  0.00    +0.218 C 
ATOM     27  O   LIG A   1      -3.996   0.898 131.206  0.00  0.00    -0.248 OA
ATOM     28  O   LIG A   1      -8.028  -0.927 128.869  0.00  0.00    -0.297 OA
ENDROOT
BRANCH  26  29
ATOM     29  C   LIG A   1      -4.384   4.695 128.540  0.00  0.00    +0.031 A 
ATOM     30  C   LIG A   1      -4.966   5.933 128.757  0.00  0.00    +0.202 A 
ATOM     31  O   LIG A   1      -4.100   6.938 128.469  0.00  0.00    -0.471 OA
ATOM     32  C   LIG A   1      -2.938   6.360 128.078  0.00  0.00    +0.195 A 
ATOM     33  C   LIG A   1      -3.059   4.992 128.095  0.00  0.00    +0.048 A 
ENDBRANCH  26  29
BRANCH  17  34
ATOM     34  O   LIG A   1      -6.891   2.937 124.244  0.00  0.00    -0.461 OA
BRANCH  34  35
ATOM     35  C   LIG A   1      -8.209   3.266 124.315  0.00  0.00    +0.304 C 
ATOM     36  C   LIG A   1      -8.944   2.693 123.143  0.00  0.00    +0.136 C 
ATOM     37  O   LIG A   1      -8.721   3.976 125.168  0.00  0.00    -0.251 OA
ENDBRANCH  34  35
ENDBRANCH  17  34
TORSDOF 3
ENDMDL
MODEL 4
REMARK VINA RESULT:      -8.6      2.148      6.257
REMARK  Name = NuBBE_952
REMARK  9 active torsions:
REMARK  status: ('A' for Active; 'I' for Inactive)
REMARK    1  A    between atoms: C_5  and  C_6
REMARK    2  A    between atoms: C_8  and  C_9
REMARK    3  A    between atoms: C_8  and  C_10
REMARK    4  A    between atoms: C_14  and  C_15
REMARK    5  A    between atoms: C_17  and  O_19
REMARK    6  A    between atoms: O_19  and  C_20
REMARK    7  A    between atoms: C_20  and  C_21
REMARK    8  A    between atoms: C_24  and  C_25
REMARK    9  A    between atoms: C_32  and  C_34
REMARK                            x       y       z     vdW  Elec       q    Type
REMARK                         _______ _______ _______ _____ _____    ______ ____
ROOT
ATOM      1  O   LIG A   1      -3.012  -2.537 131.595  0.00  0.00    -0.246 OA
ATOM      2  C   LIG A   1      -4.071  -2.283 131.040  0.00  0.00    +0.332 C 
ATOM      3  C   LIG A   1      -4.114  -1.530 129.774  0.00  0.00    +0.088 C 
ATOM      4  C   LIG A   1      -5.189  -1.098 129.091  0.00  0.00    -0.012 C 
ATOM      5  C   LIG A   1      -6.661  -1.211 129.470  0.00  0.00    +0.000 C 
ATOM      6  C   LIG A   1      -7.127  -2.641 129.085  0.00  0.00    +0.016 C 
ATOM      7  C   LIG A   1      -6.834  -0.910 131.002  0.00  0.00    +0.050 C 
ATOM      8  C   LIG A   1      -6.263  -1.993 131.999  0.00  0.00    +0.112 C 
ATOM      9  C   LIG A   1      -5.716  -1.449 133.334  0.00  0.00    +0.056 C 
ATOM     10  C   LIG A   1      -7.399  -2.972 132.383  0.00  0.00    +0.056 C 
ATOM     11  O   LIG A   1      -5.247  -2.829 131.402  0.00  0.00    -0.455 OA
ATOM     12  C   LIG A   1      -6.303   0.504 131.288  0.00  0.00    +0.083 C 
ATOM     13  C   LIG A   1      -6.989   1.582 130.492  0.00  0.00    +0.143 C 
ATOM     14  C   LIG A   1      -7.421   1.351 129.020  0.00  0.00    +0.066 C 
ATOM     15  C   LIG A   1      -8.821   2.048 128.989  0.00  0.00    +0.022 C 
ATOM     16  C   LIG A   1      -7.609  -0.174 128.679  0.00  0.00    +0.056 C 
ATOM     17  C   LIG A   1      -7.641  -0.458 127.144  0.00  0.00    +0.182 C 
ATOM     18  C   LIG A   1      -7.727   0.751 126.218  0.00  0.00    +0.058 C 
ATOM     19  C   LIG A   1      -6.654   1.814 126.481  0.00  0.00    +0.045 C 
ATOM     20  C   LIG A   1      -5.308   1.337 125.876  0.00  0.00    +0.018 C 
ATOM     21  C   LIG A   1      -6.512   2.081 127.997  0.00  0.00    +0.129 C 
ATOM     22  O   LIG A   1      -5.169   2.294 128.449  0.00  0.00    -0.351 OA
ATOM     23  C   LIG A   1      -5.982   3.474 128.320  0.00  0.00    +0.260 C 
ATOM     24  C   LIG A   1      -5.563   4.407 127.248  0.00  0.00    +0.340 C 
ATOM     25  O   LIG A   1      -6.094   4.188 126.013  0.00  0.00    -0.454 OA
ATOM     26  C   LIG A   1      -7.100   3.171 125.818  0.00  0.00    +0.218 C 
ATOM     27  O   LIG A   1      -4.791   5.319 127.472  0.00  0.00    -0.248 OA
ATOM     28  O   LIG A   1      -7.134   2.689 131.029  0.00  0.00    -0.297 OA
ENDROOT
BRANCH  26  29
ATOM     29  C   LIG A   1      -7.420   3.095 124.339  0.00  0.00    +0.031 A 
ATOM     30  C   LIG A   1      -8.633   2.807 123.737  0.00  0.00    +0.202 A 
ATOM     31  O   LIG A   1      -8.542   2.891 122.385  0.00  0.00    -0.471 OA
ATOM     32  C   LIG A   1      -7.268   3.252 122.096  0.00  0.00    +0.195 A 
ATOM     33  C   LIG A   1      -6.537   3.382 123.252  0.00  0.00    +0.048 A 
ENDBRANCH  26  29
BRANCH  17  34
ATOM     34  O   LIG A   1      -8.646  -1.435 126.749  0.00  0.00    -0.461 OA
BRANCH  34  35
ATOM     35  C   LIG A   1      -8.586  -2.021 125.523  0.00  0.00    +0.304 C 
ATOM     36  C   LIG A   1      -7.281  -2.739 125.362  0.00  0.00    +0.136 C 
ATOM     37  O   LIG A   1      -9.434  -1.933 124.648  0.00  0.00    -0.251 OA
ENDBRANCH  34  35
ENDBRANCH  17  34
TORSDOF 3
ENDMDL
MODEL 5
REMARK VINA RESULT:      -8.3      2.735      5.936
REMARK  Name = NuBBE_952
REMARK  9 active torsions:
REMARK  status: ('A' for Active; 'I' for Inactive)
REMARK    1  A    between atoms: C_5  and  C_6
REMARK    2  A    between atoms: C_8  and  C_9
REMARK    3  A    between atoms: C_8  and  C_10
REMARK    4  A    between atoms: C_14  and  C_15
REMARK    5  A    between atoms: C_17  and  O_19
REMARK    6  A    between atoms: O_19  and  C_20
REMARK    7  A    between atoms: C_20  and  C_21
REMARK    8  A    between atoms: C_24  and  C_25
REMARK    9  A    between atoms: C_32  and  C_34
REMARK                            x       y       z     vdW  Elec       q    Type
REMARK                         _______ _______ _______ _____ _____    ______ ____
ROOT
ATOM      1  O   LIG A   1      -5.750  -2.906 123.007  0.00  0.00    -0.246 OA
ATOM      2  C   LIG A   1      -6.052  -2.195 123.954  0.00  0.00    +0.332 C 
ATOM      3  C   LIG A   1      -5.272  -2.207 125.204  0.00  0.00    +0.088 C 
ATOM      4  C   LIG A   1      -5.522  -1.558 126.355  0.00  0.00    -0.012 C 
ATOM      5  C   LIG A   1      -6.717  -0.682 126.709  0.00  0.00    +0.000 C 
ATOM      6  C   LIG A   1      -6.453   0.723 126.102  0.00  0.00    +0.016 C 
ATOM      7  C   LIG A   1      -8.033  -1.341 126.161  0.00  0.00    +0.050 C 
ATOM      8  C   LIG A   1      -8.215  -1.345 124.593  0.00  0.00    +0.112 C 
ATOM      9  C   LIG A   1      -8.973  -2.555 124.012  0.00  0.00    +0.056 C 
ATOM     10  C   LIG A   1      -9.039  -0.100 124.180  0.00  0.00    +0.056 C 
ATOM     11  O   LIG A   1      -6.967  -1.209 123.879  0.00  0.00    -0.455 OA
ATOM     12  C   LIG A   1      -8.177  -2.740 126.783  0.00  0.00    +0.083 C 
ATOM     13  C   LIG A   1      -8.218  -2.734 128.287  0.00  0.00    +0.143 C 
ATOM     14  C   LIG A   1      -7.343  -1.756 129.117  0.00  0.00    +0.066 C 
ATOM     15  C   LIG A   1      -8.338  -1.321 130.242  0.00  0.00    +0.022 C 
ATOM     16  C   LIG A   1      -6.919  -0.482 128.296  0.00  0.00    +0.056 C 
ATOM     17  C   LIG A   1      -5.733   0.298 128.949  0.00  0.00    +0.182 C 
ATOM     18  C   LIG A   1      -5.321  -0.120 130.356  0.00  0.00    +0.058 C 
ATOM     19  C   LIG A   1      -5.038  -1.620 130.503  0.00  0.00    +0.045 C 
ATOM     20  C   LIG A   1      -3.642  -1.934 129.906  0.00  0.00    +0.018 C 
ATOM     21  C   LIG A   1      -6.137  -2.451 129.801  0.00  0.00    +0.129 C 
ATOM     22  O   LIG A   1      -5.665  -3.621 129.120  0.00  0.00    -0.351 OA
ATOM     23  C   LIG A   1      -6.306  -3.849 130.388  0.00  0.00    +0.260 C 
ATOM     24  C   LIG A   1      -5.412  -4.349 131.459  0.00  0.00    +0.340 C 
ATOM     25  O   LIG A   1      -4.780  -3.405 132.210  0.00  0.00    -0.454 OA
ATOM     26  C   LIG A   1      -5.079  -2.004 132.030  0.00  0.00    +0.218 C 
ATOM     27  O   LIG A   1      -5.262  -5.541 131.651  0.00  0.00    -0.248 OA
ATOM     28  O   LIG A   1      -8.921  -3.586 128.847  0.00  0.00    -0.297 OA
ENDROOT
BRANCH  26  29
ATOM     29  C   LIG A   1      -4.158  -1.201 132.924  0.00  0.00    +0.031 A 
ATOM     30  C   LIG A   1      -4.479  -0.145 133.760  0.00  0.00    +0.202 A 
ATOM     31  O   LIG A   1      -3.390   0.282 134.451  0.00  0.00    -0.471 OA
ATOM     32  C   LIG A   1      -2.352  -0.506 134.081  0.00  0.00    +0.195 A 
ATOM     33  C   LIG A   1      -2.763  -1.424 133.144  0.00  0.00    +0.048 A 
ENDBRANCH  26  29
BRANCH  17  34
ATOM     34  O   LIG A   1      -5.890   1.745 128.906  0.00  0.00    -0.461 OA
BRANCH  34  35
ATOM     35  C   LIG A   1      -4.827   2.556 129.157  0.00  0.00    +0.304 C 
ATOM     36  C   LIG A   1      -3.777   2.366 128.105  0.00  0.00    +0.136 C 
ATOM     37  O   LIG A   1      -4.703   3.289 130.126  0.00  0.00    -0.251 OA
ENDBRANCH  34  35
ENDBRANCH  17  34
TORSDOF 3
ENDMDL
MODEL 6
REMARK VINA RESULT:      -8.1      1.670      4.888
REMARK  Name = NuBBE_952
REMARK  9 active torsions:
REMARK  status: ('A' for Active; 'I' for Inactive)
REMARK    1  A    between atoms: C_5  and  C_6
REMARK    2  A    between atoms: C_8  and  C_9
REMARK    3  A    between atoms: C_8  and  C_10
REMARK    4  A    between atoms: C_14  and  C_15
REMARK    5  A    between atoms: C_17  and  O_19
REMARK    6  A    between atoms: O_19  and  C_20
REMARK    7  A    between atoms: C_20  and  C_21
REMARK    8  A    between atoms: C_24  and  C_25
REMARK    9  A    between atoms: C_32  and  C_34
REMARK                            x       y       z     vdW  Elec       q    Type
REMARK                         _______ _______ _______ _____ _____    ______ ____
ROOT
ATOM      1  O   LIG A   1      -5.183  -2.837 123.442  0.00  0.00    -0.246 OA
ATOM      2  C   LIG A   1      -5.873  -2.132 124.164  0.00  0.00    +0.332 C 
ATOM      3  C   LIG A   1      -5.270  -1.217 125.148  0.00  0.00    +0.088 C 
ATOM      4  C   LIG A   1      -5.883  -0.449 126.067  0.00  0.00    -0.012 C 
ATOM      5  C   LIG A   1      -7.370  -0.361 126.388  0.00  0.00    +0.000 C 
ATOM      6  C   LIG A   1      -8.015   0.577 125.332  0.00  0.00    +0.016 C 
ATOM      7  C   LIG A   1      -7.995  -1.803 126.380  0.00  0.00    +0.050 C 
ATOM      8  C   LIG A   1      -8.112  -2.508 124.972  0.00  0.00    +0.112 C 
ATOM      9  C   LIG A   1      -7.958  -4.042 124.980  0.00  0.00    +0.056 C 
ATOM     10  C   LIG A   1      -9.519  -2.234 124.388  0.00  0.00    +0.056 C 
ATOM     11  O   LIG A   1      -7.199  -1.968 123.992  0.00  0.00    -0.455 OA
ATOM     12  C   LIG A   1      -7.260  -2.663 127.420  0.00  0.00    +0.083 C 
ATOM     13  C   LIG A   1      -7.320  -2.107 128.818  0.00  0.00    +0.143 C 
ATOM     14  C   LIG A   1      -7.242  -0.580 129.087  0.00  0.00    +0.066 C 
ATOM     15  C   LIG A   1      -8.312  -0.404 130.213  0.00  0.00    +0.022 C 
ATOM     16  C   LIG A   1      -7.677   0.274 127.838  0.00  0.00    +0.056 C 
ATOM     17  C   LIG A   1      -7.230   1.767 127.934  0.00  0.00    +0.182 C 
ATOM     18  C   LIG A   1      -6.670   2.237 129.272  0.00  0.00    +0.058 C 
ATOM     19  C   LIG A   1      -5.529   1.367 129.811  0.00  0.00    +0.045 C 
ATOM     20  C   LIG A   1      -4.224   1.709 129.046  0.00  0.00    +0.018 C 
ATOM     21  C   LIG A   1      -5.875  -0.133 129.665  0.00  0.00    +0.129 C 
ATOM     22  O   LIG A   1      -4.774  -0.973 129.294  0.00  0.00    -0.351 OA
ATOM     23  C   LIG A   1      -5.159  -1.021 130.679  0.00  0.00    +0.260 C 
ATOM     24  C   LIG A   1      -4.164  -0.463 131.625  0.00  0.00    +0.340 C 
ATOM     25  O   LIG A   1      -4.256   0.870 131.885  0.00  0.00    -0.454 OA
ATOM     26  C   LIG A   1      -5.350   1.647 131.350  0.00  0.00    +0.218 C 
ATOM     27  O   LIG A   1      -3.317  -1.169 132.138  0.00  0.00    -0.248 OA
ATOM     28  O   LIG A   1      -7.360  -2.914 129.757  0.00  0.00    -0.297 OA
ENDROOT
BRANCH  26  29
ATOM     29  C   LIG A   1      -5.129   3.099 131.722  0.00  0.00    +0.031 A 
ATOM     30  C   LIG A   1      -6.052   4.011 132.205  0.00  0.00    +0.202 A 
ATOM     31  O   LIG A   1      -5.465   5.204 132.481  0.00  0.00    -0.471 OA
ATOM     32  C   LIG A   1      -4.147   5.072 132.193  0.00  0.00    +0.195 A 
ATOM     33  C   LIG A   1      -3.889   3.809 131.718  0.00  0.00    +0.048 A 
ENDBRANCH  26  29
BRANCH  17  34
ATOM     34  O   LIG A   1      -8.241   2.712 127.480  0.00  0.00    -0.461 OA
BRANCH  34  35
ATOM     35  C   LIG A   1      -7.895   3.993 127.181  0.00  0.00    +0.304 C 
ATOM     36  C   LIG A   1      -6.751   4.002 126.214  0.00  0.00    +0.136 C 
ATOM     37  O   LIG A   1      -8.392   4.997 127.668  0.00  0.00    -0.251 OA
ENDBRANCH  34  35
ENDBRANCH  17  34
TORSDOF 3
ENDMDL
MODEL 7
REMARK VINA RESULT:      -8.1      1.951      6.874
REMARK  Name = NuBBE_952
REMARK  9 active torsions:
REMARK  status: ('A' for Active; 'I' for Inactive)
REMARK    1  A    between atoms: C_5  and  C_6
REMARK    2  A    between atoms: C_8  and  C_9
REMARK    3  A    between atoms: C_8  and  C_10
REMARK    4  A    between atoms: C_14  and  C_15
REMARK    5  A    between atoms: C_17  and  O_19
REMARK    6  A    between atoms: O_19  and  C_20
REMARK    7  A    between atoms: C_20  and  C_21
REMARK    8  A    between atoms: C_24  and  C_25
REMARK    9  A    between atoms: C_32  and  C_34
REMARK                            x       y       z     vdW  Elec       q    Type
REMARK                         _______ _______ _______ _____ _____    ______ ____
ROOT
ATOM      1  O   LIG A   1      -2.048   5.645 128.629  0.00  0.00    -0.246 OA
ATOM      2  C   LIG A   1      -2.828   4.761 128.948  0.00  0.00    +0.332 C 
ATOM      3  C   LIG A   1      -3.338   3.792 127.961  0.00  0.00    +0.088 C 
ATOM      4  C   LIG A   1      -4.258   2.827 128.130  0.00  0.00    -0.012 C 
ATOM      5  C   LIG A   1      -5.079   2.508 129.373  0.00  0.00    +0.000 C 
ATOM      6  C   LIG A   1      -4.180   1.662 130.314  0.00  0.00    +0.016 C 
ATOM      7  C   LIG A   1      -5.566   3.845 130.040  0.00  0.00    +0.050 C 
ATOM      8  C   LIG A   1      -4.454   4.730 130.727  0.00  0.00    +0.112 C 
ATOM      9  C   LIG A   1      -4.688   6.253 130.674  0.00  0.00    +0.056 C 
ATOM     10  C   LIG A   1      -4.386   4.372 132.231  0.00  0.00    +0.056 C 
ATOM     11  O   LIG A   1      -3.127   4.459 130.226  0.00  0.00    -0.455 OA
ATOM     12  C   LIG A   1      -6.405   4.627 129.016  0.00  0.00    +0.083 C 
ATOM     13  C   LIG A   1      -7.600   3.868 128.504  0.00  0.00    +0.143 C 
ATOM     14  C   LIG A   1      -7.535   2.340 128.238  0.00  0.00    +0.066 C 
ATOM     15  C   LIG A   1      -8.922   1.866 128.784  0.00  0.00    +0.022 C 
ATOM     16  C   LIG A   1      -6.398   1.632 129.065  0.00  0.00    +0.056 C 
ATOM     17  C   LIG A   1      -6.047   0.208 128.526  0.00  0.00    +0.182 C 
ATOM     18  C   LIG A   1      -6.976  -0.381 127.470  0.00  0.00    +0.058 C 
ATOM     19  C   LIG A   1      -7.210   0.536 126.264  0.00  0.00    +0.045 C 
ATOM     20  C   LIG A   1      -5.972   0.476 125.333  0.00  0.00    +0.018 C 
ATOM     21  C   LIG A   1      -7.480   1.986 126.729  0.00  0.00    +0.129 C 
ATOM     22  O   LIG A   1      -6.893   3.003 125.906  0.00  0.00    -0.351 OA
ATOM     23  C   LIG A   1      -8.307   2.797 125.735  0.00  0.00    +0.260 C 
ATOM     24  C   LIG A   1      -8.703   2.234 124.422  0.00  0.00    +0.340 C 
ATOM     25  O   LIG A   1      -8.728   0.876 124.328  0.00  0.00    -0.454 OA
ATOM     26  C   LIG A   1      -8.498   0.056 125.494  0.00  0.00    +0.218 C 
ATOM     27  O   LIG A   1      -8.992   2.957 123.488  0.00  0.00    -0.248 OA
ATOM     28  O   LIG A   1      -8.619   4.516 128.230  0.00  0.00    -0.297 OA
ENDROOT
BRANCH  26  29
ATOM     29  C   LIG A   1      -8.489  -1.395 125.062  0.00  0.00    +0.031 A 
ATOM     30  C   LIG A   1      -7.969  -1.941 123.900  0.00  0.00    +0.202 A 
ATOM     31  O   LIG A   1      -8.096  -3.293 123.894  0.00  0.00    -0.471 OA
ATOM     32  C   LIG A   1      -8.687  -3.641 125.064  0.00  0.00    +0.195 A 
ATOM     33  C   LIG A   1      -8.956  -2.519 125.811  0.00  0.00    +0.048 A 
ENDBRANCH  26  29
BRANCH  17  34
ATOM     34  O   LIG A   1      -5.829  -0.778 129.575  0.00  0.00    -0.461 OA
BRANCH  34  35
ATOM     35  C   LIG A   1      -5.362  -2.017 129.263  0.00  0.00    +0.304 C 
ATOM     36  C   LIG A   1      -6.293  -3.064 129.792  0.00  0.00    +0.136 C 
ATOM     37  O   LIG A   1      -4.309  -2.258 128.693  0.00  0.00    -0.251 OA
ENDBRANCH  34  35
ENDBRANCH  17  34
TORSDOF 3
ENDMDL
MODEL 8
REMARK VINA RESULT:      -8.0      2.611      5.255
REMARK  Name = NuBBE_952
REMARK  9 active torsions:
REMARK  status: ('A' for Active; 'I' for Inactive)
REMARK    1  A    between atoms: C_5  and  C_6
REMARK    2  A    between atoms: C_8  and  C_9
REMARK    3  A    between atoms: C_8  and  C_10
REMARK    4  A    between atoms: C_14  and  C_15
REMARK    5  A    between atoms: C_17  and  O_19
REMARK    6  A    between atoms: O_19  and  C_20
REMARK    7  A    between atoms: C_20  and  C_21
REMARK    8  A    between atoms: C_24  and  C_25
REMARK    9  A    between atoms: C_32  and  C_34
REMARK                            x       y       z     vdW  Elec       q    Type
REMARK                         _______ _______ _______ _____ _____    ______ ____
ROOT
ATOM      1  O   LIG A   1      -6.082  -0.985 124.985  0.00  0.00    -0.246 OA
ATOM      2  C   LIG A   1      -6.103   0.164 125.401  0.00  0.00    +0.332 C 
ATOM      3  C   LIG A   1      -5.477   0.529 126.684  0.00  0.00    +0.088 C 
ATOM      4  C   LIG A   1      -5.489   1.716 127.316  0.00  0.00    -0.012 C 
ATOM      5  C   LIG A   1      -6.208   2.997 126.913  0.00  0.00    +0.000 C 
ATOM      6  C   LIG A   1      -5.331   3.700 125.842  0.00  0.00    +0.016 C 
ATOM      7  C   LIG A   1      -7.646   2.649 126.385  0.00  0.00    +0.050 C 
ATOM      8  C   LIG A   1      -7.721   1.903 124.995  0.00  0.00    +0.112 C 
ATOM      9  C   LIG A   1      -8.892   0.913 124.832  0.00  0.00    +0.056 C 
ATOM     10  C   LIG A   1      -7.904   2.953 123.871  0.00  0.00    +0.056 C 
ATOM     11  O   LIG A   1      -6.497   1.215 124.656  0.00  0.00    -0.455 OA
ATOM     12  C   LIG A   1      -8.414   1.917 127.498  0.00  0.00    +0.083 C 
ATOM     13  C   LIG A   1      -8.535   2.709 128.773  0.00  0.00    +0.143 C 
ATOM     14  C   LIG A   1      -7.374   3.603 129.284  0.00  0.00    +0.066 C 
ATOM     15  C   LIG A   1      -8.148   4.864 129.789  0.00  0.00    +0.022 C 
ATOM     16  C   LIG A   1      -6.396   4.039 128.129  0.00  0.00    +0.056 C 
ATOM     17  C   LIG A   1      -5.030   4.580 128.659  0.00  0.00    +0.182 C 
ATOM     18  C   LIG A   1      -4.919   4.832 130.158  0.00  0.00    +0.058 C 
ATOM     19  C   LIG A   1      -5.319   3.631 131.023  0.00  0.00    +0.045 C 
ATOM     20  C   LIG A   1      -4.162   2.598 131.024  0.00  0.00    +0.018 C 
ATOM     21  C   LIG A   1      -6.626   2.994 130.498  0.00  0.00    +0.129 C 
ATOM     22  O   LIG A   1      -6.666   1.562 130.558  0.00  0.00    -0.351 OA
ATOM     23  C   LIG A   1      -7.414   2.253 131.574  0.00  0.00    +0.260 C 
ATOM     24  C   LIG A   1      -6.886   2.103 132.950  0.00  0.00    +0.340 C 
ATOM     25  O   LIG A   1      -5.954   3.014 133.344  0.00  0.00    -0.454 OA
ATOM     26  C   LIG A   1      -5.609   4.127 132.490  0.00  0.00    +0.218 C 
ATOM     27  O   LIG A   1      -7.275   1.213 133.682  0.00  0.00    -0.248 OA
ATOM     28  O   LIG A   1      -9.567   2.566 129.442  0.00  0.00    -0.297 OA
ENDROOT
BRANCH  26  29
ATOM     29  C   LIG A   1      -4.485   4.901 133.146  0.00  0.00    +0.031 A 
ATOM     30  C   LIG A   1      -3.284   4.419 133.638  0.00  0.00    +0.202 A 
ATOM     31  O   LIG A   1      -2.502   5.428 134.100  0.00  0.00    -0.471 OA
ATOM     32  C   LIG A   1      -3.184   6.582 133.896  0.00  0.00    +0.195 A 
ATOM     33  C   LIG A   1      -4.405   6.317 133.324  0.00  0.00    +0.048 A 
ENDBRANCH  26  29
BRANCH  17  34
ATOM     34  O   LIG A   1      -4.545   5.750 127.940  0.00  0.00    -0.461 OA
BRANCH  34  35
ATOM     35  C   LIG A   1      -3.212   6.011 127.877  0.00  0.00    +0.304 C 
ATOM     36  C   LIG A   1      -2.451   4.740 127.657  0.00  0.00    +0.136 C 
ATOM     37  O   LIG A   1      -2.691   7.104 128.039  0.00  0.00    -0.251 OA
ENDBRANCH  34  35
ENDBRANCH  17  34
TORSDOF 3
ENDMDL
MODEL 9
REMARK VINA RESULT:      -8.0      3.453      7.666
REMARK  Name = NuBBE_952
REMARK  9 active torsions:
REMARK  status: ('A' for Active; 'I' for Inactive)
REMARK    1  A    between atoms: C_5  and  C_6
REMARK    2  A    between atoms: C_8  and  C_9
REMARK    3  A    between atoms: C_8  and  C_10
REMARK    4  A    between atoms: C_14  and  C_15
REMARK    5  A    between atoms: C_17  and  O_19
REMARK    6  A    between atoms: O_19  and  C_20
REMARK    7  A    between atoms: C_20  and  C_21
REMARK    8  A    between atoms: C_24  and  C_25
REMARK    9  A    between atoms: C_32  and  C_34
REMARK                            x       y       z     vdW  Elec       q    Type
REMARK                         _______ _______ _______ _____ _____    ______ ____
ROOT
ATOM      1  O   LIG A   1      -1.893   7.030 128.018  0.00  0.00    -0.246 OA
ATOM      2  C   LIG A   1      -2.360   6.364 128.929  0.00  0.00    +0.332 C 
ATOM      3  C   LIG A   1      -2.856   4.994 128.705  0.00  0.00    +0.088 C 
ATOM      4  C   LIG A   1      -3.471   4.172 129.573  0.00  0.00    -0.012 C 
ATOM      5  C   LIG A   1      -3.886   4.452 131.012  0.00  0.00    +0.000 C 
ATOM      6  C   LIG A   1      -2.626   4.266 131.899  0.00  0.00    +0.016 C 
ATOM      7  C   LIG A   1      -4.490   5.899 131.113  0.00  0.00    +0.050 C 
ATOM      8  C   LIG A   1      -3.476   7.095 130.936  0.00  0.00    +0.112 C 
ATOM      9  C   LIG A   1      -4.050   8.364 130.274  0.00  0.00    +0.056 C 
ATOM     10  C   LIG A   1      -2.979   7.544 132.332  0.00  0.00    +0.056 C 
ATOM     11  O   LIG A   1      -2.276   6.719 130.226  0.00  0.00    -0.455 OA
ATOM     12  C   LIG A   1      -5.698   5.994 130.167  0.00  0.00    +0.083 C 
ATOM     13  C   LIG A   1      -6.778   4.987 130.459  0.00  0.00    +0.143 C 
ATOM     14  C   LIG A   1      -6.438   3.542 130.911  0.00  0.00    +0.066 C 
ATOM     15  C   LIG A   1      -7.516   3.295 132.016  0.00  0.00    +0.022 C 
ATOM     16  C   LIG A   1      -5.010   3.436 131.565  0.00  0.00    +0.056 C 
ATOM     17  C   LIG A   1      -4.486   1.967 131.653  0.00  0.00    +0.182 C 
ATOM     18  C   LIG A   1      -5.480   0.857 131.331  0.00  0.00    +0.058 C 
ATOM     19  C   LIG A   1      -6.188   1.027 129.982  0.00  0.00    +0.045 C 
ATOM     20  C   LIG A   1      -5.221   0.609 128.844  0.00  0.00    +0.018 C 
ATOM     21  C   LIG A   1      -6.660   2.487 129.795  0.00  0.00    +0.129 C 
ATOM     22  O   LIG A   1      -6.523   3.000 128.464  0.00  0.00    -0.351 OA
ATOM     23  C   LIG A   1      -7.855   2.623 128.857  0.00  0.00    +0.260 C 
ATOM     24  C   LIG A   1      -8.410   1.450 128.142  0.00  0.00    +0.340 C 
ATOM     25  O   LIG A   1      -8.153   0.230 128.688  0.00  0.00    -0.454 OA
ATOM     26  C   LIG A   1      -7.478   0.124 129.961  0.00  0.00    +0.218 C 
ATOM     27  O   LIG A   1      -9.064   1.583 127.125  0.00  0.00    -0.248 OA
ATOM     28  O   LIG A   1      -7.952   5.327 130.256  0.00  0.00    -0.297 OA
ENDROOT
BRANCH  26  29
ATOM     29  C   LIG A   1      -7.247  -1.343 130.257  0.00  0.00    +0.031 A 
ATOM     30  C   LIG A   1      -7.333  -1.997 131.474  0.00  0.00    +0.202 A 
ATOM     31  O   LIG A   1      -7.114  -3.330 131.331  0.00  0.00    -0.471 OA
ATOM     32  C   LIG A   1      -6.899  -3.557 130.013  0.00  0.00    +0.195 A 
ATOM     33  C   LIG A   1      -6.960  -2.377 129.312  0.00  0.00    +0.048 A 
ENDBRANCH  26  29
BRANCH  17  34
ATOM     34  O   LIG A   1      -3.814   1.659 132.907  0.00  0.00    -0.461 OA
BRANCH  34  35
ATOM     35  C   LIG A   1      -4.466   1.819 134.090  0.00  0.00    +0.304 C 
ATOM     36  C   LIG A   1      -3.729   2.796 134.955  0.00  0.00    +0.136 C 
ATOM     37  O   LIG A   1      -5.470   1.216 134.437  0.00  0.00    -0.251 OA
ENDBRANCH  34  35
ENDBRANCH  17  34
TORSDOF 3
ENDMDL
