MODEL 1
REMARK VINA RESULT:      -7.2      0.000      0.000
REMARK  Name = NuBBE_1889
REMARK  15 active torsions:
REMARK  status: ('A' for Active; 'I' for Inactive)
REMARK    1  A    between atoms: C_4  and  O_32
REMARK    2  A    between atoms: C_6  and  O_30
REMARK    3  A    between atoms: C_10  and  C_11
REMARK    4  A    between atoms: C_13  and  O_14
REMARK    5  A    between atoms: O_14  and  C_15
REMARK    6  A    between atoms: C_15  and  C_16
REMARK    7  A    between atoms: C_18  and  O_25
REMARK    8  A    between atoms: C_20  and  O_21
REMARK    9  A    between atoms: O_21  and  C_22
REMARK   10  A    between atoms: C_22  and  C_23
REMARK   11  A    between atoms: O_25  and  C_26
REMARK   12  A    between atoms: C_27  and  O_28
REMARK   13  A    between atoms: O_28  and  C_29
REMARK   14  A    between atoms: O_30  and  C_31
REMARK   15  A    between atoms: O_32  and  C_33
REMARK                            x       y       z     vdW  Elec       q    Type
REMARK                         _______ _______ _______ _____ _____    ______ ____
ROOT
ATOM      1  O   LIG A   1      -5.621   3.183 127.926  0.00  0.00    -0.283 OA
ATOM      2  C   LIG A   1      -5.817   3.928 128.876  0.00  0.00    +0.238 A 
ATOM      3  C   LIG A   1      -4.736   4.757 129.439  0.00  0.00    +0.109 A 
ATOM      4  C   LIG A   1      -3.367   4.452 129.325  0.00  0.00    +0.138 A 
ATOM      5  C   LIG A   1      -2.440   5.254 130.002  0.00  0.00    +0.092 A 
ATOM      6  C   LIG A   1      -2.866   6.358 130.758  0.00  0.00    +0.127 A 
ATOM      7  C   LIG A   1      -4.218   6.677 130.814  0.00  0.00    +0.092 A 
ATOM      8  C   LIG A   1      -5.145   5.886 130.147  0.00  0.00    +0.147 A 
ATOM      9  O   LIG A   1      -6.457   6.287 130.203  0.00  0.00    -0.451 OA
ATOM     10  C   LIG A   1      -7.427   5.316 130.011  0.00  0.00    +0.184 A 
ATOM     11  C   LIG A   1      -7.173   4.094 129.501  0.00  0.00    +0.211 A 
ENDROOT
BRANCH  10  12
ATOM     12  C   LIG A   1      -8.764   5.768 130.432  0.00  0.00    +0.067 A 
ATOM     13  C   LIG A   1      -9.786   5.869 129.482  0.00  0.00    +0.065 A 
ATOM     14  C   LIG A   1     -11.098   6.182 129.876  0.00  0.00    +0.174 A 
ATOM     15  C   LIG A   1     -11.435   6.355 131.228  0.00  0.00    +0.166 A 
ATOM     16  C   LIG A   1     -10.416   6.270 132.170  0.00  0.00    +0.096 A 
ATOM     17  C   LIG A   1      -9.091   6.011 131.775  0.00  0.00    +0.146 A 
BRANCH  15  18
ATOM     18  O   LIG A   1     -12.751   6.596 131.540  0.00  0.00    -0.491 OA
ATOM     19  C   LIG A   1     -13.128   7.958 131.745  0.00  0.00    +0.277 C 
ENDBRANCH  15  18
BRANCH  14  20
ATOM     20  O   LIG A   1     -12.148   6.282 128.934  0.00  0.00    -0.422 OA
BRANCH  20  21
ATOM     21  C   LIG A   1     -12.018   7.105 127.817  0.00  0.00    +0.309 C 
ATOM     22  C   LIG A   1     -11.985   8.537 128.248  0.00  0.00    +0.136 C 
ATOM     23  O   LIG A   1     -11.901   6.755 126.650  0.00  0.00    -0.251 OA
ENDBRANCH  20  21
ENDBRANCH  14  20
BRANCH  17  24
ATOM     24  O   LIG A   1      -8.115   5.821 132.773  0.00  0.00    -0.425 OA
BRANCH  24  25
ATOM     25  C   LIG A   1      -8.307   4.718 133.614  0.00  0.00    +0.309 C 
ATOM     26  C   LIG A   1      -7.855   5.117 134.999  0.00  0.00    +0.136 C 
ATOM     27  O   LIG A   1      -8.650   3.591 133.294  0.00  0.00    -0.251 OA
ENDBRANCH  24  25
ENDBRANCH  17  24
ENDBRANCH  10  12
BRANCH  11  28
ATOM     28  O   LIG A   1      -8.129   3.094 129.549  0.00  0.00    -0.488 OA
ATOM     29  C   LIG A   1      -7.833   1.947 130.334  0.00  0.00    +0.277 C 
ENDBRANCH  11  28
BRANCH   6  30
ATOM     30  O   LIG A   1      -1.880   7.032 131.428  0.00  0.00    -0.495 OA
ATOM     31  C   LIG A   1      -1.147   6.254 132.371  0.00  0.00    +0.277 C 
ENDBRANCH   6  30
BRANCH   4  32
ATOM     32  O   LIG A   1      -3.006   3.437 128.482  0.00  0.00    -0.494 OA
ATOM     33  C   LIG A   1      -2.254   3.750 127.318  0.00  0.00    +0.277 C 
ENDBRANCH   4  32
TORSDOF 9
ENDMDL
MODEL 2
REMARK VINA RESULT:      -7.2      3.586      7.399
REMARK  Name = NuBBE_1889
REMARK  15 active torsions:
REMARK  status: ('A' for Active; 'I' for Inactive)
REMARK    1  A    between atoms: C_4  and  O_32
REMARK    2  A    between atoms: C_6  and  O_30
REMARK    3  A    between atoms: C_10  and  C_11
REMARK    4  A    between atoms: C_13  and  O_14
REMARK    5  A    between atoms: O_14  and  C_15
REMARK    6  A    between atoms: C_15  and  C_16
REMARK    7  A    between atoms: C_18  and  O_25
REMARK    8  A    between atoms: C_20  and  O_21
REMARK    9  A    between atoms: O_21  and  C_22
REMARK   10  A    between atoms: C_22  and  C_23
REMARK   11  A    between atoms: O_25  and  C_26
REMARK   12  A    between atoms: C_27  and  O_28
REMARK   13  A    between atoms: O_28  and  C_29
REMARK   14  A    between atoms: O_30  and  C_31
REMARK   15  A    between atoms: O_32  and  C_33
REMARK                            x       y       z     vdW  Elec       q    Type
REMARK                         _______ _______ _______ _____ _____    ______ ____
ROOT
ATOM      1  O   LIG A   1      -7.158   3.709 131.036  0.00  0.00    -0.283 OA
ATOM      2  C   LIG A   1      -7.851   4.007 130.074  0.00  0.00    +0.238 A 
ATOM      3  C   LIG A   1      -8.925   5.011 130.180  0.00  0.00    +0.109 A 
ATOM      4  C   LIG A   1      -9.581   5.340 131.381  0.00  0.00    +0.138 A 
ATOM      5  C   LIG A   1     -10.665   6.225 131.336  0.00  0.00    +0.092 A 
ATOM      6  C   LIG A   1     -11.073   6.794 130.119  0.00  0.00    +0.127 A 
ATOM      7  C   LIG A   1     -10.379   6.501 128.950  0.00  0.00    +0.092 A 
ATOM      8  C   LIG A   1      -9.303   5.622 128.987  0.00  0.00    +0.147 A 
ATOM      9  O   LIG A   1      -8.632   5.416 127.806  0.00  0.00    -0.451 OA
ATOM     10  C   LIG A   1      -7.926   4.230 127.676  0.00  0.00    +0.184 A 
ATOM     11  C   LIG A   1      -7.628   3.419 128.709  0.00  0.00    +0.211 A 
ENDROOT
BRANCH  10  12
ATOM     12  C   LIG A   1      -7.546   3.955 126.279  0.00  0.00    +0.067 A 
ATOM     13  C   LIG A   1      -8.452   3.305 125.436  0.00  0.00    +0.065 A 
ATOM     14  C   LIG A   1      -8.163   3.138 124.070  0.00  0.00    +0.174 A 
ATOM     15  C   LIG A   1      -6.988   3.654 123.502  0.00  0.00    +0.166 A 
ATOM     16  C   LIG A   1      -6.080   4.287 124.345  0.00  0.00    +0.096 A 
ATOM     17  C   LIG A   1      -6.340   4.409 125.721  0.00  0.00    +0.146 A 
BRANCH  15  18
ATOM     18  O   LIG A   1      -6.805   3.507 122.149  0.00  0.00    -0.491 OA
ATOM     19  C   LIG A   1      -5.627   4.090 121.590  0.00  0.00    +0.277 C 
ENDBRANCH  15  18
BRANCH  14  20
ATOM     20  O   LIG A   1      -9.068   2.490 123.198  0.00  0.00    -0.422 OA
BRANCH  20  21
ATOM     21  C   LIG A   1      -9.715   1.322 123.592  0.00  0.00    +0.309 C 
ATOM     22  C   LIG A   1      -8.768   0.168 123.507  0.00  0.00    +0.136 C 
ATOM     23  O   LIG A   1     -10.866   1.213 123.997  0.00  0.00    -0.251 OA
ENDBRANCH  20  21
ENDBRANCH  14  20
BRANCH  17  24
ATOM     24  O   LIG A   1      -5.447   5.156 126.514  0.00  0.00    -0.425 OA
BRANCH  24  25
ATOM     25  C   LIG A   1      -4.310   4.470 126.964  0.00  0.00    +0.309 C 
ATOM     26  C   LIG A   1      -4.213   4.683 128.457  0.00  0.00    +0.136 C 
ATOM     27  O   LIG A   1      -3.465   3.908 126.287  0.00  0.00    -0.251 OA
ENDBRANCH  24  25
ENDBRANCH  17  24
ENDBRANCH  10  12
BRANCH  11  28
ATOM     28  O   LIG A   1      -7.130   2.145 128.490  0.00  0.00    -0.488 OA
ATOM     29  C   LIG A   1      -8.023   1.056 128.673  0.00  0.00    +0.277 C 
ENDBRANCH  11  28
BRANCH   6  30
ATOM     30  O   LIG A   1     -12.183   7.594 130.182  0.00  0.00    -0.495 OA
ATOM     31  C   LIG A   1     -12.862   7.589 131.436  0.00  0.00    +0.277 C 
ENDBRANCH   6  30
BRANCH   4  32
ATOM     32  O   LIG A   1      -9.065   4.845 132.548  0.00  0.00    -0.494 OA
ATOM     33  C   LIG A   1      -8.520   5.755 133.494  0.00  0.00    +0.277 C 
ENDBRANCH   4  32
TORSDOF 9
ENDMDL
MODEL 3
REMARK VINA RESULT:      -7.2      6.992      9.895
REMARK  Name = NuBBE_1889
REMARK  15 active torsions:
REMARK  status: ('A' for Active; 'I' for Inactive)
REMARK    1  A    between atoms: C_4  and  O_32
REMARK    2  A    between atoms: C_6  and  O_30
REMARK    3  A    between atoms: C_10  and  C_11
REMARK    4  A    between atoms: C_13  and  O_14
REMARK    5  A    between atoms: O_14  and  C_15
REMARK    6  A    between atoms: C_15  and  C_16
REMARK    7  A    between atoms: C_18  and  O_25
REMARK    8  A    between atoms: C_20  and  O_21
REMARK    9  A    between atoms: O_21  and  C_22
REMARK   10  A    between atoms: C_22  and  C_23
REMARK   11  A    between atoms: O_25  and  C_26
REMARK   12  A    between atoms: C_27  and  O_28
REMARK   13  A    between atoms: O_28  and  C_29
REMARK   14  A    between atoms: O_30  and  C_31
REMARK   15  A    between atoms: O_32  and  C_33
REMARK                            x       y       z     vdW  Elec       q    Type
REMARK                         _______ _______ _______ _____ _____    ______ ____
ROOT
ATOM      1  O   LIG A   1      -6.410   1.097 127.250  0.00  0.00    -0.283 OA
ATOM      2  C   LIG A   1      -6.274   0.839 126.062  0.00  0.00    +0.238 A 
ATOM      3  C   LIG A   1      -6.073  -0.544 125.593  0.00  0.00    +0.109 A 
ATOM      4  C   LIG A   1      -5.540  -1.576 126.387  0.00  0.00    +0.138 A 
ATOM      5  C   LIG A   1      -5.290  -2.820 125.794  0.00  0.00    +0.092 A 
ATOM      6  C   LIG A   1      -5.589  -3.041 124.440  0.00  0.00    +0.127 A 
ATOM      7  C   LIG A   1      -6.167  -2.026 123.685  0.00  0.00    +0.092 A 
ATOM      8  C   LIG A   1      -6.418  -0.789 124.266  0.00  0.00    +0.147 A 
ATOM      9  O   LIG A   1      -7.036   0.151 123.477  0.00  0.00    -0.451 OA
ATOM     10  C   LIG A   1      -6.849   1.483 123.813  0.00  0.00    +0.184 A 
ATOM     11  C   LIG A   1      -6.353   1.895 124.996  0.00  0.00    +0.211 A 
ENDROOT
BRANCH  10  12
ATOM     12  C   LIG A   1      -7.249   2.395 122.728  0.00  0.00    +0.067 A 
ATOM     13  C   LIG A   1      -6.294   2.816 121.797  0.00  0.00    +0.065 A 
ATOM     14  C   LIG A   1      -6.673   3.589 120.685  0.00  0.00    +0.174 A 
ATOM     15  C   LIG A   1      -8.016   3.921 120.447  0.00  0.00    +0.166 A 
ATOM     16  C   LIG A   1      -8.963   3.514 121.381  0.00  0.00    +0.096 A 
ATOM     17  C   LIG A   1      -8.582   2.788 122.523  0.00  0.00    +0.146 A 
BRANCH  15  18
ATOM     18  O   LIG A   1      -8.316   4.623 119.306  0.00  0.00    -0.491 OA
ATOM     19  C   LIG A   1      -9.564   4.328 118.676  0.00  0.00    +0.277 C 
ENDBRANCH  15  18
BRANCH  14  20
ATOM     20  O   LIG A   1      -5.725   4.019 119.728  0.00  0.00    -0.422 OA
BRANCH  20  21
ATOM     21  C   LIG A   1      -5.300   5.345 119.703  0.00  0.00    +0.309 C 
ATOM     22  C   LIG A   1      -5.756   5.997 118.436  0.00  0.00    +0.136 C 
ATOM     23  O   LIG A   1      -4.685   5.942 120.577  0.00  0.00    -0.251 OA
ENDBRANCH  20  21
ENDBRANCH  14  20
BRANCH  17  24
ATOM     24  O   LIG A   1      -9.587   2.302 123.381  0.00  0.00    -0.425 OA
BRANCH  24  25
ATOM     25  C   LIG A   1     -10.087   1.028 123.077  0.00  0.00    +0.309 C 
ATOM     26  C   LIG A   1     -10.107   0.229 124.359  0.00  0.00    +0.136 C 
ATOM     27  O   LIG A   1     -10.343   0.575 121.973  0.00  0.00    -0.251 OA
ENDBRANCH  24  25
ENDBRANCH  17  24
ENDBRANCH  10  12
BRANCH  11  28
ATOM     28  O   LIG A   1      -5.974   3.213 125.185  0.00  0.00    -0.488 OA
ATOM     29  C   LIG A   1      -4.610   3.460 125.500  0.00  0.00    +0.277 C 
ENDBRANCH  11  28
BRANCH   6  30
ATOM     30  O   LIG A   1      -5.244  -4.272 123.951  0.00  0.00    -0.495 OA
ATOM     31  C   LIG A   1      -3.873  -4.417 123.587  0.00  0.00    +0.277 C 
ENDBRANCH   6  30
BRANCH   4  32
ATOM     32  O   LIG A   1      -5.379  -1.337 127.724  0.00  0.00    -0.494 OA
ATOM     33  C   LIG A   1      -6.061  -2.165 128.655  0.00  0.00    +0.277 C 
ENDBRANCH   4  32
TORSDOF 9
ENDMDL
MODEL 4
REMARK VINA RESULT:      -7.0      4.346      8.064
REMARK  Name = NuBBE_1889
REMARK  15 active torsions:
REMARK  status: ('A' for Active; 'I' for Inactive)
REMARK    1  A    between atoms: C_4  and  O_32
REMARK    2  A    between atoms: C_6  and  O_30
REMARK    3  A    between atoms: C_10  and  C_11
REMARK    4  A    between atoms: C_13  and  O_14
REMARK    5  A    between atoms: O_14  and  C_15
REMARK    6  A    between atoms: C_15  and  C_16
REMARK    7  A    between atoms: C_18  and  O_25
REMARK    8  A    between atoms: C_20  and  O_21
REMARK    9  A    between atoms: O_21  and  C_22
REMARK   10  A    between atoms: C_22  and  C_23
REMARK   11  A    between atoms: O_25  and  C_26
REMARK   12  A    between atoms: C_27  and  O_28
REMARK   13  A    between atoms: O_28  and  C_29
REMARK   14  A    between atoms: O_30  and  C_31
REMARK   15  A    between atoms: O_32  and  C_33
REMARK                            x       y       z     vdW  Elec       q    Type
REMARK                         _______ _______ _______ _____ _____    ______ ____
ROOT
ATOM      1  O   LIG A   1      -6.109   4.903 127.618  0.00  0.00    -0.283 OA
ATOM      2  C   LIG A   1      -6.707   3.948 128.094  0.00  0.00    +0.238 A 
ATOM      3  C   LIG A   1      -7.467   4.066 129.352  0.00  0.00    +0.109 A 
ATOM      4  C   LIG A   1      -7.207   5.030 130.344  0.00  0.00    +0.138 A 
ATOM      5  C   LIG A   1      -7.921   4.969 131.546  0.00  0.00    +0.092 A 
ATOM      6  C   LIG A   1      -8.897   3.980 131.749  0.00  0.00    +0.127 A 
ATOM      7  C   LIG A   1      -9.180   3.070 130.737  0.00  0.00    +0.092 A 
ATOM      8  C   LIG A   1      -8.475   3.123 129.541  0.00  0.00    +0.147 A 
ATOM      9  O   LIG A   1      -8.840   2.227 128.566  0.00  0.00    -0.451 OA
ATOM     10  C   LIG A   1      -7.888   1.905 127.611  0.00  0.00    +0.184 A 
ATOM     11  C   LIG A   1      -6.757   2.610 127.414  0.00  0.00    +0.211 A 
ENDROOT
BRANCH  10  12
ATOM     12  C   LIG A   1      -8.250   0.702 126.842  0.00  0.00    +0.067 A 
ATOM     13  C   LIG A   1      -7.881  -0.559 127.323  0.00  0.00    +0.065 A 
ATOM     14  C   LIG A   1      -8.317  -1.727 126.673  0.00  0.00    +0.174 A 
ATOM     15  C   LIG A   1      -9.168  -1.670 125.559  0.00  0.00    +0.166 A 
ATOM     16  C   LIG A   1      -9.523  -0.416 125.072  0.00  0.00    +0.096 A 
ATOM     17  C   LIG A   1      -9.045   0.755 125.686  0.00  0.00    +0.146 A 
BRANCH  15  18
ATOM     18  O   LIG A   1      -9.603  -2.854 125.017  0.00  0.00    -0.491 OA
ATOM     19  C   LIG A   1      -9.250  -3.110 123.656  0.00  0.00    +0.277 C 
ENDBRANCH  15  18
BRANCH  14  20
ATOM     20  O   LIG A   1      -7.962  -3.011 127.146  0.00  0.00    -0.422 OA
BRANCH  20  21
ATOM     21  C   LIG A   1      -8.385  -3.443 128.401  0.00  0.00    +0.309 C 
ATOM     22  C   LIG A   1      -9.641  -4.243 128.261  0.00  0.00    +0.136 C 
ATOM     23  O   LIG A   1      -7.826  -3.259 129.475  0.00  0.00    -0.251 OA
ENDBRANCH  20  21
ENDBRANCH  14  20
BRANCH  17  24
ATOM     24  O   LIG A   1      -9.521   2.000 125.228  0.00  0.00    -0.425 OA
BRANCH  24  25
ATOM     25  C   LIG A   1      -9.068   2.399 123.964  0.00  0.00    +0.309 C 
ATOM     26  C   LIG A   1      -8.013   3.460 124.173  0.00  0.00    +0.136 C 
ATOM     27  O   LIG A   1      -9.513   2.068 122.877  0.00  0.00    -0.251 OA
ENDBRANCH  24  25
ENDBRANCH  17  24
ENDBRANCH  10  12
BRANCH  11  28
ATOM     28  O   LIG A   1      -5.742   2.113 126.613  0.00  0.00    -0.488 OA
ATOM     29  C   LIG A   1      -4.459   1.962 127.206  0.00  0.00    +0.277 C 
ENDBRANCH  11  28
BRANCH   6  30
ATOM     30  O   LIG A   1      -9.487   3.975 132.985  0.00  0.00    -0.495 OA
ATOM     31  C   LIG A   1      -8.591   3.821 134.083  0.00  0.00    +0.277 C 
ENDBRANCH   6  30
BRANCH   4  32
ATOM     32  O   LIG A   1      -6.329   6.036 130.043  0.00  0.00    -0.494 OA
ATOM     33  C   LIG A   1      -6.091   7.048 131.012  0.00  0.00    +0.277 C 
ENDBRANCH   4  32
TORSDOF 9
ENDMDL
MODEL 5
REMARK VINA RESULT:      -6.9      4.273      8.482
REMARK  Name = NuBBE_1889
REMARK  15 active torsions:
REMARK  status: ('A' for Active; 'I' for Inactive)
REMARK    1  A    between atoms: C_4  and  O_32
REMARK    2  A    between atoms: C_6  and  O_30
REMARK    3  A    between atoms: C_10  and  C_11
REMARK    4  A    between atoms: C_13  and  O_14
REMARK    5  A    between atoms: O_14  and  C_15
REMARK    6  A    between atoms: C_15  and  C_16
REMARK    7  A    between atoms: C_18  and  O_25
REMARK    8  A    between atoms: C_20  and  O_21
REMARK    9  A    between atoms: O_21  and  C_22
REMARK   10  A    between atoms: C_22  and  C_23
REMARK   11  A    between atoms: O_25  and  C_26
REMARK   12  A    between atoms: C_27  and  O_28
REMARK   13  A    between atoms: O_28  and  C_29
REMARK   14  A    between atoms: O_30  and  C_31
REMARK   15  A    between atoms: O_32  and  C_33
REMARK                            x       y       z     vdW  Elec       q    Type
REMARK                         _______ _______ _______ _____ _____    ______ ____
ROOT
ATOM      1  O   LIG A   1      -8.495   5.361 127.485  0.00  0.00    -0.283 OA
ATOM      2  C   LIG A   1      -8.355   4.294 128.065  0.00  0.00    +0.238 A 
ATOM      3  C   LIG A   1      -8.712   4.138 129.487  0.00  0.00    +0.109 A 
ATOM      4  C   LIG A   1      -8.755   5.198 130.410  0.00  0.00    +0.138 A 
ATOM      5  C   LIG A   1      -8.994   4.908 131.759  0.00  0.00    +0.092 A 
ATOM      6  C   LIG A   1      -9.213   3.585 132.178  0.00  0.00    +0.127 A 
ATOM      7  C   LIG A   1      -9.222   2.556 131.243  0.00  0.00    +0.092 A 
ATOM      8  C   LIG A   1      -8.984   2.836 129.903  0.00  0.00    +0.147 A 
ATOM      9  O   LIG A   1      -9.057   1.780 129.028  0.00  0.00    -0.451 OA
ATOM     10  C   LIG A   1      -8.360   1.895 127.835  0.00  0.00    +0.184 A 
ATOM     11  C   LIG A   1      -7.865   3.058 127.366  0.00  0.00    +0.211 A 
ENDROOT
BRANCH  10  12
ATOM     12  C   LIG A   1      -8.217   0.603 127.143  0.00  0.00    +0.067 A 
ATOM     13  C   LIG A   1      -7.334  -0.355 127.651  0.00  0.00    +0.065 A 
ATOM     14  C   LIG A   1      -7.266  -1.638 127.081  0.00  0.00    +0.174 A 
ATOM     15  C   LIG A   1      -8.109  -2.014 126.023  0.00  0.00    +0.166 A 
ATOM     16  C   LIG A   1      -8.977  -1.057 125.509  0.00  0.00    +0.096 A 
ATOM     17  C   LIG A   1      -9.009   0.245 126.040  0.00  0.00    +0.146 A 
BRANCH  15  18
ATOM     18  O   LIG A   1      -8.030  -3.305 125.562  0.00  0.00    -0.491 OA
ATOM     19  C   LIG A   1      -7.304  -3.514 124.350  0.00  0.00    +0.277 C 
ENDBRANCH  15  18
BRANCH  14  20
ATOM     20  O   LIG A   1      -6.386  -2.624 127.583  0.00  0.00    -0.422 OA
BRANCH  20  21
ATOM     21  C   LIG A   1      -6.333  -2.893 128.949  0.00  0.00    +0.309 C 
ATOM     22  C   LIG A   1      -7.573  -3.617 129.368  0.00  0.00    +0.136 C 
ATOM     23  O   LIG A   1      -5.416  -2.636 129.719  0.00  0.00    -0.251 OA
ENDBRANCH  20  21
ENDBRANCH  14  20
BRANCH  17  24
ATOM     24  O   LIG A   1      -9.981   1.145 125.563  0.00  0.00    -0.425 OA
BRANCH  24  25
ATOM     25  C   LIG A   1     -10.051   1.288 124.171  0.00  0.00    +0.309 C 
ATOM     26  C   LIG A   1      -8.969   2.259 123.758  0.00  0.00    +0.136 C 
ATOM     27  O   LIG A   1     -10.896   0.831 123.418  0.00  0.00    -0.251 OA
ENDBRANCH  24  25
ENDBRANCH  17  24
ENDBRANCH  10  12
BRANCH  11  28
ATOM     28  O   LIG A   1      -6.985   3.073 126.297  0.00  0.00    -0.488 OA
ATOM     29  C   LIG A   1      -5.626   3.380 126.575  0.00  0.00    +0.277 C 
ENDBRANCH  11  28
BRANCH   6  30
ATOM     30  O   LIG A   1      -9.372   3.411 133.527  0.00  0.00    -0.495 OA
ATOM     31  C   LIG A   1      -8.502   4.188 134.346  0.00  0.00    +0.277 C 
ENDBRANCH   6  30
BRANCH   4  32
ATOM     32  O   LIG A   1      -8.651   6.473 129.925  0.00  0.00    -0.494 OA
ATOM     33  C   LIG A   1      -9.791   7.319 129.975  0.00  0.00    +0.277 C 
ENDBRANCH   4  32
TORSDOF 9
ENDMDL
MODEL 6
REMARK VINA RESULT:      -6.9      4.721      8.426
REMARK  Name = NuBBE_1889
REMARK  15 active torsions:
REMARK  status: ('A' for Active; 'I' for Inactive)
REMARK    1  A    between atoms: C_4  and  O_32
REMARK    2  A    between atoms: C_6  and  O_30
REMARK    3  A    between atoms: C_10  and  C_11
REMARK    4  A    between atoms: C_13  and  O_14
REMARK    5  A    between atoms: O_14  and  C_15
REMARK    6  A    between atoms: C_15  and  C_16
REMARK    7  A    between atoms: C_18  and  O_25
REMARK    8  A    between atoms: C_20  and  O_21
REMARK    9  A    between atoms: O_21  and  C_22
REMARK   10  A    between atoms: C_22  and  C_23
REMARK   11  A    between atoms: O_25  and  C_26
REMARK   12  A    between atoms: C_27  and  O_28
REMARK   13  A    between atoms: O_28  and  C_29
REMARK   14  A    between atoms: O_30  and  C_31
REMARK   15  A    between atoms: O_32  and  C_33
REMARK                            x       y       z     vdW  Elec       q    Type
REMARK                         _______ _______ _______ _____ _____    ______ ____
ROOT
ATOM      1  O   LIG A   1      -7.724   4.720 127.087  0.00  0.00    -0.283 OA
ATOM      2  C   LIG A   1      -7.607   3.631 127.630  0.00  0.00    +0.238 A 
ATOM      3  C   LIG A   1      -8.159   3.377 128.973  0.00  0.00    +0.109 A 
ATOM      4  C   LIG A   1      -8.400   4.381 129.929  0.00  0.00    +0.138 A 
ATOM      5  C   LIG A   1      -8.817   4.003 131.212  0.00  0.00    +0.092 A 
ATOM      6  C   LIG A   1      -9.015   2.650 131.530  0.00  0.00    +0.127 A 
ATOM      7  C   LIG A   1      -8.825   1.676 130.556  0.00  0.00    +0.092 A 
ATOM      8  C   LIG A   1      -8.410   2.042 129.282  0.00  0.00    +0.147 A 
ATOM      9  O   LIG A   1      -8.291   1.034 128.356  0.00  0.00    -0.451 OA
ATOM     10  C   LIG A   1      -7.435   1.252 127.288  0.00  0.00    +0.184 A 
ATOM     11  C   LIG A   1      -6.947   2.463 126.954  0.00  0.00    +0.211 A 
ENDROOT
BRANCH  10  12
ATOM     12  C   LIG A   1      -7.115   0.010 126.564  0.00  0.00    +0.067 A 
ATOM     13  C   LIG A   1      -7.680  -0.218 125.306  0.00  0.00    +0.065 A 
ATOM     14  C   LIG A   1      -7.299  -1.335 124.543  0.00  0.00    +0.174 A 
ATOM     15  C   LIG A   1      -6.313  -2.227 124.993  0.00  0.00    +0.166 A 
ATOM     16  C   LIG A   1      -5.762  -2.009 126.251  0.00  0.00    +0.096 A 
ATOM     17  C   LIG A   1      -6.179  -0.923 127.041  0.00  0.00    +0.146 A 
BRANCH  15  18
ATOM     18  O   LIG A   1      -5.948  -3.259 124.164  0.00  0.00    -0.491 OA
ATOM     19  C   LIG A   1      -4.710  -3.120 123.466  0.00  0.00    +0.277 C 
ENDBRANCH  15  18
BRANCH  14  20
ATOM     20  O   LIG A   1      -7.852  -1.580 123.265  0.00  0.00    -0.422 OA
BRANCH  20  21
ATOM     21  C   LIG A   1      -9.218  -1.811 123.119  0.00  0.00    +0.309 C 
ATOM     22  C   LIG A   1      -9.536  -3.220 123.509  0.00  0.00    +0.136 C 
ATOM     23  O   LIG A   1     -10.073  -1.005 122.774  0.00  0.00    -0.251 OA
ENDBRANCH  20  21
ENDBRANCH  14  20
BRANCH  17  24
ATOM     24  O   LIG A   1      -5.513  -0.678 128.258  0.00  0.00    -0.425 OA
BRANCH  24  25
ATOM     25  C   LIG A   1      -5.480  -1.748 129.162  0.00  0.00    +0.309 C 
ATOM     26  C   LIG A   1      -6.853  -1.861 129.783  0.00  0.00    +0.136 C 
ATOM     27  O   LIG A   1      -4.508  -2.401 129.504  0.00  0.00    -0.251 OA
ENDBRANCH  24  25
ENDBRANCH  17  24
ENDBRANCH  10  12
BRANCH  11  28
ATOM     28  O   LIG A   1      -5.922   2.584 126.030  0.00  0.00    -0.488 OA
ATOM     29  C   LIG A   1      -4.606   2.757 126.536  0.00  0.00    +0.277 C 
ENDBRANCH  11  28
BRANCH   6  30
ATOM     30  O   LIG A   1      -9.360   2.392 132.830  0.00  0.00    -0.495 OA
ATOM     31  C   LIG A   1      -9.232   3.498 133.721  0.00  0.00    +0.277 C 
ENDBRANCH   6  30
BRANCH   4  32
ATOM     32  O   LIG A   1      -8.302   5.685 129.526  0.00  0.00    -0.494 OA
ATOM     33  C   LIG A   1      -8.813   6.703 130.375  0.00  0.00    +0.277 C 
ENDBRANCH   4  32
TORSDOF 9
ENDMDL
MODEL 7
REMARK VINA RESULT:      -6.8      2.637      7.308
REMARK  Name = NuBBE_1889
REMARK  15 active torsions:
REMARK  status: ('A' for Active; 'I' for Inactive)
REMARK    1  A    between atoms: C_4  and  O_32
REMARK    2  A    between atoms: C_6  and  O_30
REMARK    3  A    between atoms: C_10  and  C_11
REMARK    4  A    between atoms: C_13  and  O_14
REMARK    5  A    between atoms: O_14  and  C_15
REMARK    6  A    between atoms: C_15  and  C_16
REMARK    7  A    between atoms: C_18  and  O_25
REMARK    8  A    between atoms: C_20  and  O_21
REMARK    9  A    between atoms: O_21  and  C_22
REMARK   10  A    between atoms: C_22  and  C_23
REMARK   11  A    between atoms: O_25  and  C_26
REMARK   12  A    between atoms: C_27  and  O_28
REMARK   13  A    between atoms: O_28  and  C_29
REMARK   14  A    between atoms: O_30  and  C_31
REMARK   15  A    between atoms: O_32  and  C_33
REMARK                            x       y       z     vdW  Elec       q    Type
REMARK                         _______ _______ _______ _____ _____    ______ ____
ROOT
ATOM      1  O   LIG A   1      -8.413   4.965 127.672  0.00  0.00    -0.283 OA
ATOM      2  C   LIG A   1      -8.693   4.797 128.851  0.00  0.00    +0.238 A 
ATOM      3  C   LIG A   1      -9.844   5.475 129.473  0.00  0.00    +0.109 A 
ATOM      4  C   LIG A   1     -10.400   6.678 129.002  0.00  0.00    +0.138 A 
ATOM      5  C   LIG A   1     -11.419   7.286 129.746  0.00  0.00    +0.092 A 
ATOM      6  C   LIG A   1     -11.894   6.693 130.927  0.00  0.00    +0.127 A 
ATOM      7  C   LIG A   1     -11.372   5.475 131.348  0.00  0.00    +0.092 A 
ATOM      8  C   LIG A   1     -10.360   4.866 130.616  0.00  0.00    +0.147 A 
ATOM      9  O   LIG A   1      -9.925   3.642 131.061  0.00  0.00    -0.451 OA
ATOM     10  C   LIG A   1      -8.644   3.254 130.701  0.00  0.00    +0.184 A 
ATOM     11  C   LIG A   1      -7.924   3.854 129.732  0.00  0.00    +0.211 A 
ENDROOT
BRANCH  10  12
ATOM     12  C   LIG A   1      -8.157   2.116 131.500  0.00  0.00    +0.067 A 
ATOM     13  C   LIG A   1      -8.322   0.815 131.016  0.00  0.00    +0.065 A 
ATOM     14  C   LIG A   1      -7.762  -0.278 131.700  0.00  0.00    +0.174 A 
ATOM     15  C   LIG A   1      -6.985  -0.099 132.855  0.00  0.00    +0.166 A 
ATOM     16  C   LIG A   1      -6.833   1.194 133.344  0.00  0.00    +0.096 A 
ATOM     17  C   LIG A   1      -7.437   2.285 132.694  0.00  0.00    +0.146 A 
BRANCH  15  18
ATOM     18  O   LIG A   1      -6.417  -1.208 133.431  0.00  0.00    -0.491 OA
ATOM     19  C   LIG A   1      -5.018  -1.404 133.215  0.00  0.00    +0.277 C 
ENDBRANCH  15  18
BRANCH  14  20
ATOM     20  O   LIG A   1      -7.910  -1.601 131.224  0.00  0.00    -0.422 OA
BRANCH  20  21
ATOM     21  C   LIG A   1      -7.285  -2.002 130.045  0.00  0.00    +0.309 C 
ATOM     22  C   LIG A   1      -8.169  -2.954 129.304  0.00  0.00    +0.136 C 
ATOM     23  O   LIG A   1      -6.201  -1.625 129.617  0.00  0.00    -0.251 OA
ENDBRANCH  20  21
ENDBRANCH  14  20
BRANCH  17  24
ATOM     24  O   LIG A   1      -7.163   3.585 133.161  0.00  0.00    -0.425 OA
BRANCH  24  25
ATOM     25  C   LIG A   1      -8.003   4.059 134.178  0.00  0.00    +0.309 C 
ATOM     26  C   LIG A   1      -7.132   4.746 135.204  0.00  0.00    +0.136 C 
ATOM     27  O   LIG A   1      -9.199   3.857 134.308  0.00  0.00    -0.251 OA
ENDBRANCH  24  25
ENDBRANCH  17  24
ENDBRANCH  10  12
BRANCH  11  28
ATOM     28  O   LIG A   1      -6.576   3.577 129.576  0.00  0.00    -0.488 OA
ATOM     29  C   LIG A   1      -5.653   4.568 130.008  0.00  0.00    +0.277 C 
ENDBRANCH  11  28
BRANCH   6  30
ATOM     30  O   LIG A   1     -12.846   7.406 131.606  0.00  0.00    -0.495 OA
ATOM     31  C   LIG A   1     -13.114   8.706 131.087  0.00  0.00    +0.277 C 
ENDBRANCH   6  30
BRANCH   4  32
ATOM     32  O   LIG A   1      -9.977   7.146 127.789  0.00  0.00    -0.494 OA
ATOM     33  C   LIG A   1     -10.888   7.880 126.983  0.00  0.00    +0.277 C 
ENDBRANCH   4  32
TORSDOF 9
ENDMDL
MODEL 8
REMARK VINA RESULT:      -6.8      3.304      5.421
REMARK  Name = NuBBE_1889
REMARK  15 active torsions:
REMARK  status: ('A' for Active; 'I' for Inactive)
REMARK    1  A    between atoms: C_4  and  O_32
REMARK    2  A    between atoms: C_6  and  O_30
REMARK    3  A    between atoms: C_10  and  C_11
REMARK    4  A    between atoms: C_13  and  O_14
REMARK    5  A    between atoms: O_14  and  C_15
REMARK    6  A    between atoms: C_15  and  C_16
REMARK    7  A    between atoms: C_18  and  O_25
REMARK    8  A    between atoms: C_20  and  O_21
REMARK    9  A    between atoms: O_21  and  C_22
REMARK   10  A    between atoms: C_22  and  C_23
REMARK   11  A    between atoms: O_25  and  C_26
REMARK   12  A    between atoms: C_27  and  O_28
REMARK   13  A    between atoms: O_28  and  C_29
REMARK   14  A    between atoms: O_30  and  C_31
REMARK   15  A    between atoms: O_32  and  C_33
REMARK                            x       y       z     vdW  Elec       q    Type
REMARK                         _______ _______ _______ _____ _____    ______ ____
ROOT
ATOM      1  O   LIG A   1      -8.996   0.972 126.205  0.00  0.00    -0.283 OA
ATOM      2  C   LIG A   1      -8.290   1.934 126.471  0.00  0.00    +0.238 A 
ATOM      3  C   LIG A   1      -7.561   2.667 125.421  0.00  0.00    +0.109 A 
ATOM      4  C   LIG A   1      -7.189   2.110 124.183  0.00  0.00    +0.138 A 
ATOM      5  C   LIG A   1      -6.397   2.870 123.313  0.00  0.00    +0.092 A 
ATOM      6  C   LIG A   1      -6.003   4.172 123.658  0.00  0.00    +0.127 A 
ATOM      7  C   LIG A   1      -6.425   4.727 124.861  0.00  0.00    +0.092 A 
ATOM      8  C   LIG A   1      -7.210   3.980 125.730  0.00  0.00    +0.147 A 
ATOM      9  O   LIG A   1      -7.633   4.606 126.876  0.00  0.00    -0.451 OA
ATOM     10  C   LIG A   1      -7.958   3.801 127.957  0.00  0.00    +0.184 A 
ATOM     11  C   LIG A   1      -8.156   2.471 127.868  0.00  0.00    +0.211 A 
ENDROOT
BRANCH  10  12
ATOM     12  C   LIG A   1      -8.056   4.563 129.214  0.00  0.00    +0.067 A 
ATOM     13  C   LIG A   1      -9.307   5.012 129.650  0.00  0.00    +0.065 A 
ATOM     14  C   LIG A   1      -9.446   5.636 130.902  0.00  0.00    +0.174 A 
ATOM     15  C   LIG A   1      -8.353   5.785 131.770  0.00  0.00    +0.166 A 
ATOM     16  C   LIG A   1      -7.107   5.352 131.331  0.00  0.00    +0.096 A 
ATOM     17  C   LIG A   1      -6.953   4.777 130.056  0.00  0.00    +0.146 A 
BRANCH  15  18
ATOM     18  O   LIG A   1      -8.579   6.346 133.003  0.00  0.00    -0.491 OA
ATOM     19  C   LIG A   1      -8.176   5.584 134.143  0.00  0.00    +0.277 C 
ENDBRANCH  15  18
BRANCH  14  20
ATOM     20  O   LIG A   1     -10.702   6.090 131.366  0.00  0.00    -0.422 OA
BRANCH  20  21
ATOM     21  C   LIG A   1     -11.366   7.122 130.706  0.00  0.00    +0.309 C 
ATOM     22  C   LIG A   1     -12.728   7.303 131.298  0.00  0.00    +0.136 C 
ATOM     23  O   LIG A   1     -10.929   7.828 129.807  0.00  0.00    -0.251 OA
ENDBRANCH  20  21
ENDBRANCH  14  20
BRANCH  17  24
ATOM     24  O   LIG A   1      -5.696   4.251 129.700  0.00  0.00    -0.425 OA
BRANCH  24  25
ATOM     25  C   LIG A   1      -4.880   5.090 128.928  0.00  0.00    +0.309 C 
ATOM     26  C   LIG A   1      -4.149   4.221 127.932  0.00  0.00    +0.136 C 
ATOM     27  O   LIG A   1      -4.676   6.282 129.091  0.00  0.00    -0.251 OA
ENDBRANCH  24  25
ENDBRANCH  17  24
ENDBRANCH  10  12
BRANCH  11  28
ATOM     28  O   LIG A   1      -8.248   1.690 129.007  0.00  0.00    -0.488 OA
ATOM     29  C   LIG A   1      -7.142   0.852 129.313  0.00  0.00    +0.277 C 
ENDBRANCH  11  28
BRANCH   6  30
ATOM     30  O   LIG A   1      -5.177   4.798 122.762  0.00  0.00    -0.495 OA
ATOM     31  C   LIG A   1      -5.210   4.270 121.438  0.00  0.00    +0.277 C 
ENDBRANCH   6  30
BRANCH   4  32
ATOM     32  O   LIG A   1      -7.699   0.884 123.855  0.00  0.00    -0.494 OA
ATOM     33  C   LIG A   1      -6.800  -0.189 123.614  0.00  0.00    +0.277 C 
ENDBRANCH   4  32
TORSDOF 9
ENDMDL
MODEL 9
REMARK VINA RESULT:      -6.8      3.367      6.826
REMARK  Name = NuBBE_1889
REMARK  15 active torsions:
REMARK  status: ('A' for Active; 'I' for Inactive)
REMARK    1  A    between atoms: C_4  and  O_32
REMARK    2  A    between atoms: C_6  and  O_30
REMARK    3  A    between atoms: C_10  and  C_11
REMARK    4  A    between atoms: C_13  and  O_14
REMARK    5  A    between atoms: O_14  and  C_15
REMARK    6  A    between atoms: C_15  and  C_16
REMARK    7  A    between atoms: C_18  and  O_25
REMARK    8  A    between atoms: C_20  and  O_21
REMARK    9  A    between atoms: O_21  and  C_22
REMARK   10  A    between atoms: C_22  and  C_23
REMARK   11  A    between atoms: O_25  and  C_26
REMARK   12  A    between atoms: C_27  and  O_28
REMARK   13  A    between atoms: O_28  and  C_29
REMARK   14  A    between atoms: O_30  and  C_31
REMARK   15  A    between atoms: O_32  and  C_33
REMARK                            x       y       z     vdW  Elec       q    Type
REMARK                         _______ _______ _______ _____ _____    ______ ____
ROOT
ATOM      1  O   LIG A   1      -8.761   1.954 126.627  0.00  0.00    -0.283 OA
ATOM      2  C   LIG A   1      -7.701   2.565 126.650  0.00  0.00    +0.238 A 
ATOM      3  C   LIG A   1      -7.123   3.149 125.426  0.00  0.00    +0.109 A 
ATOM      4  C   LIG A   1      -7.399   2.687 124.126  0.00  0.00    +0.138 A 
ATOM      5  C   LIG A   1      -6.700   3.248 123.050  0.00  0.00    +0.092 A 
ATOM      6  C   LIG A   1      -5.760   4.269 123.262  0.00  0.00    +0.127 A 
ATOM      7  C   LIG A   1      -5.540   4.752 124.547  0.00  0.00    +0.092 A 
ATOM      8  C   LIG A   1      -6.229   4.200 125.621  0.00  0.00    +0.147 A 
ATOM      9  O   LIG A   1      -6.001   4.757 126.855  0.00  0.00    -0.451 OA
ATOM     10  C   LIG A   1      -6.244   3.962 127.965  0.00  0.00    +0.184 A 
ATOM     11  C   LIG A   1      -6.942   2.810 127.923  0.00  0.00    +0.211 A 
ENDROOT
BRANCH  10  12
ATOM     12  C   LIG A   1      -5.647   4.517 129.192  0.00  0.00    +0.067 A 
ATOM     13  C   LIG A   1      -6.453   5.225 130.089  0.00  0.00    +0.065 A 
ATOM     14  C   LIG A   1      -5.937   5.661 131.322  0.00  0.00    +0.174 A 
ATOM     15  C   LIG A   1      -4.623   5.361 131.713  0.00  0.00    +0.166 A 
ATOM     16  C   LIG A   1      -3.817   4.669 130.814  0.00  0.00    +0.096 A 
ATOM     17  C   LIG A   1      -4.312   4.279 129.557  0.00  0.00    +0.146 A 
BRANCH  15  18
ATOM     18  O   LIG A   1      -4.211   5.764 132.959  0.00  0.00    -0.491 OA
ATOM     19  C   LIG A   1      -3.207   6.779 133.010  0.00  0.00    +0.277 C 
ENDBRANCH  15  18
BRANCH  14  20
ATOM     20  O   LIG A   1      -6.736   6.372 132.247  0.00  0.00    -0.422 OA
BRANCH  20  21
ATOM     21  C   LIG A   1      -8.015   5.921 132.567  0.00  0.00    +0.309 C 
ATOM     22  C   LIG A   1      -7.918   4.713 133.444  0.00  0.00    +0.136 C 
ATOM     23  O   LIG A   1      -9.081   6.428 132.244  0.00  0.00    -0.251 OA
ENDBRANCH  20  21
ENDBRANCH  14  20
BRANCH  17  24
ATOM     24  O   LIG A   1      -3.497   3.484 128.728  0.00  0.00    -0.425 OA
BRANCH  24  25
ATOM     25  C   LIG A   1      -2.665   4.180 127.841  0.00  0.00    +0.309 C 
ATOM     26  C   LIG A   1      -1.945   3.157 126.994  0.00  0.00    +0.136 C 
ATOM     27  O   LIG A   1      -2.441   5.379 127.818  0.00  0.00    -0.251 OA
ENDBRANCH  24  25
ENDBRANCH  17  24
ENDBRANCH  10  12
BRANCH  11  28
ATOM     28  O   LIG A   1      -6.953   1.949 129.007  0.00  0.00    -0.488 OA
ATOM     29  C   LIG A   1      -6.145   0.783 128.921  0.00  0.00    +0.277 C 
ENDBRANCH  11  28
BRANCH   6  30
ATOM     30  O   LIG A   1      -5.090   4.698 122.147  0.00  0.00    -0.495 OA
ATOM     31  C   LIG A   1      -5.582   4.187 120.911  0.00  0.00    +0.277 C 
ENDBRANCH   6  30
BRANCH   4  32
ATOM     32  O   LIG A   1      -8.406   1.775 123.971  0.00  0.00    -0.494 OA
ATOM     33  C   LIG A   1      -9.355   1.972 122.932  0.00  0.00    +0.277 C 
ENDBRANCH   4  32
TORSDOF 9
ENDMDL
