MODEL 1
REMARK VINA RESULT:      -6.3      0.000      0.000
REMARK  Name = NuBBE_295
REMARK  5 active torsions:
REMARK  status: ('A' for Active; 'I' for Inactive)
REMARK    1  A    between atoms: O_1  and  C_2
REMARK    2  A    between atoms: C_8  and  C_9
REMARK    3  A    between atoms: C_9  and  C_10
REMARK    4  A    between atoms: C_10  and  O_12
REMARK    5  A    between atoms: C_10  and  C_13
REMARK                            x       y       z     vdW  Elec       q    Type
REMARK                         _______ _______ _______ _____ _____    ______ ____
ROOT
ATOM      1  C   LIG A   1      -9.663   0.577 122.927  0.00  0.00    +0.131 A 
ATOM      2  C   LIG A   1      -9.317   1.931 122.868  0.00  0.00    +0.046 A 
ATOM      3  C   LIG A   1      -8.033   2.341 123.227  0.00  0.00    +0.007 A 
ATOM      4  C   LIG A   1      -7.095   1.399 123.644  0.00  0.00    +0.047 A 
ATOM      5  C   LIG A   1      -7.442   0.047 123.706  0.00  0.00    +0.142 A 
ATOM      6  O   LIG A   1      -6.454  -0.805 124.134  0.00  0.00    -0.459 OA
ATOM      7  C   LIG A   1      -6.747  -2.151 124.251  0.00  0.00    +0.112 A 
ATOM      8  C   LIG A   1      -7.933  -2.685 123.932  0.00  0.00    +0.093 A 
ATOM      9  C   LIG A   1      -8.726  -0.375 123.348  0.00  0.00    +0.105 A 
ATOM     10  C   LIG A   1      -9.024  -1.823 123.441  0.00  0.00    +0.196 A 
ATOM     11  O   LIG A   1     -10.096  -2.337 123.150  0.00  0.00    -0.287 OA
ENDROOT
BRANCH   1  12
ATOM     12  O   LIG A   1     -10.928   0.209 122.571  0.00  0.00    -0.506 OA
ATOM     13  H   LIG A   1     -11.163  -0.639 122.978  0.00  0.00    +0.292 HD
ENDBRANCH   1  12
BRANCH   7  14
ATOM     14  C   LIG A   1      -5.605  -2.987 124.769  0.00  0.00    +0.105 C 
BRANCH  14  15
ATOM     15  C   LIG A   1      -4.553  -3.339 123.706  0.00  0.00    +0.119 C 
ATOM     16  C   LIG A   1      -4.364  -4.840 123.522  0.00  0.00    +0.038 C 
BRANCH  15  17
ATOM     17  O   LIG A   1      -4.979  -2.777 122.462  0.00  0.00    -0.392 OA
ATOM     18  H   LIG A   1      -4.183  -2.581 121.940  0.00  0.00    +0.210 HD
ENDBRANCH  15  17
ENDBRANCH  14  15
ENDBRANCH   7  14
TORSDOF 4
ENDMDL
MODEL 2
REMARK VINA RESULT:      -6.3      1.905      4.795
REMARK  Name = NuBBE_295
REMARK  5 active torsions:
REMARK  status: ('A' for Active; 'I' for Inactive)
REMARK    1  A    between atoms: O_1  and  C_2
REMARK    2  A    between atoms: C_8  and  C_9
REMARK    3  A    between atoms: C_9  and  C_10
REMARK    4  A    between atoms: C_10  and  O_12
REMARK    5  A    between atoms: C_10  and  C_13
REMARK                            x       y       z     vdW  Elec       q    Type
REMARK                         _______ _______ _______ _____ _____    ______ ____
ROOT
ATOM      1  C   LIG A   1      -8.945  -2.083 123.424  0.00  0.00    +0.131 A 
ATOM      2  C   LIG A   1      -7.927  -2.947 123.844  0.00  0.00    +0.046 A 
ATOM      3  C   LIG A   1      -6.663  -2.443 124.147  0.00  0.00    +0.007 A 
ATOM      4  C   LIG A   1      -6.414  -1.077 124.031  0.00  0.00    +0.047 A 
ATOM      5  C   LIG A   1      -7.430  -0.215 123.608  0.00  0.00    +0.142 A 
ATOM      6  O   LIG A   1      -7.089   1.113 123.520  0.00  0.00    -0.459 OA
ATOM      7  C   LIG A   1      -8.041   2.011 123.074  0.00  0.00    +0.112 A 
ATOM      8  C   LIG A   1      -9.296   1.668 122.757  0.00  0.00    +0.093 A 
ATOM      9  C   LIG A   1      -8.701  -0.709 123.303  0.00  0.00    +0.105 A 
ATOM     10  C   LIG A   1      -9.728   0.262 122.859  0.00  0.00    +0.196 A 
ATOM     11  O   LIG A   1     -10.883  -0.023 122.571  0.00  0.00    -0.287 OA
ENDROOT
BRANCH   1  12
ATOM     12  O   LIG A   1     -10.171  -2.609 123.133  0.00  0.00    -0.506 OA
ATOM     13  H   LIG A   1     -10.523  -2.219 122.319  0.00  0.00    +0.292 HD
ENDBRANCH   1  12
BRANCH   7  14
ATOM     14  C   LIG A   1      -7.547   3.431 122.973  0.00  0.00    +0.105 C 
BRANCH  14  15
ATOM     15  C   LIG A   1      -6.046   3.552 122.668  0.00  0.00    +0.119 C 
ATOM     16  C   LIG A   1      -5.722   3.433 121.183  0.00  0.00    +0.038 C 
BRANCH  15  17
ATOM     17  O   LIG A   1      -5.604   4.830 123.130  0.00  0.00    -0.392 OA
ATOM     18  H   LIG A   1      -5.554   5.422 122.360  0.00  0.00    +0.210 HD
ENDBRANCH  15  17
ENDBRANCH  14  15
ENDBRANCH   7  14
TORSDOF 4
ENDMDL
MODEL 3
REMARK VINA RESULT:      -6.2      9.504     10.960
REMARK  Name = NuBBE_295
REMARK  5 active torsions:
REMARK  status: ('A' for Active; 'I' for Inactive)
REMARK    1  A    between atoms: O_1  and  C_2
REMARK    2  A    between atoms: C_8  and  C_9
REMARK    3  A    between atoms: C_9  and  C_10
REMARK    4  A    between atoms: C_10  and  O_12
REMARK    5  A    between atoms: C_10  and  C_13
REMARK                            x       y       z     vdW  Elec       q    Type
REMARK                         _______ _______ _______ _____ _____    ______ ____
ROOT
ATOM      1  C   LIG A   1     -11.477   7.195 128.017  0.00  0.00    +0.131 A 
ATOM      2  C   LIG A   1     -12.641   7.968 128.093  0.00  0.00    +0.046 A 
ATOM      3  C   LIG A   1     -13.134   8.368 129.335  0.00  0.00    +0.007 A 
ATOM      4  C   LIG A   1     -12.467   7.998 130.499  0.00  0.00    +0.047 A 
ATOM      5  C   LIG A   1     -11.306   7.222 130.424  0.00  0.00    +0.142 A 
ATOM      6  O   LIG A   1     -10.722   6.903 131.625  0.00  0.00    -0.459 OA
ATOM      7  C   LIG A   1      -9.590   6.108 131.618  0.00  0.00    +0.112 A 
ATOM      8  C   LIG A   1      -9.002   5.660 130.500  0.00  0.00    +0.093 A 
ATOM      9  C   LIG A   1     -10.802   6.816 129.185  0.00  0.00    +0.105 A 
ATOM     10  C   LIG A   1      -9.570   5.995 129.181  0.00  0.00    +0.196 A 
ATOM     11  O   LIG A   1      -9.009   5.578 128.175  0.00  0.00    -0.287 OA
ENDROOT
BRANCH   1  12
ATOM     12  O   LIG A   1     -11.021   6.817 126.787  0.00  0.00    -0.506 OA
ATOM     13  H   LIG A   1     -10.053   6.786 126.779  0.00  0.00    +0.292 HD
ENDBRANCH   1  12
BRANCH   7  14
ATOM     14  C   LIG A   1      -9.058   5.783 132.989  0.00  0.00    +0.105 C 
BRANCH  14  15
ATOM     15  C   LIG A   1      -8.975   4.278 133.288  0.00  0.00    +0.119 C 
ATOM     16  C   LIG A   1      -7.728   3.889 134.073  0.00  0.00    +0.038 C 
BRANCH  15  17
ATOM     17  O   LIG A   1     -10.127   3.917 134.054  0.00  0.00    -0.392 OA
ATOM     18  H   LIG A   1     -10.418   4.708 134.540  0.00  0.00    +0.210 HD
ENDBRANCH  15  17
ENDBRANCH  14  15
ENDBRANCH   7  14
TORSDOF 4
ENDMDL
MODEL 4
REMARK VINA RESULT:      -5.9      9.666     11.589
REMARK  Name = NuBBE_295
REMARK  5 active torsions:
REMARK  status: ('A' for Active; 'I' for Inactive)
REMARK    1  A    between atoms: O_1  and  C_2
REMARK    2  A    between atoms: C_8  and  C_9
REMARK    3  A    between atoms: C_9  and  C_10
REMARK    4  A    between atoms: C_10  and  O_12
REMARK    5  A    between atoms: C_10  and  C_13
REMARK                            x       y       z     vdW  Elec       q    Type
REMARK                         _______ _______ _______ _____ _____    ______ ____
ROOT
ATOM      1  C   LIG A   1      -9.515   3.384 132.770  0.00  0.00    +0.131 A 
ATOM      2  C   LIG A   1      -8.761   3.567 133.934  0.00  0.00    +0.046 A 
ATOM      3  C   LIG A   1      -8.214   4.817 134.224  0.00  0.00    +0.007 A 
ATOM      4  C   LIG A   1      -8.420   5.883 133.352  0.00  0.00    +0.047 A 
ATOM      5  C   LIG A   1      -9.170   5.699 132.186  0.00  0.00    +0.142 A 
ATOM      6  O   LIG A   1      -9.313   6.807 131.387  0.00  0.00    -0.459 OA
ATOM      7  C   LIG A   1     -10.015   6.680 130.203  0.00  0.00    +0.112 A 
ATOM      8  C   LIG A   1     -10.601   5.544 129.803  0.00  0.00    +0.093 A 
ATOM      9  C   LIG A   1      -9.723   4.451 131.886  0.00  0.00    +0.105 A 
ATOM     10  C   LIG A   1     -10.504   4.329 130.634  0.00  0.00    +0.196 A 
ATOM     11  O   LIG A   1     -11.055   3.306 130.249  0.00  0.00    -0.287 OA
ENDROOT
BRANCH   1  12
ATOM     12  O   LIG A   1     -10.035   2.148 132.514  0.00  0.00    -0.506 OA
ATOM     13  H   LIG A   1     -10.969   2.217 132.264  0.00  0.00    +0.292 HD
ENDBRANCH   1  12
BRANCH   7  14
ATOM     14  C   LIG A   1     -10.073   7.943 129.384  0.00  0.00    +0.105 C 
BRANCH  14  15
ATOM     15  C   LIG A   1     -11.353   8.089 128.547  0.00  0.00    +0.119 C 
ATOM     16  C   LIG A   1     -12.455   8.863 129.261  0.00  0.00    +0.038 C 
BRANCH  15  17
ATOM     17  O   LIG A   1     -11.016   8.782 127.343  0.00  0.00    -0.392 OA
ATOM     18  H   LIG A   1     -11.657   8.517 126.661  0.00  0.00    +0.210 HD
ENDBRANCH  15  17
ENDBRANCH  14  15
ENDBRANCH   7  14
TORSDOF 4
ENDMDL
MODEL 5
REMARK VINA RESULT:      -5.9      3.392      4.514
REMARK  Name = NuBBE_295
REMARK  5 active torsions:
REMARK  status: ('A' for Active; 'I' for Inactive)
REMARK    1  A    between atoms: O_1  and  C_2
REMARK    2  A    between atoms: C_8  and  C_9
REMARK    3  A    between atoms: C_9  and  C_10
REMARK    4  A    between atoms: C_10  and  O_12
REMARK    5  A    between atoms: C_10  and  C_13
REMARK                            x       y       z     vdW  Elec       q    Type
REMARK                         _______ _______ _______ _____ _____    ______ ____
ROOT
ATOM      1  C   LIG A   1      -8.466  -2.367 123.593  0.00  0.00    +0.131 A 
ATOM      2  C   LIG A   1      -7.551  -2.088 122.573  0.00  0.00    +0.046 A 
ATOM      3  C   LIG A   1      -6.200  -1.910 122.874  0.00  0.00    +0.007 A 
ATOM      4  C   LIG A   1      -5.764  -2.012 124.193  0.00  0.00    +0.047 A 
ATOM      5  C   LIG A   1      -6.680  -2.287 125.213  0.00  0.00    +0.142 A 
ATOM      6  O   LIG A   1      -6.157  -2.362 126.481  0.00  0.00    -0.459 OA
ATOM      7  C   LIG A   1      -7.019  -2.597 127.537  0.00  0.00    +0.112 A 
ATOM      8  C   LIG A   1      -8.335  -2.796 127.394  0.00  0.00    +0.093 A 
ATOM      9  C   LIG A   1      -8.035  -2.467 124.923  0.00  0.00    +0.105 A 
ATOM     10  C   LIG A   1      -8.948  -2.754 126.053  0.00  0.00    +0.196 A 
ATOM     11  O   LIG A   1     -10.153  -2.945 125.949  0.00  0.00    -0.287 OA
ENDROOT
BRANCH   1  12
ATOM     12  O   LIG A   1      -9.781  -2.532 123.266  0.00  0.00    -0.506 OA
ATOM     13  H   LIG A   1     -10.215  -1.673 123.157  0.00  0.00    +0.292 HD
ENDBRANCH   1  12
BRANCH   7  14
ATOM     14  C   LIG A   1      -6.347  -2.616 128.886  0.00  0.00    +0.105 C 
BRANCH  14  15
ATOM     15  C   LIG A   1      -6.876  -3.704 129.833  0.00  0.00    +0.119 C 
ATOM     16  C   LIG A   1      -5.770  -4.540 130.467  0.00  0.00    +0.038 C 
BRANCH  15  17
ATOM     17  O   LIG A   1      -7.615  -3.060 130.874  0.00  0.00    -0.392 OA
ATOM     18  H   LIG A   1      -7.956  -3.753 131.465  0.00  0.00    +0.210 HD
ENDBRANCH  15  17
ENDBRANCH  14  15
ENDBRANCH   7  14
TORSDOF 4
ENDMDL
MODEL 6
REMARK VINA RESULT:      -5.8      5.109      5.715
REMARK  Name = NuBBE_295
REMARK  5 active torsions:
REMARK  status: ('A' for Active; 'I' for Inactive)
REMARK    1  A    between atoms: O_1  and  C_2
REMARK    2  A    between atoms: C_8  and  C_9
REMARK    3  A    between atoms: C_9  and  C_10
REMARK    4  A    between atoms: C_10  and  O_12
REMARK    5  A    between atoms: C_10  and  C_13
REMARK                            x       y       z     vdW  Elec       q    Type
REMARK                         _______ _______ _______ _____ _____    ______ ____
ROOT
ATOM      1  C   LIG A   1      -7.680   3.544 121.541  0.00  0.00    +0.131 A 
ATOM      2  C   LIG A   1      -7.035   3.901 120.352  0.00  0.00    +0.046 A 
ATOM      3  C   LIG A   1      -5.714   4.347 120.380  0.00  0.00    +0.007 A 
ATOM      4  C   LIG A   1      -5.037   4.437 121.594  0.00  0.00    +0.047 A 
ATOM      5  C   LIG A   1      -5.683   4.083 122.783  0.00  0.00    +0.142 A 
ATOM      6  O   LIG A   1      -4.937   4.210 123.929  0.00  0.00    -0.459 OA
ATOM      7  C   LIG A   1      -5.531   3.910 125.140  0.00  0.00    +0.112 A 
ATOM      8  C   LIG A   1      -6.788   3.462 125.262  0.00  0.00    +0.093 A 
ATOM      9  C   LIG A   1      -7.007   3.635 122.766  0.00  0.00    +0.105 A 
ATOM     10  C   LIG A   1      -7.628   3.280 124.063  0.00  0.00    +0.196 A 
ATOM     11  O   LIG A   1      -8.770   2.863 124.202  0.00  0.00    -0.287 OA
ENDROOT
BRANCH   1  12
ATOM     12  O   LIG A   1      -8.974   3.114 121.480  0.00  0.00    -0.506 OA
ATOM     13  H   LIG A   1      -9.150   2.466 122.179  0.00  0.00    +0.292 HD
ENDBRANCH   1  12
BRANCH   7  14
ATOM     14  C   LIG A   1      -4.638   4.125 126.334  0.00  0.00    +0.105 C 
BRANCH  14  15
ATOM     15  C   LIG A   1      -3.337   3.309 126.298  0.00  0.00    +0.119 C 
ATOM     16  C   LIG A   1      -2.342   3.714 127.379  0.00  0.00    +0.038 C 
BRANCH  15  17
ATOM     17  O   LIG A   1      -3.675   1.932 126.482  0.00  0.00    -0.392 OA
ATOM     18  H   LIG A   1      -3.520   1.713 127.417  0.00  0.00    +0.210 HD
ENDBRANCH  15  17
ENDBRANCH  14  15
ENDBRANCH   7  14
TORSDOF 4
ENDMDL
MODEL 7
REMARK VINA RESULT:      -5.7     10.379     11.375
REMARK  Name = NuBBE_295
REMARK  5 active torsions:
REMARK  status: ('A' for Active; 'I' for Inactive)
REMARK    1  A    between atoms: O_1  and  C_2
REMARK    2  A    between atoms: C_8  and  C_9
REMARK    3  A    between atoms: C_9  and  C_10
REMARK    4  A    between atoms: C_10  and  O_12
REMARK    5  A    between atoms: C_10  and  C_13
REMARK                            x       y       z     vdW  Elec       q    Type
REMARK                         _______ _______ _______ _____ _____    ______ ____
ROOT
ATOM      1  C   LIG A   1      -8.917   5.657 132.841  0.00  0.00    +0.131 A 
ATOM      2  C   LIG A   1     -10.127   5.970 132.211  0.00  0.00    +0.046 A 
ATOM      3  C   LIG A   1     -10.129   6.709 131.028  0.00  0.00    +0.007 A 
ATOM      4  C   LIG A   1      -8.924   7.136 130.475  0.00  0.00    +0.047 A 
ATOM      5  C   LIG A   1      -7.716   6.826 131.106  0.00  0.00    +0.142 A 
ATOM      6  O   LIG A   1      -6.582   7.295 130.489  0.00  0.00    -0.459 OA
ATOM      7  C   LIG A   1      -5.358   7.051 131.084  0.00  0.00    +0.112 A 
ATOM      8  C   LIG A   1      -5.206   6.348 132.213  0.00  0.00    +0.093 A 
ATOM      9  C   LIG A   1      -7.702   6.086 132.291  0.00  0.00    +0.105 A 
ATOM     10  C   LIG A   1      -6.386   5.797 132.906  0.00  0.00    +0.196 A 
ATOM     11  O   LIG A   1      -6.219   5.153 133.933  0.00  0.00    -0.287 OA
ENDROOT
BRANCH   1  12
ATOM     12  O   LIG A   1      -8.950   4.934 133.998  0.00  0.00    -0.506 OA
ATOM     13  H   LIG A   1      -8.057   4.655 134.250  0.00  0.00    +0.292 HD
ENDBRANCH   1  12
BRANCH   7  14
ATOM     14  C   LIG A   1      -4.186   7.647 130.346  0.00  0.00    +0.105 C 
BRANCH  14  15
ATOM     15  C   LIG A   1      -3.847   6.931 129.029  0.00  0.00    +0.119 C 
ATOM     16  C   LIG A   1      -2.448   6.327 129.016  0.00  0.00    +0.038 C 
BRANCH  15  17
ATOM     17  O   LIG A   1      -4.799   5.882 128.840  0.00  0.00    -0.392 OA
ATOM     18  H   LIG A   1      -5.591   6.272 128.431  0.00  0.00    +0.210 HD
ENDBRANCH  15  17
ENDBRANCH  14  15
ENDBRANCH   7  14
TORSDOF 4
ENDMDL
MODEL 8
REMARK VINA RESULT:      -5.6     11.129     12.467
REMARK  Name = NuBBE_295
REMARK  5 active torsions:
REMARK  status: ('A' for Active; 'I' for Inactive)
REMARK    1  A    between atoms: O_1  and  C_2
REMARK    2  A    between atoms: C_8  and  C_9
REMARK    3  A    between atoms: C_9  and  C_10
REMARK    4  A    between atoms: C_10  and  O_12
REMARK    5  A    between atoms: C_10  and  C_13
REMARK                            x       y       z     vdW  Elec       q    Type
REMARK                         _______ _______ _______ _____ _____    ______ ____
ROOT
ATOM      1  C   LIG A   1      -6.636   5.643 132.879  0.00  0.00    +0.131 A 
ATOM      2  C   LIG A   1      -6.509   4.805 133.992  0.00  0.00    +0.046 A 
ATOM      3  C   LIG A   1      -7.641   4.225 134.564  0.00  0.00    +0.007 A 
ATOM      4  C   LIG A   1      -8.900   4.482 134.026  0.00  0.00    +0.047 A 
ATOM      5  C   LIG A   1      -9.027   5.323 132.916  0.00  0.00    +0.142 A 
ATOM      6  O   LIG A   1     -10.308   5.521 132.461  0.00  0.00    -0.459 OA
ATOM      7  C   LIG A   1     -10.503   6.371 131.387  0.00  0.00    +0.112 A 
ATOM      8  C   LIG A   1      -9.508   6.987 130.735  0.00  0.00    +0.093 A 
ATOM      9  C   LIG A   1      -7.899   5.909 132.334  0.00  0.00    +0.105 A 
ATOM     10  C   LIG A   1      -8.110   6.790 131.163  0.00  0.00    +0.196 A 
ATOM     11  O   LIG A   1      -7.219   7.359 130.545  0.00  0.00    -0.287 OA
ENDROOT
BRANCH   1  12
ATOM     12  O   LIG A   1      -5.509   6.196 132.344  0.00  0.00    -0.506 OA
ATOM     13  H   LIG A   1      -4.737   5.641 132.528  0.00  0.00    +0.292 HD
ENDBRANCH   1  12
BRANCH   7  14
ATOM     14  C   LIG A   1     -11.947   6.550 130.999  0.00  0.00    +0.105 C 
BRANCH  14  15
ATOM     15  C   LIG A   1     -12.155   7.390 129.730  0.00  0.00    +0.119 C 
ATOM     16  C   LIG A   1     -13.164   6.781 128.763  0.00  0.00    +0.038 C 
BRANCH  15  17
ATOM     17  O   LIG A   1     -12.627   8.680 130.129  0.00  0.00    -0.392 OA
ATOM     18  H   LIG A   1     -12.680   9.234 129.331  0.00  0.00    +0.210 HD
ENDBRANCH  15  17
ENDBRANCH  14  15
ENDBRANCH   7  14
TORSDOF 4
ENDMDL
MODEL 9
REMARK VINA RESULT:      -5.5      8.956     11.505
REMARK  Name = NuBBE_295
REMARK  5 active torsions:
REMARK  status: ('A' for Active; 'I' for Inactive)
REMARK    1  A    between atoms: O_1  and  C_2
REMARK    2  A    between atoms: C_8  and  C_9
REMARK    3  A    between atoms: C_9  and  C_10
REMARK    4  A    between atoms: C_10  and  O_12
REMARK    5  A    between atoms: C_10  and  C_13
REMARK                            x       y       z     vdW  Elec       q    Type
REMARK                         _______ _______ _______ _____ _____    ______ ____
ROOT
ATOM      1  C   LIG A   1      -8.059   4.958 131.549  0.00  0.00    +0.131 A 
ATOM      2  C   LIG A   1      -7.110   4.270 130.786  0.00  0.00    +0.046 A 
ATOM      3  C   LIG A   1      -7.273   4.155 129.406  0.00  0.00    +0.007 A 
ATOM      4  C   LIG A   1      -8.383   4.726 128.788  0.00  0.00    +0.047 A 
ATOM      5  C   LIG A   1      -9.333   5.410 129.551  0.00  0.00    +0.142 A 
ATOM      6  O   LIG A   1     -10.395   5.934 128.855  0.00  0.00    -0.459 OA
ATOM      7  C   LIG A   1     -11.386   6.592 129.559  0.00  0.00    +0.112 A 
ATOM      8  C   LIG A   1     -11.355   6.785 130.884  0.00  0.00    +0.093 A 
ATOM      9  C   LIG A   1      -9.180   5.532 130.935  0.00  0.00    +0.105 A 
ATOM     10  C   LIG A   1     -10.226   6.269 131.680  0.00  0.00    +0.196 A 
ATOM     11  O   LIG A   1     -10.219   6.465 132.889  0.00  0.00    -0.287 OA
ENDROOT
BRANCH   1  12
ATOM     12  O   LIG A   1      -7.872   5.051 132.898  0.00  0.00    -0.506 OA
ATOM     13  H   LIG A   1      -8.549   5.617 133.297  0.00  0.00    +0.292 HD
ENDBRANCH   1  12
BRANCH   7  14
ATOM     14  C   LIG A   1     -12.523   7.087 128.702  0.00  0.00    +0.105 C 
BRANCH  14  15
ATOM     15  C   LIG A   1     -12.359   8.537 128.221  0.00  0.00    +0.119 C 
ATOM     16  C   LIG A   1     -12.989   9.558 129.160  0.00  0.00    +0.038 C 
BRANCH  15  17
ATOM     17  O   LIG A   1     -10.959   8.812 128.121  0.00  0.00    -0.392 OA
ATOM     18  H   LIG A   1     -10.516   8.355 128.856  0.00  0.00    +0.210 HD
ENDBRANCH  15  17
ENDBRANCH  14  15
ENDBRANCH   7  14
TORSDOF 4
ENDMDL
