MODEL 1
REMARK VINA RESULT:      -5.9      0.000      0.000
REMARK  Name = NuBBE_734
REMARK  6 active torsions:
REMARK  status: ('A' for Active; 'I' for Inactive)
REMARK    1  A    between atoms: C_2  and  C_3
REMARK    2  A    between atoms: C_3  and  C_4
REMARK    3  A    between atoms: C_6  and  O_7
REMARK    4  A    between atoms: O_7  and  C_8
REMARK    5  A    between atoms: C_9  and  O_10
REMARK    6  A    between atoms: O_10  and  C_11
REMARK                            x       y       z     vdW  Elec       q    Type
REMARK                         _______ _______ _______ _____ _____    ______ ____
ROOT
ATOM      1  C   LIG A   1     -12.824   8.980 129.262  0.00  0.00    -0.040 A 
ATOM      2  C   LIG A   1     -12.060   8.414 128.231  0.00  0.00    +0.053 A 
ATOM      3  C   LIG A   1     -11.448   7.156 128.378  0.00  0.00    +0.162 A 
ATOM      4  C   LIG A   1     -11.578   6.462 129.590  0.00  0.00    +0.162 A 
ATOM      5  C   LIG A   1     -12.333   7.029 130.625  0.00  0.00    +0.050 A 
ATOM      6  C   LIG A   1     -12.958   8.269 130.460  0.00  0.00    +0.008 A 
ENDROOT
BRANCH   3   7
ATOM      7  O   LIG A   1     -10.754   6.753 127.265  0.00  0.00    -0.491 OA
ATOM      8  C   LIG A   1     -10.856   7.584 126.113  0.00  0.00    +0.277 C 
ENDBRANCH   3   7
BRANCH   4   9
ATOM      9  O   LIG A   1     -10.877   5.299 129.774  0.00  0.00    -0.491 OA
ATOM     10  C   LIG A   1     -10.211   5.182 131.028  0.00  0.00    +0.277 C 
ENDBRANCH   4   9
BRANCH   1  11
ATOM     11  C   LIG A   1     -13.494  10.324 129.083  0.00  0.00    +0.061 C 
BRANCH  11  13
ATOM     12  C   LIG A   1     -13.802  12.464 130.383  0.00  0.00    +0.004 C 
ATOM     13  C   LIG A   1     -13.488  11.166 130.333  0.00  0.00    -0.030 C 
ENDBRANCH  11  13
ENDBRANCH   1  11
TORSDOF 4
ENDMDL
MODEL 2
REMARK VINA RESULT:      -5.6     10.978     13.614
REMARK  Name = NuBBE_734
REMARK  6 active torsions:
REMARK  status: ('A' for Active; 'I' for Inactive)
REMARK    1  A    between atoms: C_2  and  C_3
REMARK    2  A    between atoms: C_3  and  C_4
REMARK    3  A    between atoms: C_6  and  O_7
REMARK    4  A    between atoms: O_7  and  C_8
REMARK    5  A    between atoms: C_9  and  O_10
REMARK    6  A    between atoms: O_10  and  C_11
REMARK                            x       y       z     vdW  Elec       q    Type
REMARK                         _______ _______ _______ _____ _____    ______ ____
ROOT
ATOM      1  C   LIG A   1      -6.328  -2.435 124.039  0.00  0.00    -0.040 A 
ATOM      2  C   LIG A   1      -7.448  -2.612 124.865  0.00  0.00    +0.053 A 
ATOM      3  C   LIG A   1      -8.736  -2.236 124.444  0.00  0.00    +0.162 A 
ATOM      4  C   LIG A   1      -8.906  -1.644 123.183  0.00  0.00    +0.162 A 
ATOM      5  C   LIG A   1      -7.788  -1.459 122.359  0.00  0.00    +0.050 A 
ATOM      6  C   LIG A   1      -6.515  -1.860 122.778  0.00  0.00    +0.008 A 
ENDROOT
BRANCH   3   7
ATOM      7  O   LIG A   1      -9.712  -2.495 125.374  0.00  0.00    -0.491 OA
ATOM      8  C   LIG A   1      -9.319  -3.238 126.523  0.00  0.00    +0.277 C 
ENDBRANCH   3   7
BRANCH   4   9
ATOM      9  O   LIG A   1     -10.139  -1.164 122.829  0.00  0.00    -0.491 OA
ATOM     10  C   LIG A   1     -10.173   0.210 122.457  0.00  0.00    +0.277 C 
ENDBRANCH   4   9
BRANCH   1  11
ATOM     11  C   LIG A   1      -4.952  -2.865 124.496  0.00  0.00    +0.061 C 
BRANCH  11  13
ATOM     12  C   LIG A   1      -4.342  -5.073 123.439  0.00  0.00    +0.004 C 
ATOM     13  C   LIG A   1      -4.239  -3.741 123.500  0.00  0.00    -0.030 C 
ENDBRANCH  11  13
ENDBRANCH   1  11
TORSDOF 4
ENDMDL
MODEL 3
REMARK VINA RESULT:      -5.4      1.695      2.081
REMARK  Name = NuBBE_734
REMARK  6 active torsions:
REMARK  status: ('A' for Active; 'I' for Inactive)
REMARK    1  A    between atoms: C_2  and  C_3
REMARK    2  A    between atoms: C_3  and  C_4
REMARK    3  A    between atoms: C_6  and  O_7
REMARK    4  A    between atoms: O_7  and  C_8
REMARK    5  A    between atoms: C_9  and  O_10
REMARK    6  A    between atoms: O_10  and  C_11
REMARK                            x       y       z     vdW  Elec       q    Type
REMARK                         _______ _______ _______ _____ _____    ______ ____
ROOT
ATOM      1  C   LIG A   1     -12.123   8.245 129.861  0.00  0.00    -0.040 A 
ATOM      2  C   LIG A   1     -10.854   7.811 129.451  0.00  0.00    +0.053 A 
ATOM      3  C   LIG A   1     -10.174   6.787 130.133  0.00  0.00    +0.162 A 
ATOM      4  C   LIG A   1     -10.761   6.202 131.265  0.00  0.00    +0.162 A 
ATOM      5  C   LIG A   1     -12.025   6.639 131.682  0.00  0.00    +0.050 A 
ATOM      6  C   LIG A   1     -12.704   7.642 130.982  0.00  0.00    +0.008 A 
ENDROOT
BRANCH   3   7
ATOM      7  O   LIG A   1      -8.953   6.482 129.584  0.00  0.00    -0.491 OA
ATOM      8  C   LIG A   1      -8.822   5.194 128.992  0.00  0.00    +0.277 C 
ENDBRANCH   3   7
BRANCH   4   9
ATOM      9  O   LIG A   1     -10.042   5.296 132.000  0.00  0.00    -0.491 OA
ATOM     10  C   LIG A   1      -9.132   5.859 132.940  0.00  0.00    +0.277 C 
ENDBRANCH   4   9
BRANCH   1  11
ATOM     11  C   LIG A   1     -12.853   9.333 129.105  0.00  0.00    +0.061 C 
BRANCH  11  13
ATOM     12  C   LIG A   1     -13.747  11.638 129.607  0.00  0.00    +0.004 C 
ATOM     13  C   LIG A   1     -13.423  10.402 130.001  0.00  0.00    -0.030 C 
ENDBRANCH  11  13
ENDBRANCH   1  11
TORSDOF 4
ENDMDL
MODEL 4
REMARK VINA RESULT:      -5.4      1.726      4.502
REMARK  Name = NuBBE_734
REMARK  6 active torsions:
REMARK  status: ('A' for Active; 'I' for Inactive)
REMARK    1  A    between atoms: C_2  and  C_3
REMARK    2  A    between atoms: C_3  and  C_4
REMARK    3  A    between atoms: C_6  and  O_7
REMARK    4  A    between atoms: O_7  and  C_8
REMARK    5  A    between atoms: C_9  and  O_10
REMARK    6  A    between atoms: O_10  and  C_11
REMARK                            x       y       z     vdW  Elec       q    Type
REMARK                         _______ _______ _______ _____ _____    ______ ____
ROOT
ATOM      1  C   LIG A   1     -10.874   6.693 130.606  0.00  0.00    -0.040 A 
ATOM      2  C   LIG A   1     -10.544   7.238 129.357  0.00  0.00    +0.053 A 
ATOM      3  C   LIG A   1     -11.332   8.238 128.761  0.00  0.00    +0.162 A 
ATOM      4  C   LIG A   1     -12.492   8.684 129.413  0.00  0.00    +0.162 A 
ATOM      5  C   LIG A   1     -12.830   8.135 130.658  0.00  0.00    +0.050 A 
ATOM      6  C   LIG A   1     -12.025   7.159 131.252  0.00  0.00    +0.008 A 
ENDROOT
BRANCH   3   7
ATOM      7  O   LIG A   1     -10.851   8.664 127.548  0.00  0.00    -0.491 OA
ATOM      8  C   LIG A   1     -10.942   7.743 126.466  0.00  0.00    +0.277 C 
ENDBRANCH   3   7
BRANCH   4   9
ATOM      9  O   LIG A   1     -13.324   9.564 128.773  0.00  0.00    -0.491 OA
ATOM     10  C   LIG A   1     -13.563  10.787 129.462  0.00  0.00    +0.277 C 
ENDBRANCH   4   9
BRANCH   1  11
ATOM     11  C   LIG A   1     -10.004   5.634 131.245  0.00  0.00    +0.061 C 
BRANCH  11  13
ATOM     12  C   LIG A   1      -7.656   6.526 131.483  0.00  0.00    +0.004 C 
ATOM     13  C   LIG A   1      -8.840   6.202 132.014  0.00  0.00    -0.030 C 
ENDBRANCH  11  13
ENDBRANCH   1  11
TORSDOF 4
ENDMDL
MODEL 5
REMARK VINA RESULT:      -5.2     11.943     13.457
REMARK  Name = NuBBE_734
REMARK  6 active torsions:
REMARK  status: ('A' for Active; 'I' for Inactive)
REMARK    1  A    between atoms: C_2  and  C_3
REMARK    2  A    between atoms: C_3  and  C_4
REMARK    3  A    between atoms: C_6  and  O_7
REMARK    4  A    between atoms: O_7  and  C_8
REMARK    5  A    between atoms: C_9  and  O_10
REMARK    6  A    between atoms: O_10  and  C_11
REMARK                            x       y       z     vdW  Elec       q    Type
REMARK                         _______ _______ _______ _____ _____    ______ ____
ROOT
ATOM      1  C   LIG A   1      -6.302  -2.686 124.624  0.00  0.00    -0.040 A 
ATOM      2  C   LIG A   1      -5.650  -2.153 125.746  0.00  0.00    +0.053 A 
ATOM      3  C   LIG A   1      -6.290  -2.071 126.995  0.00  0.00    +0.162 A 
ATOM      4  C   LIG A   1      -7.618  -2.504 127.122  0.00  0.00    +0.162 A 
ATOM      5  C   LIG A   1      -8.275  -3.029 126.001  0.00  0.00    +0.050 A 
ATOM      6  C   LIG A   1      -7.621  -3.129 124.769  0.00  0.00    +0.008 A 
ENDROOT
BRANCH   3   7
ATOM      7  O   LIG A   1      -5.497  -1.536 127.981  0.00  0.00    -0.491 OA
ATOM      8  C   LIG A   1      -4.687  -2.449 128.714  0.00  0.00    +0.277 C 
ENDBRANCH   3   7
BRANCH   4   9
ATOM      9  O   LIG A   1      -8.278  -2.305 128.306  0.00  0.00    -0.491 OA
ATOM     10  C   LIG A   1      -8.278  -3.416 129.197  0.00  0.00    +0.277 C 
ENDBRANCH   4   9
BRANCH   1  11
ATOM     11  C   LIG A   1      -5.594  -2.788 123.292  0.00  0.00    +0.061 C 
BRANCH  11  13
ATOM     12  C   LIG A   1      -4.287  -4.935 123.511  0.00  0.00    +0.004 C 
ATOM     13  C   LIG A   1      -4.332  -3.609 123.348  0.00  0.00    -0.030 C 
ENDBRANCH  11  13
ENDBRANCH   1  11
TORSDOF 4
ENDMDL
MODEL 6
REMARK VINA RESULT:      -5.1      9.933     12.804
REMARK  Name = NuBBE_734
REMARK  6 active torsions:
REMARK  status: ('A' for Active; 'I' for Inactive)
REMARK    1  A    between atoms: C_2  and  C_3
REMARK    2  A    between atoms: C_3  and  C_4
REMARK    3  A    between atoms: C_6  and  O_7
REMARK    4  A    between atoms: O_7  and  C_8
REMARK    5  A    between atoms: C_9  and  O_10
REMARK    6  A    between atoms: O_10  and  C_11
REMARK                            x       y       z     vdW  Elec       q    Type
REMARK                         _______ _______ _______ _____ _____    ______ ____
ROOT
ATOM      1  C   LIG A   1      -6.352  -1.929 123.962  0.00  0.00    -0.040 A 
ATOM      2  C   LIG A   1      -6.489  -0.623 124.455  0.00  0.00    +0.053 A 
ATOM      3  C   LIG A   1      -7.732   0.034 124.456  0.00  0.00    +0.162 A 
ATOM      4  C   LIG A   1      -8.858  -0.615 123.926  0.00  0.00    +0.162 A 
ATOM      5  C   LIG A   1      -8.723  -1.916 123.425  0.00  0.00    +0.050 A 
ATOM      6  C   LIG A   1      -7.486  -2.570 123.451  0.00  0.00    +0.008 A 
ENDROOT
BRANCH   3   7
ATOM      7  O   LIG A   1      -7.682   1.298 124.989  0.00  0.00    -0.491 OA
ATOM      8  C   LIG A   1      -6.678   2.168 124.477  0.00  0.00    +0.277 C 
ENDBRANCH   3   7
BRANCH   4   9
ATOM      9  O   LIG A   1     -10.036   0.074 123.813  0.00  0.00    -0.491 OA
ATOM     10  C   LIG A   1     -10.251   0.708 122.555  0.00  0.00    +0.277 C 
ENDBRANCH   4   9
BRANCH   1  11
ATOM     11  C   LIG A   1      -5.014  -2.631 123.987  0.00  0.00    +0.061 C 
BRANCH  11  13
ATOM     12  C   LIG A   1      -4.171  -4.944 123.433  0.00  0.00    +0.004 C 
ATOM     13  C   LIG A   1      -5.125  -4.132 123.898  0.00  0.00    -0.030 C 
ENDBRANCH  11  13
ENDBRANCH   1  11
TORSDOF 4
ENDMDL
MODEL 7
REMARK VINA RESULT:      -5.0      9.692     12.448
REMARK  Name = NuBBE_734
REMARK  6 active torsions:
REMARK  status: ('A' for Active; 'I' for Inactive)
REMARK    1  A    between atoms: C_2  and  C_3
REMARK    2  A    between atoms: C_3  and  C_4
REMARK    3  A    between atoms: C_6  and  O_7
REMARK    4  A    between atoms: O_7  and  C_8
REMARK    5  A    between atoms: C_9  and  O_10
REMARK    6  A    between atoms: O_10  and  C_11
REMARK                            x       y       z     vdW  Elec       q    Type
REMARK                         _______ _______ _______ _____ _____    ______ ____
ROOT
ATOM      1  C   LIG A   1      -6.464  -1.740 123.709  0.00  0.00    -0.040 A 
ATOM      2  C   LIG A   1      -7.777  -1.541 123.258  0.00  0.00    +0.053 A 
ATOM      3  C   LIG A   1      -8.651  -0.657 123.913  0.00  0.00    +0.162 A 
ATOM      4  C   LIG A   1      -8.215   0.024 125.060  0.00  0.00    +0.162 A 
ATOM      5  C   LIG A   1      -6.907  -0.179 125.519  0.00  0.00    +0.050 A 
ATOM      6  C   LIG A   1      -6.037  -1.043 124.845  0.00  0.00    +0.008 A 
ENDROOT
BRANCH   3   7
ATOM      7  O   LIG A   1      -9.889  -0.577 123.325  0.00  0.00    -0.491 OA
ATOM      8  C   LIG A   1     -10.114   0.529 122.457  0.00  0.00    +0.277 C 
ENDBRANCH   3   7
BRANCH   4   9
ATOM      9  O   LIG A   1      -9.108   0.785 125.767  0.00  0.00    -0.491 OA
ATOM     10  C   LIG A   1      -8.652   1.235 127.039  0.00  0.00    +0.277 C 
ENDBRANCH   4   9
BRANCH   1  11
ATOM     11  C   LIG A   1      -5.527  -2.678 122.982  0.00  0.00    +0.061 C 
BRANCH  11  13
ATOM     12  C   LIG A   1      -4.161  -4.743 123.470  0.00  0.00    +0.004 C 
ATOM     13  C   LIG A   1      -4.882  -3.696 123.887  0.00  0.00    -0.030 C 
ENDBRANCH  11  13
ENDBRANCH   1  11
TORSDOF 4
ENDMDL
MODEL 8
REMARK VINA RESULT:      -5.0      9.045     12.219
REMARK  Name = NuBBE_734
REMARK  6 active torsions:
REMARK  status: ('A' for Active; 'I' for Inactive)
REMARK    1  A    between atoms: C_2  and  C_3
REMARK    2  A    between atoms: C_3  and  C_4
REMARK    3  A    between atoms: C_6  and  O_7
REMARK    4  A    between atoms: O_7  and  C_8
REMARK    5  A    between atoms: C_9  and  O_10
REMARK    6  A    between atoms: O_10  and  C_11
REMARK                            x       y       z     vdW  Elec       q    Type
REMARK                         _______ _______ _______ _____ _____    ______ ____
ROOT
ATOM      1  C   LIG A   1      -8.073  -2.953 128.524  0.00  0.00    -0.040 A 
ATOM      2  C   LIG A   1      -7.762  -1.704 127.965  0.00  0.00    +0.053 A 
ATOM      3  C   LIG A   1      -8.237  -1.331 126.695  0.00  0.00    +0.162 A 
ATOM      4  C   LIG A   1      -9.015  -2.234 125.955  0.00  0.00    +0.162 A 
ATOM      5  C   LIG A   1      -9.321  -3.485 126.507  0.00  0.00    +0.050 A 
ATOM      6  C   LIG A   1      -8.864  -3.837 127.781  0.00  0.00    +0.008 A 
ENDROOT
BRANCH   3   7
ATOM      7  O   LIG A   1      -7.847  -0.071 126.315  0.00  0.00    -0.491 OA
ATOM      8  C   LIG A   1      -8.716   1.001 126.667  0.00  0.00    +0.277 C 
ENDBRANCH   3   7
BRANCH   4   9
ATOM      9  O   LIG A   1      -9.368  -1.916 124.669  0.00  0.00    -0.491 OA
ATOM     10  C   LIG A   1      -9.185  -2.957 123.714  0.00  0.00    +0.277 C 
ENDBRANCH   4   9
BRANCH   1  11
ATOM     11  C   LIG A   1      -7.574  -3.333 129.899  0.00  0.00    +0.061 C 
BRANCH  11  13
ATOM     12  C   LIG A   1      -5.621  -4.715 130.700  0.00  0.00    +0.004 C 
ATOM     13  C   LIG A   1      -6.130  -3.761 129.913  0.00  0.00    -0.030 C 
ENDBRANCH  11  13
ENDBRANCH   1  11
TORSDOF 4
ENDMDL
MODEL 9
REMARK VINA RESULT:      -5.0      2.375      3.563
REMARK  Name = NuBBE_734
REMARK  6 active torsions:
REMARK  status: ('A' for Active; 'I' for Inactive)
REMARK    1  A    between atoms: C_2  and  C_3
REMARK    2  A    between atoms: C_3  and  C_4
REMARK    3  A    between atoms: C_6  and  O_7
REMARK    4  A    between atoms: O_7  and  C_8
REMARK    5  A    between atoms: C_9  and  O_10
REMARK    6  A    between atoms: O_10  and  C_11
REMARK                            x       y       z     vdW  Elec       q    Type
REMARK                         _______ _______ _______ _____ _____    ______ ____
ROOT
ATOM      1  C   LIG A   1     -11.593   7.700 129.890  0.00  0.00    -0.040 A 
ATOM      2  C   LIG A   1     -10.236   7.415 129.680  0.00  0.00    +0.053 A 
ATOM      3  C   LIG A   1      -9.494   6.658 130.603  0.00  0.00    +0.162 A 
ATOM      4  C   LIG A   1     -10.113   6.199 131.776  0.00  0.00    +0.162 A 
ATOM      5  C   LIG A   1     -11.466   6.489 131.993  0.00  0.00    +0.050 A 
ATOM      6  C   LIG A   1     -12.201   7.222 131.056  0.00  0.00    +0.008 A 
ENDROOT
BRANCH   3   7
ATOM      7  O   LIG A   1      -8.187   6.466 130.229  0.00  0.00    -0.491 OA
ATOM      8  C   LIG A   1      -7.191   7.030 131.074  0.00  0.00    +0.277 C 
ENDBRANCH   3   7
BRANCH   4   9
ATOM      9  O   LIG A   1      -9.356   5.572 132.731  0.00  0.00    -0.491 OA
ATOM     10  C   LIG A   1      -9.237   4.160 132.583  0.00  0.00    +0.277 C 
ENDBRANCH   4   9
BRANCH   1  11
ATOM     11  C   LIG A   1     -12.384   8.498 128.878  0.00  0.00    +0.061 C 
BRANCH  11  13
ATOM     12  C   LIG A   1     -12.873   7.108 126.829  0.00  0.00    +0.004 C 
ATOM     13  C   LIG A   1     -13.255   7.643 127.994  0.00  0.00    -0.030 C 
ENDBRANCH  11  13
ENDBRANCH   1  11
TORSDOF 4
ENDMDL
