MODEL 1
REMARK VINA RESULT:      -8.3      0.000      0.000
REMARK  Name = NuBBE_2161
REMARK  12 active torsions:
REMARK  status: ('A' for Active; 'I' for Inactive)
REMARK    1  A    between atoms: C_1  and  C_2
REMARK    2  A    between atoms: C_2  and  C_3
REMARK    3  A    between atoms: C_3  and  C_5
REMARK    4  A    between atoms: C_3  and  C_6
REMARK    5  A    between atoms: C_6  and  C_7
REMARK    6  A    between atoms: C_6  and  C_8
REMARK    7  A    between atoms: C_9  and  C_12
REMARK    8  A    between atoms: C_12  and  C_14
REMARK    9  A    between atoms: C_12  and  C_15
REMARK   10  A    between atoms: C_27  and  O_29
REMARK   11  A    between atoms: C_32  and  C_33
REMARK   12  A    between atoms: C_38  and  C_39
REMARK                            x       y       z     vdW  Elec       q    Type
REMARK                         _______ _______ _______ _____ _____    ______ ____
ROOT
ATOM      1  C   LIG A   1      -7.378   0.713 124.472  0.00  0.00    -0.002 C 
ATOM      2  C   LIG A   1      -6.175  -0.226 124.315  0.00  0.00    +0.004 C 
ATOM      3  C   LIG A   1      -5.646  -0.468 125.727  0.00  0.00    +0.004 C 
ATOM      4  C   LIG A   1      -6.715   0.051 126.718  0.00  0.00    -0.001 C 
ATOM      5  C   LIG A   1      -6.816  -0.780 127.990  0.00  0.00    +0.000 C 
ATOM      6  C   LIG A   1      -7.587  -0.029 129.097  0.00  0.00    +0.031 C 
ATOM      7  C   LIG A   1      -7.835  -0.873 130.305  0.00  0.00    -0.027 C 
ATOM      8  C   LIG A   1      -7.687  -2.201 130.315  0.00  0.00    -0.065 C 
ATOM      9  C   LIG A   1      -7.613  -2.943 131.631  0.00  0.00    +0.062 C 
ATOM     10  C   LIG A   1      -6.167  -3.427 131.850  0.00  0.00    +0.119 C 
ATOM     11  C   LIG A   1      -5.624  -4.207 130.647  0.00  0.00    +0.032 C 
ATOM     12  C   LIG A   1      -5.860  -3.494 129.301  0.00  0.00    +0.013 C 
ATOM     13  C   LIG A   1      -7.335  -3.019 129.066  0.00  0.00    -0.008 C 
ATOM     14  C   LIG A   1      -8.240  -4.259 128.916  0.00  0.00    +0.016 C 
ATOM     15  C   LIG A   1      -7.412  -2.164 127.735  0.00  0.00    +0.003 C 
ATOM     16  C   LIG A   1      -8.798  -1.973 127.064  0.00  0.00    +0.005 C 
ATOM     17  C   LIG A   1      -8.725  -1.138 125.756  0.00  0.00    +0.007 C 
ATOM     18  C   LIG A   1      -7.983   0.243 125.860  0.00  0.00    -0.026 C 
ATOM     19  C   LIG A   1      -8.984   1.290 126.372  0.00  0.00    +0.012 C 
ENDROOT
BRANCH   1  20
ATOM     20  C   LIG A   1      -6.981   2.251 124.240  0.00  0.00    -0.007 C 
ATOM     21  C   LIG A   1      -7.082   2.549 122.733  0.00  0.00    +0.008 C 
BRANCH  20  24
ATOM     22  C   LIG A   1      -6.423   3.635 127.148  0.00  0.00    +0.012 C 
ATOM     23  C   LIG A   1      -5.298   3.319 126.201  0.00  0.00    -0.026 C 
ATOM     24  C   LIG A   1      -5.647   2.653 124.856  0.00  0.00    -0.001 C 
ATOM     25  C   LIG A   1      -5.161   4.073 124.888  0.00  0.00    +0.011 C 
BRANCH  23  26
ATOM     26  C   LIG A   1      -3.972   2.834 126.863  0.00  0.00    -0.005 C 
ATOM     27  C   LIG A   1      -4.210   2.535 128.353  0.00  0.00    +0.008 C 
BRANCH  26  28
ATOM     28  C   LIG A   1      -2.753   3.784 126.650  0.00  0.00    -0.014 C 
ATOM     29  C   LIG A   1      -2.616   4.799 127.798  0.00  0.00    +0.007 C 
ATOM     30  C   LIG A   1      -1.426   3.027 126.525  0.00  0.00    +0.007 C 
ENDBRANCH  26  28
ENDBRANCH  23  26
ENDBRANCH  20  24
ENDBRANCH   1  20
BRANCH  10  31
ATOM     31  O   LIG A   1      -5.281  -2.332 132.112  0.00  0.00    -0.392 OA
ATOM     32  H   LIG A   1      -5.160  -1.829 131.290  0.00  0.00    +0.210 HD
ENDBRANCH  10  31
TORSDOF 5
ENDMDL
MODEL 2
REMARK VINA RESULT:      -8.0      2.789      6.118
REMARK  Name = NuBBE_2161
REMARK  12 active torsions:
REMARK  status: ('A' for Active; 'I' for Inactive)
REMARK    1  A    between atoms: C_1  and  C_2
REMARK    2  A    between atoms: C_2  and  C_3
REMARK    3  A    between atoms: C_3  and  C_5
REMARK    4  A    between atoms: C_3  and  C_6
REMARK    5  A    between atoms: C_6  and  C_7
REMARK    6  A    between atoms: C_6  and  C_8
REMARK    7  A    between atoms: C_9  and  C_12
REMARK    8  A    between atoms: C_12  and  C_14
REMARK    9  A    between atoms: C_12  and  C_15
REMARK   10  A    between atoms: C_27  and  O_29
REMARK   11  A    between atoms: C_32  and  C_33
REMARK   12  A    between atoms: C_38  and  C_39
REMARK                            x       y       z     vdW  Elec       q    Type
REMARK                         _______ _______ _______ _____ _____    ______ ____
ROOT
ATOM      1  C   LIG A   1      -7.272  -1.766 131.478  0.00  0.00    -0.002 C 
ATOM      2  C   LIG A   1      -8.273  -0.660 131.120  0.00  0.00    +0.004 C 
ATOM      3  C   LIG A   1      -7.893  -0.192 129.716  0.00  0.00    +0.004 C 
ATOM      4  C   LIG A   1      -6.903  -1.228 129.134  0.00  0.00    -0.001 C 
ATOM      5  C   LIG A   1      -7.062  -1.442 127.635  0.00  0.00    +0.000 C 
ATOM      6  C   LIG A   1      -5.835  -2.162 127.033  0.00  0.00    +0.031 C 
ATOM      7  C   LIG A   1      -6.024  -2.523 125.595  0.00  0.00    -0.027 C 
ATOM      8  C   LIG A   1      -7.212  -2.509 124.983  0.00  0.00    -0.065 C 
ATOM      9  C   LIG A   1      -7.286  -2.541 123.473  0.00  0.00    +0.062 C 
ATOM     10  C   LIG A   1      -7.731  -1.157 122.965  0.00  0.00    +0.119 C 
ATOM     11  C   LIG A   1      -9.009  -0.664 123.656  0.00  0.00    +0.032 C 
ATOM     12  C   LIG A   1      -8.961  -0.794 125.191  0.00  0.00    +0.013 C 
ATOM     13  C   LIG A   1      -8.529  -2.209 125.711  0.00  0.00    -0.008 C 
ATOM     14  C   LIG A   1      -9.629  -3.228 125.352  0.00  0.00    +0.016 C 
ATOM     15  C   LIG A   1      -8.362  -2.167 127.285  0.00  0.00    +0.003 C 
ATOM     16  C   LIG A   1      -8.384  -3.510 128.062  0.00  0.00    +0.005 C 
ATOM     17  C   LIG A   1      -8.236  -3.322 129.598  0.00  0.00    +0.007 C 
ATOM     18  C   LIG A   1      -7.018  -2.449 130.070  0.00  0.00    -0.026 C 
ATOM     19  C   LIG A   1      -5.778  -3.353 130.146  0.00  0.00    +0.012 C 
ENDROOT
BRANCH   1  20
ATOM     20  C   LIG A   1      -6.040  -1.212 132.344  0.00  0.00    -0.007 C 
ATOM     21  C   LIG A   1      -6.364  -1.429 133.833  0.00  0.00    +0.008 C 
BRANCH  20  24
ATOM     22  C   LIG A   1      -3.762  -0.198 130.229  0.00  0.00    +0.012 C 
ATOM     23  C   LIG A   1      -4.566   0.777 131.045  0.00  0.00    -0.026 C 
ATOM     24  C   LIG A   1      -5.629   0.216 132.008  0.00  0.00    -0.001 C 
ATOM     25  C   LIG A   1      -4.385   0.854 132.553  0.00  0.00    +0.011 C 
BRANCH  23  26
ATOM     26  C   LIG A   1      -4.951   2.106 130.324  0.00  0.00    -0.005 C 
ATOM     27  C   LIG A   1      -4.887   1.912 128.800  0.00  0.00    +0.008 C 
BRANCH  26  28
ATOM     28  C   LIG A   1      -4.137   3.355 130.785  0.00  0.00    -0.014 C 
ATOM     29  C   LIG A   1      -3.406   4.023 129.608  0.00  0.00    +0.007 C 
ATOM     30  C   LIG A   1      -5.013   4.415 131.463  0.00  0.00    +0.007 C 
ENDBRANCH  26  28
ENDBRANCH  23  26
ENDBRANCH  20  24
ENDBRANCH   1  20
BRANCH  10  31
ATOM     31  O   LIG A   1      -6.708  -0.172 123.160  0.00  0.00    -0.392 OA
ATOM     32  H   LIG A   1      -6.610   0.338 122.339  0.00  0.00    +0.210 HD
ENDBRANCH  10  31
TORSDOF 5
ENDMDL
MODEL 3
REMARK VINA RESULT:      -8.0      7.167     12.155
REMARK  Name = NuBBE_2161
REMARK  12 active torsions:
REMARK  status: ('A' for Active; 'I' for Inactive)
REMARK    1  A    between atoms: C_1  and  C_2
REMARK    2  A    between atoms: C_2  and  C_3
REMARK    3  A    between atoms: C_3  and  C_5
REMARK    4  A    between atoms: C_3  and  C_6
REMARK    5  A    between atoms: C_6  and  C_7
REMARK    6  A    between atoms: C_6  and  C_8
REMARK    7  A    between atoms: C_9  and  C_12
REMARK    8  A    between atoms: C_12  and  C_14
REMARK    9  A    between atoms: C_12  and  C_15
REMARK   10  A    between atoms: C_27  and  O_29
REMARK   11  A    between atoms: C_32  and  C_33
REMARK   12  A    between atoms: C_38  and  C_39
REMARK                            x       y       z     vdW  Elec       q    Type
REMARK                         _______ _______ _______ _____ _____    ______ ____
ROOT
ATOM      1  C   LIG A   1      -2.343   5.121 133.463  0.00  0.00    -0.002 C 
ATOM      2  C   LIG A   1      -1.089   5.125 132.579  0.00  0.00    +0.004 C 
ATOM      3  C   LIG A   1      -0.974   6.544 132.025  0.00  0.00    +0.004 C 
ATOM      4  C   LIG A   1      -1.948   7.436 132.829  0.00  0.00    -0.001 C 
ATOM      5  C   LIG A   1      -1.431   8.851 133.051  0.00  0.00    +0.000 C 
ATOM      6  C   LIG A   1      -2.561   9.804 133.498  0.00  0.00    +0.031 C 
ATOM      7  C   LIG A   1      -2.060  11.162 133.869  0.00  0.00    -0.027 C 
ATOM      8  C   LIG A   1      -0.771  11.435 134.089  0.00  0.00    -0.065 C 
ATOM      9  C   LIG A   1      -0.296  12.870 134.115  0.00  0.00    +0.062 C 
ATOM     10  C   LIG A   1       0.528  13.147 132.844  0.00  0.00    +0.119 C 
ATOM     11  C   LIG A   1       1.639  12.111 132.632  0.00  0.00    +0.032 C 
ATOM     12  C   LIG A   1       1.150  10.656 132.770  0.00  0.00    +0.013 C 
ATOM     13  C   LIG A   1       0.330  10.367 134.074  0.00  0.00    -0.008 C 
ATOM     14  C   LIG A   1       1.268  10.490 135.291  0.00  0.00    +0.016 C 
ATOM     15  C   LIG A   1      -0.249   8.893 134.021  0.00  0.00    +0.003 C 
ATOM     16  C   LIG A   1      -0.698   8.232 135.350  0.00  0.00    +0.005 C 
ATOM     17  C   LIG A   1      -1.220   6.781 135.157  0.00  0.00    +0.007 C 
ATOM     18  C   LIG A   1      -2.329   6.589 134.061  0.00  0.00    -0.026 C 
ATOM     19  C   LIG A   1      -3.693   6.905 134.694  0.00  0.00    +0.012 C 
ENDROOT
BRANCH   1  20
ATOM     20  C   LIG A   1      -3.634   4.575 132.682  0.00  0.00    -0.007 C 
ATOM     21  C   LIG A   1      -4.246   3.429 133.508  0.00  0.00    +0.008 C 
BRANCH  20  24
ATOM     22  C   LIG A   1      -4.397   6.278 129.998  0.00  0.00    +0.012 C 
ATOM     23  C   LIG A   1      -3.714   4.941 129.911  0.00  0.00    -0.026 C 
ATOM     24  C   LIG A   1      -3.378   4.211 131.225  0.00  0.00    -0.001 C 
ATOM     25  C   LIG A   1      -4.447   3.673 130.321  0.00  0.00    +0.011 C 
BRANCH  23  26
ATOM     26  C   LIG A   1      -2.657   4.794 128.774  0.00  0.00    -0.005 C 
ATOM     27  C   LIG A   1      -2.328   6.175 128.183  0.00  0.00    +0.008 C 
BRANCH  26  28
ATOM     28  C   LIG A   1      -3.035   3.764 127.665  0.00  0.00    -0.014 C 
ATOM     29  C   LIG A   1      -4.032   4.356 126.654  0.00  0.00    +0.007 C 
ATOM     30  C   LIG A   1      -1.814   3.258 126.885  0.00  0.00    +0.007 C 
ENDBRANCH  26  28
ENDBRANCH  23  26
ENDBRANCH  20  24
ENDBRANCH   1  20
BRANCH  10  31
ATOM     31  O   LIG A   1      -0.300  13.162 131.675  0.00  0.00    -0.392 OA
ATOM     32  H   LIG A   1      -1.216  12.976 131.942  0.00  0.00    +0.210 HD
ENDBRANCH  10  31
TORSDOF 5
ENDMDL
MODEL 4
REMARK VINA RESULT:      -7.9      2.698      6.947
REMARK  Name = NuBBE_2161
REMARK  12 active torsions:
REMARK  status: ('A' for Active; 'I' for Inactive)
REMARK    1  A    between atoms: C_1  and  C_2
REMARK    2  A    between atoms: C_2  and  C_3
REMARK    3  A    between atoms: C_3  and  C_5
REMARK    4  A    between atoms: C_3  and  C_6
REMARK    5  A    between atoms: C_6  and  C_7
REMARK    6  A    between atoms: C_6  and  C_8
REMARK    7  A    between atoms: C_9  and  C_12
REMARK    8  A    between atoms: C_12  and  C_14
REMARK    9  A    between atoms: C_12  and  C_15
REMARK   10  A    between atoms: C_27  and  O_29
REMARK   11  A    between atoms: C_32  and  C_33
REMARK   12  A    between atoms: C_38  and  C_39
REMARK                            x       y       z     vdW  Elec       q    Type
REMARK                         _______ _______ _______ _____ _____    ______ ____
ROOT
ATOM      1  C   LIG A   1      -6.744  -1.639 129.385  0.00  0.00    -0.002 C 
ATOM      2  C   LIG A   1      -5.416  -1.688 128.619  0.00  0.00    +0.004 C 
ATOM      3  C   LIG A   1      -5.238  -0.301 128.003  0.00  0.00    +0.004 C 
ATOM      4  C   LIG A   1      -6.273   0.637 128.667  0.00  0.00    -0.001 C 
ATOM      5  C   LIG A   1      -5.765   2.060 128.859  0.00  0.00    +0.000 C 
ATOM      6  C   LIG A   1      -6.923   3.040 129.151  0.00  0.00    +0.031 C 
ATOM      7  C   LIG A   1      -6.445   4.414 129.493  0.00  0.00    -0.027 C 
ATOM      8  C   LIG A   1      -5.179   4.693 129.814  0.00  0.00    -0.065 C 
ATOM      9  C   LIG A   1      -4.695   6.126 129.807  0.00  0.00    +0.062 C 
ATOM     10  C   LIG A   1      -3.757   6.330 128.602  0.00  0.00    +0.119 C 
ATOM     11  C   LIG A   1      -2.641   5.280 128.546  0.00  0.00    +0.032 C 
ATOM     12  C   LIG A   1      -3.153   3.837 128.717  0.00  0.00    +0.013 C 
ATOM     13  C   LIG A   1      -4.090   3.621 129.955  0.00  0.00    -0.008 C 
ATOM     14  C   LIG A   1      -3.264   3.806 131.244  0.00  0.00    +0.016 C 
ATOM     15  C   LIG A   1      -4.676   2.149 129.928  0.00  0.00    +0.003 C 
ATOM     16  C   LIG A   1      -5.248   1.562 131.245  0.00  0.00    +0.005 C 
ATOM     17  C   LIG A   1      -5.763   0.105 131.083  0.00  0.00    +0.007 C 
ATOM     18  C   LIG A   1      -6.771  -0.141 129.903  0.00  0.00    -0.026 C 
ATOM     19  C   LIG A   1      -8.183   0.214 130.392  0.00  0.00    +0.012 C 
ENDROOT
BRANCH   1  20
ATOM     20  C   LIG A   1      -7.964  -2.221 128.520  0.00  0.00    -0.007 C 
ATOM     21  C   LIG A   1      -8.426  -3.539 129.168  0.00  0.00    +0.008 C 
BRANCH  20  24
ATOM     22  C   LIG A   1      -8.896  -0.224 126.106  0.00  0.00    +0.012 C 
ATOM     23  C   LIG A   1      -8.084  -1.461 125.833  0.00  0.00    -0.026 C 
ATOM     24  C   LIG A   1      -7.675  -2.340 127.030  0.00  0.00    -0.001 C 
ATOM     25  C   LIG A   1      -8.688  -2.840 126.042  0.00  0.00    +0.011 C 
BRANCH  23  26
ATOM     26  C   LIG A   1      -7.019  -1.334 124.700  0.00  0.00    -0.005 C 
ATOM     27  C   LIG A   1      -6.764   0.149 124.384  0.00  0.00    +0.008 C 
BRANCH  26  28
ATOM     28  C   LIG A   1      -7.340  -2.155 123.412  0.00  0.00    -0.014 C 
ATOM     29  C   LIG A   1      -8.632  -1.667 122.734  0.00  0.00    +0.007 C 
ATOM     30  C   LIG A   1      -6.210  -2.097 122.376  0.00  0.00    +0.007 C 
ENDBRANCH  26  28
ENDBRANCH  23  26
ENDBRANCH  20  24
ENDBRANCH   1  20
BRANCH  10  31
ATOM     31  O   LIG A   1      -4.477   6.286 127.364  0.00  0.00    -0.392 OA
ATOM     32  H   LIG A   1      -4.630   5.356 127.128  0.00  0.00    +0.210 HD
ENDBRANCH  10  31
TORSDOF 5
ENDMDL
MODEL 5
REMARK VINA RESULT:      -7.9      3.319      6.675
REMARK  Name = NuBBE_2161
REMARK  12 active torsions:
REMARK  status: ('A' for Active; 'I' for Inactive)
REMARK    1  A    between atoms: C_1  and  C_2
REMARK    2  A    between atoms: C_2  and  C_3
REMARK    3  A    between atoms: C_3  and  C_5
REMARK    4  A    between atoms: C_3  and  C_6
REMARK    5  A    between atoms: C_6  and  C_7
REMARK    6  A    between atoms: C_6  and  C_8
REMARK    7  A    between atoms: C_9  and  C_12
REMARK    8  A    between atoms: C_12  and  C_14
REMARK    9  A    between atoms: C_12  and  C_15
REMARK   10  A    between atoms: C_27  and  O_29
REMARK   11  A    between atoms: C_32  and  C_33
REMARK   12  A    between atoms: C_38  and  C_39
REMARK                            x       y       z     vdW  Elec       q    Type
REMARK                         _______ _______ _______ _____ _____    ______ ____
ROOT
ATOM      1  C   LIG A   1      -6.524  -1.934 130.837  0.00  0.00    -0.002 C 
ATOM      2  C   LIG A   1      -7.473  -3.107 130.560  0.00  0.00    +0.004 C 
ATOM      3  C   LIG A   1      -8.294  -2.701 129.338  0.00  0.00    +0.004 C 
ATOM      4  C   LIG A   1      -7.612  -1.461 128.713  0.00  0.00    -0.001 C 
ATOM      5  C   LIG A   1      -7.698  -1.423 127.193  0.00  0.00    +0.000 C 
ATOM      6  C   LIG A   1      -7.368  -0.019 126.642  0.00  0.00    +0.031 C 
ATOM      7  C   LIG A   1      -7.296   0.015 125.149  0.00  0.00    -0.027 C 
ATOM      8  C   LIG A   1      -7.218  -1.083 124.393  0.00  0.00    -0.065 C 
ATOM      9  C   LIG A   1      -7.497  -1.000 122.909  0.00  0.00    +0.062 C 
ATOM     10  C   LIG A   1      -8.849  -1.678 122.617  0.00  0.00    +0.119 C 
ATOM     11  C   LIG A   1      -8.933  -3.092 123.203  0.00  0.00    +0.032 C 
ATOM     12  C   LIG A   1      -8.488  -3.168 124.677  0.00  0.00    +0.013 C 
ATOM     13  C   LIG A   1      -7.102  -2.499 124.973  0.00  0.00    -0.008 C 
ATOM     14  C   LIG A   1      -5.995  -3.317 124.277  0.00  0.00    +0.016 C 
ATOM     15  C   LIG A   1      -6.835  -2.499 126.534  0.00  0.00    +0.003 C 
ATOM     16  C   LIG A   1      -5.377  -2.312 127.030  0.00  0.00    +0.005 C 
ATOM     17  C   LIG A   1      -5.255  -2.358 128.579  0.00  0.00    +0.007 C 
ATOM     18  C   LIG A   1      -6.219  -1.405 129.374  0.00  0.00    -0.026 C 
ATOM     19  C   LIG A   1      -5.569  -0.015 129.449  0.00  0.00    +0.012 C 
ENDROOT
BRANCH   1  20
ATOM     20  C   LIG A   1      -7.100  -0.939 131.956  0.00  0.00    -0.007 C 
ATOM     21  C   LIG A   1      -7.782  -1.785 133.046  0.00  0.00    +0.008 C 
BRANCH  20  24
ATOM     22  C   LIG A   1      -7.560   2.063 133.166  0.00  0.00    +0.012 C 
ATOM     23  C   LIG A   1      -8.263   1.603 131.918  0.00  0.00    -0.026 C 
ATOM     24  C   LIG A   1      -7.979   0.178 131.408  0.00  0.00    -0.001 C 
ATOM     25  C   LIG A   1      -9.322   0.514 131.987  0.00  0.00    +0.011 C 
BRANCH  23  26
ATOM     26  C   LIG A   1      -8.452   2.686 130.812  0.00  0.00    -0.005 C 
ATOM     27  C   LIG A   1      -7.089   3.284 130.426  0.00  0.00    +0.008 C 
BRANCH  26  28
ATOM     28  C   LIG A   1      -9.495   3.794 131.157  0.00  0.00    -0.014 C 
ATOM     29  C   LIG A   1      -8.982   5.195 130.779  0.00  0.00    +0.007 C 
ATOM     30  C   LIG A   1     -10.843   3.578 130.459  0.00  0.00    +0.007 C 
ENDBRANCH  26  28
ENDBRANCH  23  26
ENDBRANCH  20  24
ENDBRANCH   1  20
BRANCH  10  31
ATOM     31  O   LIG A   1      -9.943  -0.911 123.136  0.00  0.00    -0.392 OA
ATOM     32  H   LIG A   1      -9.587  -0.229 123.730  0.00  0.00    +0.210 HD
ENDBRANCH  10  31
TORSDOF 5
ENDMDL
MODEL 6
REMARK VINA RESULT:      -7.8      3.324      6.323
REMARK  Name = NuBBE_2161
REMARK  12 active torsions:
REMARK  status: ('A' for Active; 'I' for Inactive)
REMARK    1  A    between atoms: C_1  and  C_2
REMARK    2  A    between atoms: C_2  and  C_3
REMARK    3  A    between atoms: C_3  and  C_5
REMARK    4  A    between atoms: C_3  and  C_6
REMARK    5  A    between atoms: C_6  and  C_7
REMARK    6  A    between atoms: C_6  and  C_8
REMARK    7  A    between atoms: C_9  and  C_12
REMARK    8  A    between atoms: C_12  and  C_14
REMARK    9  A    between atoms: C_12  and  C_15
REMARK   10  A    between atoms: C_27  and  O_29
REMARK   11  A    between atoms: C_32  and  C_33
REMARK   12  A    between atoms: C_38  and  C_39
REMARK                            x       y       z     vdW  Elec       q    Type
REMARK                         _______ _______ _______ _____ _____    ______ ____
ROOT
ATOM      1  C   LIG A   1      -7.355  -0.346 131.691  0.00  0.00    -0.002 C 
ATOM      2  C   LIG A   1      -8.570   0.378 131.098  0.00  0.00    +0.004 C 
ATOM      3  C   LIG A   1      -8.230   0.633 129.631  0.00  0.00    +0.004 C 
ATOM      4  C   LIG A   1      -6.983  -0.217 129.290  0.00  0.00    -0.001 C 
ATOM      5  C   LIG A   1      -6.992  -0.763 127.868  0.00  0.00    +0.000 C 
ATOM      6  C   LIG A   1      -5.593  -1.259 127.443  0.00  0.00    +0.031 C 
ATOM      7  C   LIG A   1      -5.599  -1.937 126.112  0.00  0.00    -0.027 C 
ATOM      8  C   LIG A   1      -6.715  -2.345 125.500  0.00  0.00    -0.065 C 
ATOM      9  C   LIG A   1      -6.685  -2.699 124.030  0.00  0.00    +0.062 C 
ATOM     10  C   LIG A   1      -7.421  -1.602 123.237  0.00  0.00    +0.119 C 
ATOM     11  C   LIG A   1      -8.820  -1.317 123.796  0.00  0.00    +0.032 C 
ATOM     12  C   LIG A   1      -8.837  -1.118 125.325  0.00  0.00    +0.013 C 
ATOM     13  C   LIG A   1      -8.108  -2.244 126.135  0.00  0.00    -0.008 C 
ATOM     14  C   LIG A   1      -8.903  -3.557 125.989  0.00  0.00    +0.016 C 
ATOM     15  C   LIG A   1      -8.053  -1.845 127.667  0.00  0.00    +0.003 C 
ATOM     16  C   LIG A   1      -7.797  -2.966 128.709  0.00  0.00    +0.005 C 
ATOM     17  C   LIG A   1      -7.794  -2.441 130.172  0.00  0.00    +0.007 C 
ATOM     18  C   LIG A   1      -6.857  -1.214 130.461  0.00  0.00    -0.026 C 
ATOM     19  C   LIG A   1      -5.442  -1.743 130.738  0.00  0.00    +0.012 C 
ENDROOT
BRANCH   1  20
ATOM     20  C   LIG A   1      -6.350   0.662 132.433  0.00  0.00    -0.007 C 
ATOM     21  C   LIG A   1      -6.054   0.098 133.834  0.00  0.00    +0.008 C 
BRANCH  20  24
ATOM     22  C   LIG A   1      -5.499   3.074 130.398  0.00  0.00    +0.012 C 
ATOM     23  C   LIG A   1      -6.453   3.308 131.538  0.00  0.00    -0.026 C 
ATOM     24  C   LIG A   1      -6.812   2.113 132.441  0.00  0.00    -0.001 C 
ATOM     25  C   LIG A   1      -5.968   3.232 132.977  0.00  0.00    +0.011 C 
BRANCH  23  26
ATOM     26  C   LIG A   1      -7.618   4.305 131.251  0.00  0.00    -0.005 C 
ATOM     27  C   LIG A   1      -7.724   4.565 129.739  0.00  0.00    +0.008 C 
BRANCH  26  28
ATOM     28  C   LIG A   1      -7.552   5.634 132.065  0.00  0.00    -0.014 C 
ATOM     29  C   LIG A   1      -7.313   6.849 131.151  0.00  0.00    +0.007 C 
ATOM     30  C   LIG A   1      -8.826   5.895 132.877  0.00  0.00    +0.007 C 
ENDBRANCH  26  28
ENDBRANCH  23  26
ENDBRANCH  20  24
ENDBRANCH   1  20
BRANCH  10  31
ATOM     31  O   LIG A   1      -6.681  -0.375 123.230  0.00  0.00    -0.392 OA
ATOM     32  H   LIG A   1      -6.982   0.171 123.976  0.00  0.00    +0.210 HD
ENDBRANCH  10  31
TORSDOF 5
ENDMDL
MODEL 7
REMARK VINA RESULT:      -7.7      4.260      6.831
REMARK  Name = NuBBE_2161
REMARK  12 active torsions:
REMARK  status: ('A' for Active; 'I' for Inactive)
REMARK    1  A    between atoms: C_1  and  C_2
REMARK    2  A    between atoms: C_2  and  C_3
REMARK    3  A    between atoms: C_3  and  C_5
REMARK    4  A    between atoms: C_3  and  C_6
REMARK    5  A    between atoms: C_6  and  C_7
REMARK    6  A    between atoms: C_6  and  C_8
REMARK    7  A    between atoms: C_9  and  C_12
REMARK    8  A    between atoms: C_12  and  C_14
REMARK    9  A    between atoms: C_12  and  C_15
REMARK   10  A    between atoms: C_27  and  O_29
REMARK   11  A    between atoms: C_32  and  C_33
REMARK   12  A    between atoms: C_38  and  C_39
REMARK                            x       y       z     vdW  Elec       q    Type
REMARK                         _______ _______ _______ _____ _____    ______ ____
ROOT
ATOM      1  C   LIG A   1      -8.601   2.407 133.001  0.00  0.00    -0.002 C 
ATOM      2  C   LIG A   1      -9.844   2.081 132.163  0.00  0.00    +0.004 C 
ATOM      3  C   LIG A   1      -9.335   1.809 130.749  0.00  0.00    +0.004 C 
ATOM      4  C   LIG A   1      -7.798   1.654 130.831  0.00  0.00    -0.001 C 
ATOM      5  C   LIG A   1      -7.239   0.628 129.855  0.00  0.00    +0.000 C 
ATOM      6  C   LIG A   1      -5.711   0.778 129.688  0.00  0.00    +0.031 C 
ATOM      7  C   LIG A   1      -5.111  -0.308 128.855  0.00  0.00    -0.027 C 
ATOM      8  C   LIG A   1      -5.752  -1.439 128.549  0.00  0.00    -0.065 C 
ATOM      9  C   LIG A   1      -5.235  -2.323 127.436  0.00  0.00    +0.062 C 
ATOM     10  C   LIG A   1      -6.187  -2.216 126.230  0.00  0.00    +0.119 C 
ATOM     11  C   LIG A   1      -7.650  -2.466 126.616  0.00  0.00    +0.032 C 
ATOM     12  C   LIG A   1      -8.098  -1.665 127.855  0.00  0.00    +0.013 C 
ATOM     13  C   LIG A   1      -7.143  -1.791 129.091  0.00  0.00    -0.008 C 
ATOM     14  C   LIG A   1      -7.204  -3.237 129.623  0.00  0.00    +0.016 C 
ATOM     15  C   LIG A   1      -7.621  -0.803 130.233  0.00  0.00    +0.003 C 
ATOM     16  C   LIG A   1      -7.129  -1.063 131.682  0.00  0.00    +0.005 C 
ATOM     17  C   LIG A   1      -7.693  -0.037 132.704  0.00  0.00    +0.007 C 
ATOM     18  C   LIG A   1      -7.502   1.478 132.336  0.00  0.00    -0.026 C 
ATOM     19  C   LIG A   1      -6.104   1.915 132.798  0.00  0.00    +0.012 C 
ENDROOT
BRANCH   1  20
ATOM     20  C   LIG A   1      -8.356   3.987 133.132  0.00  0.00    -0.007 C 
ATOM     21  C   LIG A   1      -8.289   4.340 134.629  0.00  0.00    +0.008 C 
BRANCH  20  24
ATOM     22  C   LIG A   1      -7.734   6.575 131.234  0.00  0.00    +0.012 C 
ATOM     23  C   LIG A   1      -9.137   6.076 131.446  0.00  0.00    -0.026 C 
ATOM     24  C   LIG A   1      -9.341   4.842 132.345  0.00  0.00    -0.001 C 
ATOM     25  C   LIG A   1      -9.798   6.193 132.810  0.00  0.00    +0.011 C 
BRANCH  23  26
ATOM     26  C   LIG A   1     -10.081   6.166 130.207  0.00  0.00    -0.005 C 
ATOM     27  C   LIG A   1      -9.345   5.671 128.951  0.00  0.00    +0.008 C 
BRANCH  26  28
ATOM     28  C   LIG A   1     -10.730   7.567 129.985  0.00  0.00    -0.014 C 
ATOM     29  C   LIG A   1     -10.479   8.091 128.560  0.00  0.00    +0.007 C 
ATOM     30  C   LIG A   1     -12.244   7.565 130.230  0.00  0.00    +0.007 C 
ENDBRANCH  26  28
ENDBRANCH  23  26
ENDBRANCH  20  24
ENDBRANCH   1  20
BRANCH  10  31
ATOM     31  O   LIG A   1      -6.101  -0.928 125.607  0.00  0.00    -0.392 OA
ATOM     32  H   LIG A   1      -6.954  -0.474 125.718  0.00  0.00    +0.210 HD
ENDBRANCH  10  31
TORSDOF 5
ENDMDL
MODEL 8
REMARK VINA RESULT:      -7.7      3.516      5.112
REMARK  Name = NuBBE_2161
REMARK  12 active torsions:
REMARK  status: ('A' for Active; 'I' for Inactive)
REMARK    1  A    between atoms: C_1  and  C_2
REMARK    2  A    between atoms: C_2  and  C_3
REMARK    3  A    between atoms: C_3  and  C_5
REMARK    4  A    between atoms: C_3  and  C_6
REMARK    5  A    between atoms: C_6  and  C_7
REMARK    6  A    between atoms: C_6  and  C_8
REMARK    7  A    between atoms: C_9  and  C_12
REMARK    8  A    between atoms: C_12  and  C_14
REMARK    9  A    between atoms: C_12  and  C_15
REMARK   10  A    between atoms: C_27  and  O_29
REMARK   11  A    between atoms: C_32  and  C_33
REMARK   12  A    between atoms: C_38  and  C_39
REMARK                            x       y       z     vdW  Elec       q    Type
REMARK                         _______ _______ _______ _____ _____    ______ ____
ROOT
ATOM      1  C   LIG A   1      -8.729   3.653 131.220  0.00  0.00    -0.002 C 
ATOM      2  C   LIG A   1      -8.567   3.450 129.708  0.00  0.00    +0.004 C 
ATOM      3  C   LIG A   1      -7.260   2.679 129.528  0.00  0.00    +0.004 C 
ATOM      4  C   LIG A   1      -6.837   2.153 130.920  0.00  0.00    -0.001 C 
ATOM      5  C   LIG A   1      -6.160   0.790 130.872  0.00  0.00    +0.000 C 
ATOM      6  C   LIG A   1      -5.415   0.481 132.190  0.00  0.00    +0.031 C 
ATOM      7  C   LIG A   1      -4.868  -0.909 132.233  0.00  0.00    -0.027 C 
ATOM      8  C   LIG A   1      -5.236  -1.870 131.381  0.00  0.00    -0.065 C 
ATOM      9  C   LIG A   1      -4.405  -3.128 131.257  0.00  0.00    +0.062 C 
ATOM     10  C   LIG A   1      -3.666  -3.106 129.905  0.00  0.00    +0.119 C 
ATOM     11  C   LIG A   1      -4.612  -2.847 128.726  0.00  0.00    +0.032 C 
ATOM     12  C   LIG A   1      -5.557  -1.651 128.955  0.00  0.00    +0.013 C 
ATOM     13  C   LIG A   1      -6.327  -1.682 130.320  0.00  0.00    -0.008 C 
ATOM     14  C   LIG A   1      -7.323  -2.859 130.304  0.00  0.00    +0.016 C 
ATOM     15  C   LIG A   1      -7.133  -0.331 130.505  0.00  0.00    +0.003 C 
ATOM     16  C   LIG A   1      -8.299  -0.306 131.528  0.00  0.00    +0.005 C 
ATOM     17  C   LIG A   1      -9.018   1.070 131.590  0.00  0.00    +0.007 C 
ATOM     18  C   LIG A   1      -8.093   2.322 131.801  0.00  0.00    -0.026 C 
ATOM     19  C   LIG A   1      -7.836   2.483 133.307  0.00  0.00    +0.012 C 
ENDROOT
BRANCH   1  20
ATOM     20  C   LIG A   1      -8.192   5.086 131.701  0.00  0.00    -0.007 C 
ATOM     21  C   LIG A   1      -9.379   6.067 131.705  0.00  0.00    +0.008 C 
BRANCH  20  24
ATOM     22  C   LIG A   1      -5.041   4.976 132.563  0.00  0.00    +0.012 C 
ATOM     23  C   LIG A   1      -5.478   5.596 131.264  0.00  0.00    -0.026 C 
ATOM     24  C   LIG A   1      -6.981   5.593 130.928  0.00  0.00    -0.001 C 
ATOM     25  C   LIG A   1      -6.288   6.882 131.257  0.00  0.00    +0.011 C 
BRANCH  23  26
ATOM     26  C   LIG A   1      -4.521   5.372 130.052  0.00  0.00    -0.005 C 
ATOM     27  C   LIG A   1      -3.736   4.063 130.239  0.00  0.00    +0.008 C 
BRANCH  26  28
ATOM     28  C   LIG A   1      -3.578   6.574 129.738  0.00  0.00    -0.014 C 
ATOM     29  C   LIG A   1      -2.164   6.350 130.302  0.00  0.00    +0.007 C 
ATOM     30  C   LIG A   1      -3.450   6.851 128.235  0.00  0.00    +0.007 C 
ENDBRANCH  26  28
ENDBRANCH  23  26
ENDBRANCH  20  24
ENDBRANCH   1  20
BRANCH  10  31
ATOM     31  O   LIG A   1      -2.640  -2.107 129.885  0.00  0.00    -0.392 OA
ATOM     32  H   LIG A   1      -1.831  -2.502 129.516  0.00  0.00    +0.210 HD
ENDBRANCH  10  31
TORSDOF 5
ENDMDL
MODEL 9
REMARK VINA RESULT:      -7.6      3.242      6.451
REMARK  Name = NuBBE_2161
REMARK  12 active torsions:
REMARK  status: ('A' for Active; 'I' for Inactive)
REMARK    1  A    between atoms: C_1  and  C_2
REMARK    2  A    between atoms: C_2  and  C_3
REMARK    3  A    between atoms: C_3  and  C_5
REMARK    4  A    between atoms: C_3  and  C_6
REMARK    5  A    between atoms: C_6  and  C_7
REMARK    6  A    between atoms: C_6  and  C_8
REMARK    7  A    between atoms: C_9  and  C_12
REMARK    8  A    between atoms: C_12  and  C_14
REMARK    9  A    between atoms: C_12  and  C_15
REMARK   10  A    between atoms: C_27  and  O_29
REMARK   11  A    between atoms: C_32  and  C_33
REMARK   12  A    between atoms: C_38  and  C_39
REMARK                            x       y       z     vdW  Elec       q    Type
REMARK                         _______ _______ _______ _____ _____    ______ ____
ROOT
ATOM      1  C   LIG A   1      -6.488   0.115 126.814  0.00  0.00    -0.002 C 
ATOM      2  C   LIG A   1      -5.098   0.430 126.247  0.00  0.00    +0.004 C 
ATOM      3  C   LIG A   1      -4.908   1.936 126.420  0.00  0.00    +0.004 C 
ATOM      4  C   LIG A   1      -6.024   2.438 127.367  0.00  0.00    -0.001 C 
ATOM      5  C   LIG A   1      -5.576   3.568 128.285  0.00  0.00    +0.000 C 
ATOM      6  C   LIG A   1      -6.782   4.294 128.920  0.00  0.00    +0.031 C 
ATOM      7  C   LIG A   1      -6.376   5.307 129.940  0.00  0.00    -0.027 C 
ATOM      8  C   LIG A   1      -5.151   5.367 130.469  0.00  0.00    -0.065 C 
ATOM      9  C   LIG A   1      -4.710   6.605 131.217  0.00  0.00    +0.062 C 
ATOM     10  C   LIG A   1      -3.678   7.365 130.362  0.00  0.00    +0.119 C 
ATOM     11  C   LIG A   1      -2.531   6.462 129.893  0.00  0.00    +0.032 C 
ATOM     12  C   LIG A   1      -3.014   5.134 129.277  0.00  0.00    +0.013 C 
ATOM     13  C   LIG A   1      -4.048   4.348 130.155  0.00  0.00    -0.008 C 
ATOM     14  C   LIG A   1      -3.342   3.853 131.434  0.00  0.00    +0.016 C 
ATOM     15  C   LIG A   1      -4.585   3.095 129.349  0.00  0.00    +0.003 C 
ATOM     16  C   LIG A   1      -5.252   1.941 130.144  0.00  0.00    +0.005 C 
ATOM     17  C   LIG A   1      -5.709   0.767 129.234  0.00  0.00    +0.007 C 
ATOM     18  C   LIG A   1      -6.603   1.157 128.003  0.00  0.00    -0.026 C 
ATOM     19  C   LIG A   1      -8.062   1.247 128.476  0.00  0.00    +0.012 C 
ENDROOT
BRANCH   1  20
ATOM     20  C   LIG A   1      -7.612   0.062 125.670  0.00  0.00    -0.007 C 
ATOM     21  C   LIG A   1      -8.026  -1.407 125.472  0.00  0.00    +0.008 C 
BRANCH  20  24
ATOM     22  C   LIG A   1      -8.397   3.080 124.690  0.00  0.00    +0.012 C 
ATOM     23  C   LIG A   1      -7.559   2.170 123.834  0.00  0.00    -0.026 C 
ATOM     24  C   LIG A   1      -7.223   0.768 124.377  0.00  0.00    -0.001 C 
ATOM     25  C   LIG A   1      -8.164   0.918 123.218  0.00  0.00    +0.011 C 
BRANCH  23  26
ATOM     26  C   LIG A   1      -6.423   2.863 123.021  0.00  0.00    -0.005 C 
ATOM     27  C   LIG A   1      -6.089   4.228 123.645  0.00  0.00    +0.008 C 
BRANCH  26  28
ATOM     28  C   LIG A   1      -6.696   2.977 121.489  0.00  0.00    -0.014 C 
ATOM     29  C   LIG A   1      -8.014   3.717 121.200  0.00  0.00    +0.007 C 
ATOM     30  C   LIG A   1      -5.572   3.702 120.739  0.00  0.00    +0.007 C 
ENDBRANCH  26  28
ENDBRANCH  23  26
ENDBRANCH  20  24
ENDBRANCH   1  20
BRANCH  10  31
ATOM     31  O   LIG A   1      -4.286   7.955 129.207  0.00  0.00    -0.392 OA
ATOM     32  H   LIG A   1      -4.430   8.901 129.382  0.00  0.00    +0.210 HD
ENDBRANCH  10  31
TORSDOF 5
ENDMDL
