MODEL 1
REMARK VINA RESULT:      -8.8      0.000      0.000
REMARK  Name = NuBBE_1463
REMARK  11 active torsions:
REMARK  status: ('A' for Active; 'I' for Inactive)
REMARK    1  A    between atoms: C_1  and  C_2
REMARK    2  A    between atoms: C_4  and  C_5
REMARK    3  A    between atoms: C_10  and  C_11
REMARK    4  A    between atoms: C_10  and  C_12
REMARK    5  A    between atoms: C_13  and  C_15
REMARK    6  A    between atoms: C_15  and  C_16
REMARK    7  A    between atoms: C_16  and  O_17
REMARK    8  A    between atoms: O_17  and  C_18
REMARK    9  A    between atoms: C_22  and  C_23
REMARK   10  A    between atoms: C_24  and  C_26
REMARK   11  A    between atoms: C_33  and  O_35
REMARK                            x       y       z     vdW  Elec       q    Type
REMARK                         _______ _______ _______ _____ _____    ______ ____
ROOT
ATOM      1  C   LIG A   1      -8.850   3.215 133.032  0.00  0.00    +0.057 C 
ATOM      2  C   LIG A   1      -7.812   3.655 132.040  0.00  0.00    +0.124 C 
ATOM      3  C   LIG A   1      -7.309   5.088 131.960  0.00  0.00    +0.036 C 
ATOM      4  C   LIG A   1      -5.788   4.983 132.330  0.00  0.00    +0.040 C 
ATOM      5  C   LIG A   1      -5.570   5.582 133.751  0.00  0.00    +0.020 C 
ATOM      6  C   LIG A   1      -5.582   3.473 132.437  0.00  0.00    +0.109 C 
ATOM      7  O   LIG A   1      -6.699   2.736 132.113  0.00  0.00    -0.488 OA
ATOM      8  C   LIG A   1      -4.425   2.872 132.711  0.00  0.00    +0.088 C 
ATOM      9  C   LIG A   1      -3.272   3.770 132.551  0.00  0.00    +0.165 C 
ATOM     10  C   LIG A   1      -3.331   4.682 131.311  0.00  0.00    +0.032 C 
ATOM     11  C   LIG A   1      -3.306   3.746 130.073  0.00  0.00    +0.019 C 
ATOM     12  C   LIG A   1      -2.009   5.478 131.239  0.00  0.00    +0.019 C 
ATOM     13  C   LIG A   1      -4.699   5.554 131.314  0.00  0.00    +0.027 C 
ATOM     14  O   LIG A   1      -2.340   3.726 133.346  0.00  0.00    -0.292 OA
ATOM     15  C   LIG A   1      -8.073   4.484 130.764  0.00  0.00    +0.066 C 
ATOM     16  C   LIG A   1      -9.421   5.265 130.594  0.00  0.00    +0.022 C 
ATOM     17  C   LIG A   1     -10.611   4.273 130.524  0.00  0.00    +0.016 C 
ATOM     18  C   LIG A   1      -9.378   6.102 129.265  0.00  0.00    +0.216 C 
ATOM     19  O   LIG A   1      -9.230   5.206 128.141  0.00  0.00    -0.454 OA
ATOM     20  C   LIG A   1      -8.300   4.228 128.212  0.00  0.00    +0.337 C 
ATOM     21  C   LIG A   1      -7.370   4.249 129.430  0.00  0.00    +0.234 C 
ATOM     22  O   LIG A   1      -8.161   3.403 127.311  0.00  0.00    -0.248 OA
ATOM     23  C   LIG A   1      -9.504   6.197 131.835  0.00  0.00    +0.012 C 
ATOM     24  C   LIG A   1      -8.171   6.149 132.601  0.00  0.00    +0.013 C 
ENDROOT
BRANCH  18  25
ATOM     25  C   LIG A   1     -10.587   6.982 129.023  0.00  0.00    +0.031 A 
ATOM     26  C   LIG A   1     -11.923   6.622 129.074  0.00  0.00    +0.202 A 
ATOM     27  O   LIG A   1     -12.729   7.675 128.787  0.00  0.00    -0.471 OA
ATOM     28  C   LIG A   1     -11.919   8.729 128.521  0.00  0.00    +0.195 A 
ATOM     29  C   LIG A   1     -10.601   8.358 128.641  0.00  0.00    +0.048 A 
ENDBRANCH  18  25
BRANCH  21  30
ATOM     30  O   LIG A   1      -6.599   3.055 129.447  0.00  0.00    -0.380 OA
ATOM     31  H   LIG A   1      -5.659   3.326 129.449  0.00  0.00    +0.210 HD
ENDBRANCH  21  30
BRANCH  13  32
ATOM     32  C   LIG A   1      -4.357   7.048 131.490  0.00  0.00    +0.126 C 
BRANCH  32  33
ATOM     33  C   LIG A   1      -4.180   7.899 130.257  0.00  0.00    +0.307 C 
ATOM     34  O   LIG A   1      -3.912   9.083 130.245  0.00  0.00    -0.251 OA
BRANCH  33  35
ATOM     35  O   LIG A   1      -4.533   7.132 129.181  0.00  0.00    -0.468 OA
ATOM     36  C   LIG A   1      -3.544   6.939 128.170  0.00  0.00    +0.280 C 
ENDBRANCH  33  35
ENDBRANCH  32  33
ENDBRANCH  13  32
TORSDOF 5
ENDMDL
MODEL 2
REMARK VINA RESULT:      -8.6      4.352      7.969
REMARK  Name = NuBBE_1463
REMARK  11 active torsions:
REMARK  status: ('A' for Active; 'I' for Inactive)
REMARK    1  A    between atoms: C_1  and  C_2
REMARK    2  A    between atoms: C_4  and  C_5
REMARK    3  A    between atoms: C_10  and  C_11
REMARK    4  A    between atoms: C_10  and  C_12
REMARK    5  A    between atoms: C_13  and  C_15
REMARK    6  A    between atoms: C_15  and  C_16
REMARK    7  A    between atoms: C_16  and  O_17
REMARK    8  A    between atoms: O_17  and  C_18
REMARK    9  A    between atoms: C_22  and  C_23
REMARK   10  A    between atoms: C_24  and  C_26
REMARK   11  A    between atoms: C_33  and  O_35
REMARK                            x       y       z     vdW  Elec       q    Type
REMARK                         _______ _______ _______ _____ _____    ______ ____
ROOT
ATOM      1  C   LIG A   1      -5.778  -0.420 128.605  0.00  0.00    +0.057 C 
ATOM      2  C   LIG A   1      -6.656   0.443 127.744  0.00  0.00    +0.124 C 
ATOM      3  C   LIG A   1      -6.154   1.117 126.476  0.00  0.00    +0.036 C 
ATOM      4  C   LIG A   1      -7.002   0.462 125.330  0.00  0.00    +0.040 C 
ATOM      5  C   LIG A   1      -6.088  -0.496 124.509  0.00  0.00    +0.020 C 
ATOM      6  C   LIG A   1      -7.987  -0.408 126.110  0.00  0.00    +0.109 C 
ATOM      7  O   LIG A   1      -7.878  -0.280 127.477  0.00  0.00    -0.488 OA
ATOM      8  C   LIG A   1      -8.949  -1.155 125.569  0.00  0.00    +0.088 C 
ATOM      9  C   LIG A   1      -9.219  -0.798 124.169  0.00  0.00    +0.165 C 
ATOM     10  C   LIG A   1      -9.238   0.715 123.880  0.00  0.00    +0.032 C 
ATOM     11  C   LIG A   1     -10.418   1.305 124.697  0.00  0.00    +0.019 C 
ATOM     12  C   LIG A   1      -9.634   0.914 122.400  0.00  0.00    +0.019 C 
ATOM     13  C   LIG A   1      -7.844   1.398 124.353  0.00  0.00    +0.027 C 
ATOM     14  O   LIG A   1      -9.449  -1.673 123.343  0.00  0.00    -0.292 OA
ATOM     15  C   LIG A   1      -6.613   1.984 127.665  0.00  0.00    +0.066 C 
ATOM     16  C   LIG A   1      -5.373   2.767 128.215  0.00  0.00    +0.022 C 
ATOM     17  C   LIG A   1      -5.246   2.567 129.747  0.00  0.00    +0.016 C 
ATOM     18  C   LIG A   1      -5.544   4.300 127.914  0.00  0.00    +0.216 C 
ATOM     19  O   LIG A   1      -6.723   4.790 128.592  0.00  0.00    -0.454 OA
ATOM     20  C   LIG A   1      -7.866   4.074 128.499  0.00  0.00    +0.337 C 
ATOM     21  C   LIG A   1      -7.850   2.871 127.550  0.00  0.00    +0.234 C 
ATOM     22  O   LIG A   1      -8.888   4.411 129.094  0.00  0.00    -0.248 OA
ATOM     23  C   LIG A   1      -4.156   2.183 127.443  0.00  0.00    +0.012 C 
ATOM     24  C   LIG A   1      -4.657   1.255 126.325  0.00  0.00    +0.013 C 
ENDROOT
BRANCH  18  25
ATOM     25  C   LIG A   1      -4.367   5.166 128.311  0.00  0.00    +0.031 A 
ATOM     26  C   LIG A   1      -4.274   6.031 129.389  0.00  0.00    +0.202 A 
ATOM     27  O   LIG A   1      -3.067   6.652 129.421  0.00  0.00    -0.471 OA
ATOM     28  C   LIG A   1      -2.370   6.211 128.346  0.00  0.00    +0.195 A 
ATOM     29  C   LIG A   1      -3.120   5.309 127.628  0.00  0.00    +0.048 A 
ENDBRANCH  18  25
BRANCH  21  30
ATOM     30  O   LIG A   1      -9.047   2.125 127.724  0.00  0.00    -0.380 OA
ATOM     31  H   LIG A   1      -9.089   1.873 128.669  0.00  0.00    +0.210 HD
ENDBRANCH  21  30
BRANCH  13  32
ATOM     32  C   LIG A   1      -7.079   1.915 123.117  0.00  0.00    +0.126 C 
BRANCH  32  33
ATOM     33  C   LIG A   1      -6.403   3.263 123.196  0.00  0.00    +0.307 C 
ATOM     34  O   LIG A   1      -6.004   3.797 124.210  0.00  0.00    -0.251 OA
BRANCH  33  35
ATOM     35  O   LIG A   1      -6.475   3.825 121.951  0.00  0.00    -0.468 OA
ATOM     36  C   LIG A   1      -5.239   4.145 121.312  0.00  0.00    +0.280 C 
ENDBRANCH  33  35
ENDBRANCH  32  33
ENDBRANCH  13  32
TORSDOF 5
ENDMDL
MODEL 3
REMARK VINA RESULT:      -8.5      4.149      6.728
REMARK  Name = NuBBE_1463
REMARK  11 active torsions:
REMARK  status: ('A' for Active; 'I' for Inactive)
REMARK    1  A    between atoms: C_1  and  C_2
REMARK    2  A    between atoms: C_4  and  C_5
REMARK    3  A    between atoms: C_10  and  C_11
REMARK    4  A    between atoms: C_10  and  C_12
REMARK    5  A    between atoms: C_13  and  C_15
REMARK    6  A    between atoms: C_15  and  C_16
REMARK    7  A    between atoms: C_16  and  O_17
REMARK    8  A    between atoms: O_17  and  C_18
REMARK    9  A    between atoms: C_22  and  C_23
REMARK   10  A    between atoms: C_24  and  C_26
REMARK   11  A    between atoms: C_33  and  O_35
REMARK                            x       y       z     vdW  Elec       q    Type
REMARK                         _______ _______ _______ _____ _____    ______ ____
ROOT
ATOM      1  C   LIG A   1      -4.277   1.529 130.120  0.00  0.00    +0.057 C 
ATOM      2  C   LIG A   1      -5.543   0.929 129.581  0.00  0.00    +0.124 C 
ATOM      3  C   LIG A   1      -6.282   1.511 128.385  0.00  0.00    +0.036 C 
ATOM      4  C   LIG A   1      -6.205   0.381 127.298  0.00  0.00    +0.040 C 
ATOM      5  C   LIG A   1      -5.211   0.821 126.183  0.00  0.00    +0.020 C 
ATOM      6  C   LIG A   1      -5.548  -0.765 128.066  0.00  0.00    +0.109 C 
ATOM      7  O   LIG A   1      -5.329  -0.488 129.397  0.00  0.00    -0.488 OA
ATOM      8  C   LIG A   1      -5.289  -1.974 127.569  0.00  0.00    +0.088 C 
ATOM      9  C   LIG A   1      -6.014  -2.237 126.317  0.00  0.00    +0.165 C 
ATOM     10  C   LIG A   1      -7.477  -1.754 126.305  0.00  0.00    +0.032 C 
ATOM     11  C   LIG A   1      -8.220  -2.570 127.397  0.00  0.00    +0.019 C 
ATOM     12  C   LIG A   1      -8.115  -2.196 124.969  0.00  0.00    +0.019 C 
ATOM     13  C   LIG A   1      -7.554  -0.171 126.653  0.00  0.00    +0.027 C 
ATOM     14  O   LIG A   1      -5.464  -2.835 125.400  0.00  0.00    -0.292 OA
ATOM     15  C   LIG A   1      -6.966   1.498 129.767  0.00  0.00    +0.066 C 
ATOM     16  C   LIG A   1      -7.167   2.981 130.232  0.00  0.00    +0.022 C 
ATOM     17  C   LIG A   1      -6.603   3.176 131.664  0.00  0.00    +0.016 C 
ATOM     18  C   LIG A   1      -8.699   3.326 130.237  0.00  0.00    +0.216 C 
ATOM     19  O   LIG A   1      -9.380   2.463 131.176  0.00  0.00    -0.454 OA
ATOM     20  C   LIG A   1      -9.109   1.139 131.149  0.00  0.00    +0.337 C 
ATOM     21  C   LIG A   1      -8.206   0.643 130.015  0.00  0.00    +0.234 C 
ATOM     22  O   LIG A   1      -9.616   0.361 131.955  0.00  0.00    -0.248 OA
ATOM     23  C   LIG A   1      -6.408   3.837 129.180  0.00  0.00    +0.012 C 
ATOM     24  C   LIG A   1      -5.961   2.939 128.015  0.00  0.00    +0.013 C 
ENDROOT
BRANCH  18  25
ATOM     25  C   LIG A   1      -9.031   4.764 130.580  0.00  0.00    +0.031 A 
ATOM     26  C   LIG A   1      -9.208   5.319 131.836  0.00  0.00    +0.202 A 
ATOM     27  O   LIG A   1      -9.509   6.639 131.755  0.00  0.00    -0.471 OA
ATOM     28  C   LIG A   1      -9.554   6.951 130.436  0.00  0.00    +0.195 A 
ATOM     29  C   LIG A   1      -9.279   5.841 129.674  0.00  0.00    +0.048 A 
ENDBRANCH  18  25
BRANCH  21  30
ATOM     30  O   LIG A   1      -7.865  -0.716 130.251  0.00  0.00    -0.380 OA
ATOM     31  H   LIG A   1      -8.581  -1.096 130.801  0.00  0.00    +0.210 HD
ENDBRANCH  21  30
BRANCH  13  32
ATOM     32  C   LIG A   1      -8.056   0.604 125.418  0.00  0.00    +0.126 C 
BRANCH  32  33
ATOM     33  C   LIG A   1      -9.489   1.079 125.395  0.00  0.00    +0.307 C 
ATOM     34  O   LIG A   1     -10.471   0.374 125.510  0.00  0.00    -0.251 OA
BRANCH  33  35
ATOM     35  O   LIG A   1      -9.471   2.405 125.063  0.00  0.00    -0.468 OA
ATOM     36  C   LIG A   1      -8.235   2.937 124.586  0.00  0.00    +0.280 C 
ENDBRANCH  33  35
ENDBRANCH  32  33
ENDBRANCH  13  32
TORSDOF 5
ENDMDL
MODEL 4
REMARK VINA RESULT:      -8.3      2.817      5.735
REMARK  Name = NuBBE_1463
REMARK  11 active torsions:
REMARK  status: ('A' for Active; 'I' for Inactive)
REMARK    1  A    between atoms: C_1  and  C_2
REMARK    2  A    between atoms: C_4  and  C_5
REMARK    3  A    between atoms: C_10  and  C_11
REMARK    4  A    between atoms: C_10  and  C_12
REMARK    5  A    between atoms: C_13  and  C_15
REMARK    6  A    between atoms: C_15  and  C_16
REMARK    7  A    between atoms: C_16  and  O_17
REMARK    8  A    between atoms: O_17  and  C_18
REMARK    9  A    between atoms: C_22  and  C_23
REMARK   10  A    between atoms: C_24  and  C_26
REMARK   11  A    between atoms: C_33  and  O_35
REMARK                            x       y       z     vdW  Elec       q    Type
REMARK                         _______ _______ _______ _____ _____    ______ ____
ROOT
ATOM      1  C   LIG A   1      -6.077   0.366 129.161  0.00  0.00    +0.057 C 
ATOM      2  C   LIG A   1      -6.306   1.833 129.385  0.00  0.00    +0.124 C 
ATOM      3  C   LIG A   1      -7.634   2.511 129.090  0.00  0.00    +0.036 C 
ATOM      4  C   LIG A   1      -8.130   3.014 130.491  0.00  0.00    +0.040 C 
ATOM      5  C   LIG A   1      -9.326   2.130 130.952  0.00  0.00    +0.020 C 
ATOM      6  C   LIG A   1      -6.944   2.680 131.395  0.00  0.00    +0.109 C 
ATOM      7  O   LIG A   1      -5.862   2.160 130.720  0.00  0.00    -0.488 OA
ATOM      8  C   LIG A   1      -6.872   2.946 132.699  0.00  0.00    +0.088 C 
ATOM      9  C   LIG A   1      -7.888   3.914 133.134  0.00  0.00    +0.165 C 
ATOM     10  C   LIG A   1      -8.107   5.097 132.172  0.00  0.00    +0.032 C 
ATOM     11  C   LIG A   1      -6.770   5.885 132.131  0.00  0.00    +0.019 C 
ATOM     12  C   LIG A   1      -9.123   6.062 132.824  0.00  0.00    +0.019 C 
ATOM     13  C   LIG A   1      -8.474   4.558 130.686  0.00  0.00    +0.027 C 
ATOM     14  O   LIG A   1      -8.459   3.769 134.209  0.00  0.00    -0.292 OA
ATOM     15  C   LIG A   1      -6.382   2.916 128.288  0.00  0.00    +0.066 C 
ATOM     16  C   LIG A   1      -6.600   2.507 126.791  0.00  0.00    +0.022 C 
ATOM     17  C   LIG A   1      -5.392   1.681 126.278  0.00  0.00    +0.016 C 
ATOM     18  C   LIG A   1      -6.744   3.800 125.909  0.00  0.00    +0.216 C 
ATOM     19  O   LIG A   1      -5.525   4.572 125.993  0.00  0.00    -0.454 OA
ATOM     20  C   LIG A   1      -4.979   4.788 127.210  0.00  0.00    +0.337 C 
ATOM     21  C   LIG A   1      -5.790   4.316 128.422  0.00  0.00    +0.234 C 
ATOM     22  O   LIG A   1      -3.917   5.393 127.343  0.00  0.00    -0.248 OA
ATOM     23  C   LIG A   1      -7.918   1.684 126.788  0.00  0.00    +0.012 C 
ATOM     24  C   LIG A   1      -8.584   1.779 128.171  0.00  0.00    +0.013 C 
ENDROOT
BRANCH  18  25
ATOM     25  C   LIG A   1      -7.053   3.547 124.448  0.00  0.00    +0.031 A 
ATOM     26  C   LIG A   1      -6.224   3.748 123.357  0.00  0.00    +0.202 A 
ATOM     27  O   LIG A   1      -6.848   3.423 122.197  0.00  0.00    -0.471 OA
ATOM     28  C   LIG A   1      -8.103   3.028 122.523  0.00  0.00    +0.195 A 
ATOM     29  C   LIG A   1      -8.285   3.094 123.884  0.00  0.00    +0.048 A 
ENDBRANCH  18  25
BRANCH  21  30
ATOM     30  O   LIG A   1      -4.991   4.437 129.592  0.00  0.00    -0.380 OA
ATOM     31  H   LIG A   1      -4.698   5.370 129.639  0.00  0.00    +0.210 HD
ENDBRANCH  21  30
BRANCH  13  32
ATOM     32  C   LIG A   1      -9.923   4.957 130.337  0.00  0.00    +0.126 C 
BRANCH  32  33
ATOM     33  C   LIG A   1     -10.148   6.155 129.447  0.00  0.00    +0.307 C 
ATOM     34  O   LIG A   1      -9.431   7.132 129.377  0.00  0.00    -0.251 OA
BRANCH  33  35
ATOM     35  O   LIG A   1     -11.378   6.003 128.867  0.00  0.00    -0.468 OA
ATOM     36  C   LIG A   1     -12.491   6.585 129.546  0.00  0.00    +0.280 C 
ENDBRANCH  33  35
ENDBRANCH  32  33
ENDBRANCH  13  32
TORSDOF 5
ENDMDL
MODEL 5
REMARK VINA RESULT:      -8.1      1.913      2.901
REMARK  Name = NuBBE_1463
REMARK  11 active torsions:
REMARK  status: ('A' for Active; 'I' for Inactive)
REMARK    1  A    between atoms: C_1  and  C_2
REMARK    2  A    between atoms: C_4  and  C_5
REMARK    3  A    between atoms: C_10  and  C_11
REMARK    4  A    between atoms: C_10  and  C_12
REMARK    5  A    between atoms: C_13  and  C_15
REMARK    6  A    between atoms: C_15  and  C_16
REMARK    7  A    between atoms: C_16  and  O_17
REMARK    8  A    between atoms: O_17  and  C_18
REMARK    9  A    between atoms: C_22  and  C_23
REMARK   10  A    between atoms: C_24  and  C_26
REMARK   11  A    between atoms: C_33  and  O_35
REMARK                            x       y       z     vdW  Elec       q    Type
REMARK                         _______ _______ _______ _____ _____    ______ ____
ROOT
ATOM      1  C   LIG A   1      -7.936   5.733 134.051  0.00  0.00    +0.057 C 
ATOM      2  C   LIG A   1      -7.830   4.697 132.969  0.00  0.00    +0.124 C 
ATOM      3  C   LIG A   1      -7.109   4.954 131.655  0.00  0.00    +0.036 C 
ATOM      4  C   LIG A   1      -5.913   3.938 131.666  0.00  0.00    +0.040 C 
ATOM      5  C   LIG A   1      -4.587   4.722 131.897  0.00  0.00    +0.020 C 
ATOM      6  C   LIG A   1      -6.187   3.127 132.932  0.00  0.00    +0.109 C 
ATOM      7  O   LIG A   1      -7.361   3.467 133.565  0.00  0.00    -0.488 OA
ATOM      8  C   LIG A   1      -5.448   2.107 133.367  0.00  0.00    +0.088 C 
ATOM      9  C   LIG A   1      -4.539   1.589 132.334  0.00  0.00    +0.165 C 
ATOM     10  C   LIG A   1      -5.157   1.479 130.927  0.00  0.00    +0.032 C 
ATOM     11  C   LIG A   1      -6.307   0.443 131.029  0.00  0.00    +0.019 C 
ATOM     12  C   LIG A   1      -4.110   0.829 129.995  0.00  0.00    +0.019 C 
ATOM     13  C   LIG A   1      -5.749   2.915 130.456  0.00  0.00    +0.027 C 
ATOM     14  O   LIG A   1      -3.402   1.243 132.630  0.00  0.00    -0.292 OA
ATOM     15  C   LIG A   1      -8.627   4.683 131.647  0.00  0.00    +0.066 C 
ATOM     16  C   LIG A   1      -9.358   5.978 131.154  0.00  0.00    +0.022 C 
ATOM     17  C   LIG A   1     -10.481   6.373 132.147  0.00  0.00    +0.016 C 
ATOM     18  C   LIG A   1      -9.995   5.716 129.742  0.00  0.00    +0.216 C 
ATOM     19  O   LIG A   1     -10.976   4.659 129.851  0.00  0.00    -0.454 OA
ATOM     20  C   LIG A   1     -10.644   3.537 130.528  0.00  0.00    +0.337 C 
ATOM     21  C   LIG A   1      -9.189   3.421 130.998  0.00  0.00    +0.234 C 
ATOM     22  O   LIG A   1     -11.450   2.624 130.698  0.00  0.00    -0.248 OA
ATOM     23  C   LIG A   1      -8.244   7.059 131.067  0.00  0.00    +0.012 C 
ATOM     24  C   LIG A   1      -6.872   6.397 131.279  0.00  0.00    +0.013 C 
ENDROOT
BRANCH  18  25
ATOM     25  C   LIG A   1     -10.657   6.920 129.104  0.00  0.00    +0.031 A 
ATOM     26  C   LIG A   1     -10.397   7.474 127.862  0.00  0.00    +0.202 A 
ATOM     27  O   LIG A   1     -11.178   8.559 127.631  0.00  0.00    -0.471 OA
ATOM     28  C   LIG A   1     -11.942   8.735 128.737  0.00  0.00    +0.195 A 
ATOM     29  C   LIG A   1     -11.657   7.767 129.672  0.00  0.00    +0.048 A 
ENDBRANCH  18  25
BRANCH  21  30
ATOM     30  O   LIG A   1      -9.066   2.293 131.853  0.00  0.00    -0.380 OA
ATOM     31  H   LIG A   1      -8.838   1.530 131.283  0.00  0.00    +0.210 HD
ENDBRANCH  21  30
BRANCH  13  32
ATOM     32  C   LIG A   1      -4.932   3.441 129.257  0.00  0.00    +0.126 C 
BRANCH  32  33
ATOM     33  C   LIG A   1      -5.587   4.413 128.306  0.00  0.00    +0.307 C 
ATOM     34  O   LIG A   1      -5.042   5.356 127.770  0.00  0.00    -0.251 OA
BRANCH  33  35
ATOM     35  O   LIG A   1      -6.925   4.128 128.294  0.00  0.00    -0.468 OA
ATOM     36  C   LIG A   1      -7.544   3.978 127.017  0.00  0.00    +0.280 C 
ENDBRANCH  33  35
ENDBRANCH  32  33
ENDBRANCH  13  32
TORSDOF 5
ENDMDL
MODEL 6
REMARK VINA RESULT:      -8.0      3.008      5.663
REMARK  Name = NuBBE_1463
REMARK  11 active torsions:
REMARK  status: ('A' for Active; 'I' for Inactive)
REMARK    1  A    between atoms: C_1  and  C_2
REMARK    2  A    between atoms: C_4  and  C_5
REMARK    3  A    between atoms: C_10  and  C_11
REMARK    4  A    between atoms: C_10  and  C_12
REMARK    5  A    between atoms: C_13  and  C_15
REMARK    6  A    between atoms: C_15  and  C_16
REMARK    7  A    between atoms: C_16  and  O_17
REMARK    8  A    between atoms: O_17  and  C_18
REMARK    9  A    between atoms: C_22  and  C_23
REMARK   10  A    between atoms: C_24  and  C_26
REMARK   11  A    between atoms: C_33  and  O_35
REMARK                            x       y       z     vdW  Elec       q    Type
REMARK                         _______ _______ _______ _____ _____    ______ ____
ROOT
ATOM      1  C   LIG A   1      -5.225   0.721 128.470  0.00  0.00    +0.057 C 
ATOM      2  C   LIG A   1      -5.844   2.080 128.632  0.00  0.00    +0.124 C 
ATOM      3  C   LIG A   1      -7.322   2.277 128.929  0.00  0.00    +0.036 C 
ATOM      4  C   LIG A   1      -7.345   2.956 130.343  0.00  0.00    +0.040 C 
ATOM      5  C   LIG A   1      -7.850   1.922 131.392  0.00  0.00    +0.020 C 
ATOM      6  C   LIG A   1      -5.859   3.190 130.615  0.00  0.00    +0.109 C 
ATOM      7  O   LIG A   1      -5.040   2.834 129.567  0.00  0.00    -0.488 OA
ATOM      8  C   LIG A   1      -5.359   3.777 131.702  0.00  0.00    +0.088 C 
ATOM      9  C   LIG A   1      -6.380   4.510 132.467  0.00  0.00    +0.165 C 
ATOM     10  C   LIG A   1      -7.375   5.314 131.609  0.00  0.00    +0.032 C 
ATOM     11  C   LIG A   1      -6.545   6.400 130.873  0.00  0.00    +0.019 C 
ATOM     12  C   LIG A   1      -8.304   6.097 132.564  0.00  0.00    +0.019 C 
ATOM     13  C   LIG A   1      -8.100   4.348 130.527  0.00  0.00    +0.027 C 
ATOM     14  O   LIG A   1      -6.369   4.484 133.692  0.00  0.00    -0.292 OA
ATOM     15  C   LIG A   1      -6.740   2.797 127.599  0.00  0.00    +0.066 C 
ATOM     16  C   LIG A   1      -7.390   1.988 126.425  0.00  0.00    +0.022 C 
ATOM     17  C   LIG A   1      -6.291   1.421 125.489  0.00  0.00    +0.016 C 
ATOM     18  C   LIG A   1      -8.328   2.935 125.593  0.00  0.00    +0.216 C 
ATOM     19  O   LIG A   1      -7.542   4.005 125.023  0.00  0.00    -0.454 OA
ATOM     20  C   LIG A   1      -6.661   4.653 125.817  0.00  0.00    +0.337 C 
ATOM     21  C   LIG A   1      -6.682   4.293 127.306  0.00  0.00    +0.234 C 
ATOM     22  O   LIG A   1      -5.928   5.538 125.378  0.00  0.00    -0.248 OA
ATOM     23  C   LIG A   1      -8.209   0.864 127.118  0.00  0.00    +0.012 C 
ATOM     24  C   LIG A   1      -8.238   1.112 128.635  0.00  0.00    +0.013 C 
ENDROOT
BRANCH  18  25
ATOM     25  C   LIG A   1      -9.097   2.256 124.478  0.00  0.00    +0.031 A 
ATOM     26  C   LIG A   1     -10.141   1.353 124.592  0.00  0.00    +0.202 A 
ATOM     27  O   LIG A   1     -10.575   0.945 123.373  0.00  0.00    -0.471 OA
ATOM     28  C   LIG A   1      -9.798   1.564 122.451  0.00  0.00    +0.195 A 
ATOM     29  C   LIG A   1      -8.872   2.369 123.071  0.00  0.00    +0.048 A 
ENDBRANCH  18  25
BRANCH  21  30
ATOM     30  O   LIG A   1      -5.575   4.910 127.949  0.00  0.00    -0.380 OA
ATOM     31  H   LIG A   1      -4.995   4.189 128.269  0.00  0.00    +0.210 HD
ENDBRANCH  21  30
BRANCH  13  32
ATOM     32  C   LIG A   1      -9.603   4.240 130.859  0.00  0.00    +0.126 C 
BRANCH  32  33
ATOM     33  C   LIG A   1     -10.577   5.102 130.093  0.00  0.00    +0.307 C 
ATOM     34  O   LIG A   1     -10.355   5.652 129.034  0.00  0.00    -0.251 OA
BRANCH  33  35
ATOM     35  O   LIG A   1     -11.677   5.273 130.887  0.00  0.00    -0.468 OA
ATOM     36  C   LIG A   1     -11.839   6.551 131.504  0.00  0.00    +0.280 C 
ENDBRANCH  33  35
ENDBRANCH  32  33
ENDBRANCH  13  32
TORSDOF 5
ENDMDL
MODEL 7
REMARK VINA RESULT:      -7.9      2.498      5.480
REMARK  Name = NuBBE_1463
REMARK  11 active torsions:
REMARK  status: ('A' for Active; 'I' for Inactive)
REMARK    1  A    between atoms: C_1  and  C_2
REMARK    2  A    between atoms: C_4  and  C_5
REMARK    3  A    between atoms: C_10  and  C_11
REMARK    4  A    between atoms: C_10  and  C_12
REMARK    5  A    between atoms: C_13  and  C_15
REMARK    6  A    between atoms: C_15  and  C_16
REMARK    7  A    between atoms: C_16  and  O_17
REMARK    8  A    between atoms: O_17  and  C_18
REMARK    9  A    between atoms: C_22  and  C_23
REMARK   10  A    between atoms: C_24  and  C_26
REMARK   11  A    between atoms: C_33  and  O_35
REMARK                            x       y       z     vdW  Elec       q    Type
REMARK                         _______ _______ _______ _____ _____    ______ ____
ROOT
ATOM      1  C   LIG A   1      -8.877   1.108 130.936  0.00  0.00    +0.057 C 
ATOM      2  C   LIG A   1      -8.513   2.325 130.135  0.00  0.00    +0.124 C 
ATOM      3  C   LIG A   1      -7.087   2.843 130.032  0.00  0.00    +0.036 C 
ATOM      4  C   LIG A   1      -6.732   2.693 128.510  0.00  0.00    +0.040 C 
ATOM      5  C   LIG A   1      -5.721   1.522 128.339  0.00  0.00    +0.020 C 
ATOM      6  C   LIG A   1      -8.061   2.237 127.910  0.00  0.00    +0.109 C 
ATOM      7  O   LIG A   1      -9.094   2.190 128.819  0.00  0.00    -0.488 OA
ATOM      8  C   LIG A   1      -8.279   1.997 126.617  0.00  0.00    +0.088 C 
ATOM      9  C   LIG A   1      -7.226   2.554 125.755  0.00  0.00    +0.165 C 
ATOM     10  C   LIG A   1      -6.743   3.962 126.153  0.00  0.00    +0.032 C 
ATOM     11  C   LIG A   1      -7.962   4.909 125.988  0.00  0.00    +0.019 C 
ATOM     12  C   LIG A   1      -5.721   4.433 125.095  0.00  0.00    +0.019 C 
ATOM     13  C   LIG A   1      -6.242   3.973 127.696  0.00  0.00    +0.027 C 
ATOM     14  O   LIG A   1      -6.829   1.924 124.782  0.00  0.00    -0.292 OA
ATOM     15  C   LIG A   1      -8.163   3.715 130.708  0.00  0.00    +0.066 C 
ATOM     16  C   LIG A   1      -7.792   3.873 132.222  0.00  0.00    +0.022 C 
ATOM     17  C   LIG A   1      -9.006   3.506 133.114  0.00  0.00    +0.016 C 
ATOM     18  C   LIG A   1      -7.381   5.362 132.509  0.00  0.00    +0.216 C 
ATOM     19  O   LIG A   1      -8.502   6.229 132.227  0.00  0.00    -0.454 OA
ATOM     20  C   LIG A   1      -9.180   6.053 131.071  0.00  0.00    +0.337 C 
ATOM     21  C   LIG A   1      -8.602   5.036 130.081  0.00  0.00    +0.234 C 
ATOM     22  O   LIG A   1     -10.173   6.725 130.797  0.00  0.00    -0.248 OA
ATOM     23  C   LIG A   1      -6.590   2.913 132.442  0.00  0.00    +0.012 C 
ATOM     24  C   LIG A   1      -6.113   2.371 131.084  0.00  0.00    +0.013 C 
ENDROOT
BRANCH  18  25
ATOM     25  C   LIG A   1      -6.906   5.634 133.921  0.00  0.00    +0.031 A 
ATOM     26  C   LIG A   1      -5.608   5.837 134.358  0.00  0.00    +0.202 A 
ATOM     27  O   LIG A   1      -5.563   6.041 135.699  0.00  0.00    -0.471 OA
ATOM     28  C   LIG A   1      -6.837   5.948 136.152  0.00  0.00    +0.195 A 
ATOM     29  C   LIG A   1      -7.697   5.692 135.110  0.00  0.00    +0.048 A 
ENDBRANCH  18  25
BRANCH  21  30
ATOM     30  O   LIG A   1      -9.533   4.832 129.027  0.00  0.00    -0.380 OA
ATOM     31  H   LIG A   1      -9.046   4.393 128.300  0.00  0.00    +0.210 HD
ENDBRANCH  21  30
BRANCH  13  32
ATOM     32  C   LIG A   1      -4.723   4.238 127.742  0.00  0.00    +0.126 C 
BRANCH  32  33
ATOM     33  C   LIG A   1      -4.208   5.344 128.631  0.00  0.00    +0.307 C 
ATOM     34  O   LIG A   1      -4.892   6.105 129.284  0.00  0.00    -0.251 OA
BRANCH  33  35
ATOM     35  O   LIG A   1      -2.857   5.425 128.434  0.00  0.00    -0.468 OA
ATOM     36  C   LIG A   1      -2.301   6.732 128.283  0.00  0.00    +0.280 C 
ENDBRANCH  33  35
ENDBRANCH  32  33
ENDBRANCH  13  32
TORSDOF 5
ENDMDL
MODEL 8
REMARK VINA RESULT:      -7.9      3.268      6.657
REMARK  Name = NuBBE_1463
REMARK  11 active torsions:
REMARK  status: ('A' for Active; 'I' for Inactive)
REMARK    1  A    between atoms: C_1  and  C_2
REMARK    2  A    between atoms: C_4  and  C_5
REMARK    3  A    between atoms: C_10  and  C_11
REMARK    4  A    between atoms: C_10  and  C_12
REMARK    5  A    between atoms: C_13  and  C_15
REMARK    6  A    between atoms: C_15  and  C_16
REMARK    7  A    between atoms: C_16  and  O_17
REMARK    8  A    between atoms: O_17  and  C_18
REMARK    9  A    between atoms: C_22  and  C_23
REMARK   10  A    between atoms: C_24  and  C_26
REMARK   11  A    between atoms: C_33  and  O_35
REMARK                            x       y       z     vdW  Elec       q    Type
REMARK                         _______ _______ _______ _____ _____    ______ ____
ROOT
ATOM      1  C   LIG A   1      -3.761   4.554 128.256  0.00  0.00    +0.057 C 
ATOM      2  C   LIG A   1      -5.199   4.336 128.629  0.00  0.00    +0.124 C 
ATOM      3  C   LIG A   1      -5.683   3.079 129.334  0.00  0.00    +0.036 C 
ATOM      4  C   LIG A   1      -6.213   3.594 130.718  0.00  0.00    +0.040 C 
ATOM      5  C   LIG A   1      -5.219   3.158 131.834  0.00  0.00    +0.020 C 
ATOM      6  C   LIG A   1      -6.093   5.110 130.570  0.00  0.00    +0.109 C 
ATOM      7  O   LIG A   1      -5.669   5.513 129.323  0.00  0.00    -0.488 OA
ATOM      8  C   LIG A   1      -6.452   6.004 131.490  0.00  0.00    +0.088 C 
ATOM      9  C   LIG A   1      -7.312   5.425 132.533  0.00  0.00    +0.165 C 
ATOM     10  C   LIG A   1      -8.391   4.455 132.015  0.00  0.00    +0.032 C 
ATOM     11  C   LIG A   1      -9.336   5.289 131.110  0.00  0.00    +0.019 C 
ATOM     12  C   LIG A   1      -9.262   4.023 133.216  0.00  0.00    +0.019 C 
ATOM     13  C   LIG A   1      -7.712   3.262 131.150  0.00  0.00    +0.027 C 
ATOM     14  O   LIG A   1      -7.168   5.755 133.704  0.00  0.00    -0.292 OA
ATOM     15  C   LIG A   1      -6.188   3.392 127.911  0.00  0.00    +0.066 C 
ATOM     16  C   LIG A   1      -5.655   2.282 126.942  0.00  0.00    +0.022 C 
ATOM     17  C   LIG A   1      -4.956   2.928 125.718  0.00  0.00    +0.016 C 
ATOM     18  C   LIG A   1      -6.857   1.406 126.437  0.00  0.00    +0.216 C 
ATOM     19  O   LIG A   1      -7.781   2.240 125.703  0.00  0.00    -0.454 OA
ATOM     20  C   LIG A   1      -8.145   3.427 126.237  0.00  0.00    +0.337 C 
ATOM     21  C   LIG A   1      -7.658   3.719 127.661  0.00  0.00    +0.234 C 
ATOM     22  O   LIG A   1      -8.887   4.204 125.639  0.00  0.00    -0.248 OA
ATOM     23  C   LIG A   1      -4.674   1.437 127.802  0.00  0.00    +0.012 C 
ATOM     24  C   LIG A   1      -4.778   1.872 129.273  0.00  0.00    +0.013 C 
ENDROOT
BRANCH  18  25
ATOM     25  C   LIG A   1      -6.471   0.232 125.562  0.00  0.00    +0.031 A 
ATOM     26  C   LIG A   1      -6.712   0.065 124.208  0.00  0.00    +0.202 A 
ATOM     27  O   LIG A   1      -6.230  -1.123 123.763  0.00  0.00    -0.471 OA
ATOM     28  C   LIG A   1      -5.688  -1.753 124.834  0.00  0.00    +0.195 A 
ATOM     29  C   LIG A   1      -5.816  -0.974 125.960  0.00  0.00    +0.048 A 
ENDBRANCH  18  25
BRANCH  21  30
ATOM     30  O   LIG A   1      -7.956   5.070 127.986  0.00  0.00    -0.380 OA
ATOM     31  H   LIG A   1      -8.034   5.116 128.961  0.00  0.00    +0.210 HD
ENDBRANCH  21  30
BRANCH  13  32
ATOM     32  C   LIG A   1      -7.901   1.920 131.887  0.00  0.00    +0.126 C 
BRANCH  32  33
ATOM     33  C   LIG A   1      -8.720   0.840 131.223  0.00  0.00    +0.307 C 
ATOM     34  O   LIG A   1      -9.516   0.112 131.780  0.00  0.00    -0.251 OA
BRANCH  33  35
ATOM     35  O   LIG A   1      -8.282   0.734 129.932  0.00  0.00    -0.468 OA
ATOM     36  C   LIG A   1      -7.651  -0.491 129.560  0.00  0.00    +0.280 C 
ENDBRANCH  33  35
ENDBRANCH  32  33
ENDBRANCH  13  32
TORSDOF 5
ENDMDL
MODEL 9
REMARK VINA RESULT:      -7.9      2.718      6.713
REMARK  Name = NuBBE_1463
REMARK  11 active torsions:
REMARK  status: ('A' for Active; 'I' for Inactive)
REMARK    1  A    between atoms: C_1  and  C_2
REMARK    2  A    between atoms: C_4  and  C_5
REMARK    3  A    between atoms: C_10  and  C_11
REMARK    4  A    between atoms: C_10  and  C_12
REMARK    5  A    between atoms: C_13  and  C_15
REMARK    6  A    between atoms: C_15  and  C_16
REMARK    7  A    between atoms: C_16  and  O_17
REMARK    8  A    between atoms: O_17  and  C_18
REMARK    9  A    between atoms: C_22  and  C_23
REMARK   10  A    between atoms: C_24  and  C_26
REMARK   11  A    between atoms: C_33  and  O_35
REMARK                            x       y       z     vdW  Elec       q    Type
REMARK                         _______ _______ _______ _____ _____    ______ ____
ROOT
ATOM      1  C   LIG A   1      -7.471   6.704 131.325  0.00  0.00    +0.057 C 
ATOM      2  C   LIG A   1      -6.925   5.309 131.218  0.00  0.00    +0.124 C 
ATOM      3  C   LIG A   1      -6.432   4.526 132.425  0.00  0.00    +0.036 C 
ATOM      4  C   LIG A   1      -7.408   3.301 132.515  0.00  0.00    +0.040 C 
ATOM      5  C   LIG A   1      -8.354   3.497 133.737  0.00  0.00    +0.020 C 
ATOM      6  C   LIG A   1      -8.255   3.466 131.254  0.00  0.00    +0.109 C 
ATOM      7  O   LIG A   1      -7.860   4.515 130.454  0.00  0.00    -0.488 OA
ATOM      8  C   LIG A   1      -9.225   2.640 130.865  0.00  0.00    +0.088 C 
ATOM      9  C   LIG A   1      -9.180   1.348 131.566  0.00  0.00    +0.165 C 
ATOM     10  C   LIG A   1      -7.767   0.762 131.749  0.00  0.00    +0.032 C 
ATOM     11  C   LIG A   1      -7.218   0.482 130.324  0.00  0.00    +0.019 C 
ATOM     12  C   LIG A   1      -7.909  -0.630 132.405  0.00  0.00    +0.019 C 
ATOM     13  C   LIG A   1      -6.807   1.825 132.510  0.00  0.00    +0.027 C 
ATOM     14  O   LIG A   1     -10.218   0.801 131.919  0.00  0.00    -0.292 OA
ATOM     15  C   LIG A   1      -5.437   4.909 131.312  0.00  0.00    +0.066 C 
ATOM     16  C   LIG A   1      -4.388   5.909 131.908  0.00  0.00    +0.022 C 
ATOM     17  C   LIG A   1      -4.278   7.170 131.012  0.00  0.00    +0.016 C 
ATOM     18  C   LIG A   1      -2.982   5.212 131.982  0.00  0.00    +0.216 C 
ATOM     19  O   LIG A   1      -2.556   4.855 130.647  0.00  0.00    -0.454 OA
ATOM     20  C   LIG A   1      -3.439   4.239 129.831  0.00  0.00    +0.337 C 
ATOM     21  C   LIG A   1      -4.782   3.834 130.449  0.00  0.00    +0.234 C 
ATOM     22  O   LIG A   1      -3.154   3.955 128.669  0.00  0.00    -0.248 OA
ATOM     23  C   LIG A   1      -4.917   6.244 133.331  0.00  0.00    +0.012 C 
ATOM     24  C   LIG A   1      -6.102   5.323 133.666  0.00  0.00    +0.013 C 
ENDROOT
BRANCH  18  25
ATOM     25  C   LIG A   1      -1.890   6.040 132.628  0.00  0.00    +0.031 A 
ATOM     26  C   LIG A   1      -1.702   6.294 133.977  0.00  0.00    +0.202 A 
ATOM     27  O   LIG A   1      -0.622   7.090 134.183  0.00  0.00    -0.471 OA
ATOM     28  C   LIG A   1      -0.110   7.381 132.963  0.00  0.00    +0.195 A 
ATOM     29  C   LIG A   1      -0.852   6.774 131.977  0.00  0.00    +0.048 A 
ENDBRANCH  18  25
BRANCH  21  30
ATOM     30  O   LIG A   1      -5.653   3.388 129.418  0.00  0.00    -0.380 OA
ATOM     31  H   LIG A   1      -5.604   2.410 129.410  0.00  0.00    +0.210 HD
ENDBRANCH  21  30
BRANCH  13  32
ATOM     32  C   LIG A   1      -6.421   1.269 133.897  0.00  0.00    +0.126 C 
BRANCH  32  33
ATOM     33  C   LIG A   1      -5.123   1.719 134.521  0.00  0.00    +0.307 C 
ATOM     34  O   LIG A   1      -4.926   1.880 135.708  0.00  0.00    -0.251 OA
BRANCH  33  35
ATOM     35  O   LIG A   1      -4.280   2.062 133.500  0.00  0.00    -0.468 OA
ATOM     36  C   LIG A   1      -3.083   1.296 133.363  0.00  0.00    +0.280 C 
ENDBRANCH  33  35
ENDBRANCH  32  33
ENDBRANCH  13  32
TORSDOF 5
ENDMDL
