MODEL 1
REMARK VINA RESULT:      -7.7      0.000      0.000
REMARK  Name = NuBBE_2508
REMARK  1 active torsions:
REMARK  status: ('A' for Active; 'I' for Inactive)
REMARK    1  A    between atoms: O_1  and  C_2
REMARK                            x       y       z     vdW  Elec       q    Type
REMARK                         _______ _______ _______ _____ _____    ______ ____
ROOT
ATOM      1  C   LIG A   1      -8.176  -1.183 127.018  0.00  0.00    +0.120 A 
ATOM      2  C   LIG A   1      -9.031  -1.099 125.926  0.00  0.00    +0.091 A 
ATOM      3  C   LIG A   1      -8.926  -0.012 125.058  0.00  0.00    +0.131 A 
ATOM      4  C   LIG A   1      -7.993   1.008 125.290  0.00  0.00    +0.035 A 
ATOM      5  C   LIG A   1      -7.138   0.902 126.396  0.00  0.00    +0.014 A 
ATOM      6  C   LIG A   1      -7.229  -0.193 127.258  0.00  0.00    +0.046 A 
ATOM      7  C   LIG A   1      -7.950   2.225 124.403  0.00  0.00    +0.218 C 
ATOM      8  C   LIG A   1      -9.015   2.195 123.296  0.00  0.00    +0.105 C 
ATOM      9  C   LIG A   1      -9.315   0.758 122.896  0.00  0.00    +0.241 C 
ATOM     10  O   LIG A   1      -9.807   0.008 124.009  0.00  0.00    -0.491 OA
ATOM     11  C   LIG A   1      -8.281   2.931 122.237  0.00  0.00    +0.008 A 
ATOM     12  C   LIG A   1      -6.923   2.969 122.572  0.00  0.00    +0.129 A 
ATOM     13  O   LIG A   1      -6.644   2.367 123.776  0.00  0.00    -0.483 OA
ATOM     14  C   LIG A   1      -5.971   3.527 121.741  0.00  0.00    +0.095 A 
ATOM     15  C   LIG A   1      -6.452   4.065 120.563  0.00  0.00    +0.170 A 
ATOM     16  C   LIG A   1      -7.796   4.038 120.230  0.00  0.00    +0.167 A 
ATOM     17  C   LIG A   1      -8.751   3.469 121.050  0.00  0.00    +0.057 A 
ATOM     18  O   LIG A   1      -8.042   4.616 119.023  0.00  0.00    -0.453 OA
ATOM     19  C   LIG A   1      -6.713   5.024 118.639  0.00  0.00    +0.466 C 
ATOM     20  O   LIG A   1      -5.699   4.666 119.601  0.00  0.00    -0.453 OA
ENDROOT
BRANCH   1  21
ATOM     21  O   LIG A   1      -8.234  -2.233 127.887  0.00  0.00    -0.507 OA
ATOM     22  H   LIG A   1      -7.383  -2.702 127.859  0.00  0.00    +0.292 HD
ENDBRANCH   1  21
TORSDOF 1
ENDMDL
MODEL 2
REMARK VINA RESULT:      -7.7      8.985     11.117
REMARK  Name = NuBBE_2508
REMARK  1 active torsions:
REMARK  status: ('A' for Active; 'I' for Inactive)
REMARK    1  A    between atoms: O_1  and  C_2
REMARK                            x       y       z     vdW  Elec       q    Type
REMARK                         _______ _______ _______ _____ _____    ______ ____
ROOT
ATOM      1  C   LIG A   1     -12.677   8.727 128.906  0.00  0.00    +0.120 A 
ATOM      2  C   LIG A   1     -12.759   7.983 130.076  0.00  0.00    +0.091 A 
ATOM      3  C   LIG A   1     -11.652   7.245 130.495  0.00  0.00    +0.131 A 
ATOM      4  C   LIG A   1     -10.472   7.221 129.737  0.00  0.00    +0.035 A 
ATOM      5  C   LIG A   1     -10.411   7.982 128.561  0.00  0.00    +0.014 A 
ATOM      6  C   LIG A   1     -11.512   8.735 128.147  0.00  0.00    +0.046 A 
ATOM      7  C   LIG A   1      -9.315   6.348 130.145  0.00  0.00    +0.218 C 
ATOM      8  C   LIG A   1      -9.602   5.531 131.414  0.00  0.00    +0.105 C 
ATOM      9  C   LIG A   1     -10.566   6.286 132.317  0.00  0.00    +0.241 C 
ATOM     10  O   LIG A   1     -11.808   6.528 131.653  0.00  0.00    -0.491 OA
ATOM     11  C   LIG A   1      -8.231   5.474 131.978  0.00  0.00    +0.008 A 
ATOM     12  C   LIG A   1      -7.443   6.444 131.348  0.00  0.00    +0.129 A 
ATOM     13  O   LIG A   1      -8.118   7.142 130.375  0.00  0.00    -0.483 OA
ATOM     14  C   LIG A   1      -6.132   6.682 131.712  0.00  0.00    +0.095 A 
ATOM     15  C   LIG A   1      -5.642   5.886 132.727  0.00  0.00    +0.170 A 
ATOM     16  C   LIG A   1      -6.414   4.919 133.349  0.00  0.00    +0.167 A 
ATOM     17  C   LIG A   1      -7.730   4.684 133.000  0.00  0.00    +0.057 A 
ATOM     18  O   LIG A   1      -5.732   4.260 134.325  0.00  0.00    -0.453 OA
ATOM     19  C   LIG A   1      -4.443   4.903 134.240  0.00  0.00    +0.466 C 
ATOM     20  O   LIG A   1      -4.382   5.944 133.242  0.00  0.00    -0.453 OA
ENDROOT
BRANCH   1  21
ATOM     21  O   LIG A   1     -13.730   9.473 128.463  0.00  0.00    -0.507 OA
ATOM     22  H   LIG A   1     -14.276   9.719 129.229  0.00  0.00    +0.292 HD
ENDBRANCH   1  21
TORSDOF 1
ENDMDL
MODEL 3
REMARK VINA RESULT:      -7.6      2.204      7.008
REMARK  Name = NuBBE_2508
REMARK  1 active torsions:
REMARK  status: ('A' for Active; 'I' for Inactive)
REMARK    1  A    between atoms: O_1  and  C_2
REMARK                            x       y       z     vdW  Elec       q    Type
REMARK                         _______ _______ _______ _____ _____    ______ ____
ROOT
ATOM      1  C   LIG A   1      -5.996   5.171 119.103  0.00  0.00    +0.120 A 
ATOM      2  C   LIG A   1      -7.119   4.437 119.466  0.00  0.00    +0.091 A 
ATOM      3  C   LIG A   1      -7.172   3.851 120.731  0.00  0.00    +0.131 A 
ATOM      4  C   LIG A   1      -6.098   3.967 121.625  0.00  0.00    +0.035 A 
ATOM      5  C   LIG A   1      -4.976   4.714 121.239  0.00  0.00    +0.014 A 
ATOM      6  C   LIG A   1      -4.926   5.316 119.979  0.00  0.00    +0.046 A 
ATOM      7  C   LIG A   1      -6.123   3.253 122.951  0.00  0.00    +0.218 C 
ATOM      8  C   LIG A   1      -7.399   2.424 123.158  0.00  0.00    +0.105 C 
ATOM      9  C   LIG A   1      -8.566   3.063 122.421  0.00  0.00    +0.241 C 
ATOM     10  O   LIG A   1      -8.306   3.137 121.017  0.00  0.00    -0.491 OA
ATOM     11  C   LIG A   1      -7.529   2.549 124.631  0.00  0.00    +0.008 A 
ATOM     12  C   LIG A   1      -6.718   3.602 125.069  0.00  0.00    +0.129 A 
ATOM     13  O   LIG A   1      -6.008   4.196 124.054  0.00  0.00    -0.483 OA
ATOM     14  C   LIG A   1      -6.683   4.009 126.388  0.00  0.00    +0.095 A 
ATOM     15  C   LIG A   1      -7.487   3.295 127.253  0.00  0.00    +0.170 A 
ATOM     16  C   LIG A   1      -8.286   2.246 126.828  0.00  0.00    +0.167 A 
ATOM     17  C   LIG A   1      -8.337   1.842 125.508  0.00  0.00    +0.057 A 
ATOM     18  O   LIG A   1      -8.999   1.693 127.846  0.00  0.00    -0.453 OA
ATOM     19  C   LIG A   1      -8.552   2.493 128.960  0.00  0.00    +0.466 C 
ATOM     20  O   LIG A   1      -7.606   3.519 128.591  0.00  0.00    -0.453 OA
ENDROOT
BRANCH   1  21
ATOM     21  O   LIG A   1      -5.904   5.771 117.881  0.00  0.00    -0.507 OA
ATOM     22  H   LIG A   1      -6.756   5.669 117.424  0.00  0.00    +0.292 HD
ENDBRANCH   1  21
TORSDOF 1
ENDMDL
MODEL 4
REMARK VINA RESULT:      -7.5      1.888      7.032
REMARK  Name = NuBBE_2508
REMARK  1 active torsions:
REMARK  status: ('A' for Active; 'I' for Inactive)
REMARK    1  A    between atoms: O_1  and  C_2
REMARK                            x       y       z     vdW  Elec       q    Type
REMARK                         _______ _______ _______ _____ _____    ______ ____
ROOT
ATOM      1  C   LIG A   1      -4.865   5.041 121.531  0.00  0.00    +0.120 A 
ATOM      2  C   LIG A   1      -4.891   4.834 122.905  0.00  0.00    +0.091 A 
ATOM      3  C   LIG A   1      -5.715   3.837 123.429  0.00  0.00    +0.131 A 
ATOM      4  C   LIG A   1      -6.535   3.066 122.593  0.00  0.00    +0.035 A 
ATOM      5  C   LIG A   1      -6.490   3.291 121.210  0.00  0.00    +0.014 A 
ATOM      6  C   LIG A   1      -5.655   4.277 120.680  0.00  0.00    +0.046 A 
ATOM      7  C   LIG A   1      -7.492   2.058 123.174  0.00  0.00    +0.218 C 
ATOM      8  C   LIG A   1      -7.451   2.013 124.710  0.00  0.00    +0.105 C 
ATOM      9  C   LIG A   1      -6.061   2.377 125.209  0.00  0.00    +0.241 C 
ATOM     10  O   LIG A   1      -5.696   3.695 124.792  0.00  0.00    -0.491 OA
ATOM     11  C   LIG A   1      -7.765   0.578 124.916  0.00  0.00    +0.008 A 
ATOM     12  C   LIG A   1      -7.581  -0.103 123.707  0.00  0.00    +0.129 A 
ATOM     13  O   LIG A   1      -7.210   0.722 122.672  0.00  0.00    -0.483 OA
ATOM     14  C   LIG A   1      -7.727  -1.472 123.599  0.00  0.00    +0.095 A 
ATOM     15  C   LIG A   1      -8.086  -2.125 124.761  0.00  0.00    +0.170 A 
ATOM     16  C   LIG A   1      -8.277  -1.456 125.959  0.00  0.00    +0.167 A 
ATOM     17  C   LIG A   1      -8.119  -0.090 126.077  0.00  0.00    +0.057 A 
ATOM     18  O   LIG A   1      -8.617  -2.298 126.973  0.00  0.00    -0.453 OA
ATOM     19  C   LIG A   1      -8.637  -3.565 126.283  0.00  0.00    +0.466 C 
ATOM     20  O   LIG A   1      -8.287  -3.467 124.886  0.00  0.00    -0.453 OA
ENDROOT
BRANCH   1  21
ATOM     21  O   LIG A   1      -4.066   5.996 120.973  0.00  0.00    -0.507 OA
ATOM     22  H   LIG A   1      -4.458   6.868 121.152  0.00  0.00    +0.292 HD
ENDBRANCH   1  21
TORSDOF 1
ENDMDL
MODEL 5
REMARK VINA RESULT:      -7.5      9.086     11.360
REMARK  Name = NuBBE_2508
REMARK  1 active torsions:
REMARK  status: ('A' for Active; 'I' for Inactive)
REMARK    1  A    between atoms: O_1  and  C_2
REMARK                            x       y       z     vdW  Elec       q    Type
REMARK                         _______ _______ _______ _____ _____    ______ ____
ROOT
ATOM      1  C   LIG A   1     -12.193   7.842 129.464  0.00  0.00    +0.120 A 
ATOM      2  C   LIG A   1     -10.812   7.903 129.319  0.00  0.00    +0.091 A 
ATOM      3  C   LIG A   1      -9.999   7.262 130.254  0.00  0.00    +0.131 A 
ATOM      4  C   LIG A   1     -10.554   6.584 131.348  0.00  0.00    +0.035 A 
ATOM      5  C   LIG A   1     -11.950   6.533 131.474  0.00  0.00    +0.014 A 
ATOM      6  C   LIG A   1     -12.768   7.161 130.531  0.00  0.00    +0.046 A 
ATOM      7  C   LIG A   1      -9.668   5.975 132.404  0.00  0.00    +0.218 C 
ATOM      8  C   LIG A   1      -8.173   6.204 132.132  0.00  0.00    +0.105 C 
ATOM      9  C   LIG A   1      -7.919   6.288 130.635  0.00  0.00    +0.241 C 
ATOM     10  O   LIG A   1      -8.648   7.371 130.052  0.00  0.00    -0.491 OA
ATOM     11  C   LIG A   1      -7.629   4.957 132.725  0.00  0.00    +0.008 A 
ATOM     12  C   LIG A   1      -8.675   4.043 132.894  0.00  0.00    +0.129 A 
ATOM     13  O   LIG A   1      -9.898   4.543 132.514  0.00  0.00    -0.483 OA
ATOM     14  C   LIG A   1      -8.468   2.759 133.360  0.00  0.00    +0.095 A 
ATOM     15  C   LIG A   1      -7.160   2.443 133.669  0.00  0.00    +0.170 A 
ATOM     16  C   LIG A   1      -6.122   3.346 133.513  0.00  0.00    +0.167 A 
ATOM     17  C   LIG A   1      -6.319   4.626 133.033  0.00  0.00    +0.057 A 
ATOM     18  O   LIG A   1      -4.919   2.819 133.870  0.00  0.00    -0.453 OA
ATOM     19  C   LIG A   1      -5.312   1.494 134.284  0.00  0.00    +0.466 C 
ATOM     20  O   LIG A   1      -6.727   1.243 134.146  0.00  0.00    -0.453 OA
ENDROOT
BRANCH   1  21
ATOM     21  O   LIG A   1     -13.028   8.445 128.570  0.00  0.00    -0.507 OA
ATOM     22  H   LIG A   1     -13.250   7.803 127.875  0.00  0.00    +0.292 HD
ENDBRANCH   1  21
TORSDOF 1
ENDMDL
MODEL 6
REMARK VINA RESULT:      -7.4      8.692      9.495
REMARK  Name = NuBBE_2508
REMARK  1 active torsions:
REMARK  status: ('A' for Active; 'I' for Inactive)
REMARK    1  A    between atoms: O_1  and  C_2
REMARK                            x       y       z     vdW  Elec       q    Type
REMARK                         _______ _______ _______ _____ _____    ______ ____
ROOT
ATOM      1  C   LIG A   1      -4.545   4.519 132.294  0.00  0.00    +0.120 A 
ATOM      2  C   LIG A   1      -5.744   3.817 132.288  0.00  0.00    +0.091 A 
ATOM      3  C   LIG A   1      -6.933   4.498 132.028  0.00  0.00    +0.131 A 
ATOM      4  C   LIG A   1      -6.937   5.882 131.803  0.00  0.00    +0.035 A 
ATOM      5  C   LIG A   1      -5.714   6.570 131.810  0.00  0.00    +0.014 A 
ATOM      6  C   LIG A   1      -4.521   5.888 132.055  0.00  0.00    +0.046 A 
ATOM      7  C   LIG A   1      -8.233   6.627 131.617  0.00  0.00    +0.218 C 
ATOM      8  C   LIG A   1      -9.465   5.714 131.720  0.00  0.00    +0.105 C 
ATOM      9  C   LIG A   1      -9.118   4.310 131.248  0.00  0.00    +0.241 C 
ATOM     10  O   LIG A   1      -8.077   3.744 132.047  0.00  0.00    -0.491 OA
ATOM     11  C   LIG A   1     -10.365   6.419 130.774  0.00  0.00    +0.008 A 
ATOM     12  C   LIG A   1      -9.602   7.294 129.992  0.00  0.00    +0.129 A 
ATOM     13  O   LIG A   1      -8.269   7.297 130.326  0.00  0.00    -0.483 OA
ATOM     14  C   LIG A   1     -10.151   8.040 128.967  0.00  0.00    +0.095 A 
ATOM     15  C   LIG A   1     -11.509   7.881 128.777  0.00  0.00    +0.170 A 
ATOM     16  C   LIG A   1     -12.271   7.023 129.553  0.00  0.00    +0.167 A 
ATOM     17  C   LIG A   1     -11.726   6.263 130.570  0.00  0.00    +0.057 A 
ATOM     18  O   LIG A   1     -13.581   7.018 129.185  0.00  0.00    -0.453 OA
ATOM     19  C   LIG A   1     -13.567   7.976 128.107  0.00  0.00    +0.466 C 
ATOM     20  O   LIG A   1     -12.257   8.516 127.832  0.00  0.00    -0.453 OA
ENDROOT
BRANCH   1  21
ATOM     21  O   LIG A   1      -3.357   3.892 132.533  0.00  0.00    -0.507 OA
ATOM     22  H   LIG A   1      -3.530   3.093 133.057  0.00  0.00    +0.292 HD
ENDBRANCH   1  21
TORSDOF 1
ENDMDL
MODEL 7
REMARK VINA RESULT:      -7.3      7.702     10.433
REMARK  Name = NuBBE_2508
REMARK  1 active torsions:
REMARK  status: ('A' for Active; 'I' for Inactive)
REMARK    1  A    between atoms: O_1  and  C_2
REMARK                            x       y       z     vdW  Elec       q    Type
REMARK                         _______ _______ _______ _____ _____    ______ ____
ROOT
ATOM      1  C   LIG A   1     -12.975   9.182 128.902  0.00  0.00    +0.120 A 
ATOM      2  C   LIG A   1     -12.864   8.710 130.204  0.00  0.00    +0.091 A 
ATOM      3  C   LIG A   1     -12.191   7.512 130.441  0.00  0.00    +0.131 A 
ATOM      4  C   LIG A   1     -11.653   6.765 129.383  0.00  0.00    +0.035 A 
ATOM      5  C   LIG A   1     -11.775   7.262 128.077  0.00  0.00    +0.014 A 
ATOM      6  C   LIG A   1     -12.434   8.469 127.838  0.00  0.00    +0.046 A 
ATOM      7  C   LIG A   1     -11.011   5.426 129.636  0.00  0.00    +0.218 C 
ATOM      8  C   LIG A   1     -11.045   5.019 131.117  0.00  0.00    +0.105 C 
ATOM      9  C   LIG A   1     -11.005   6.256 132.002  0.00  0.00    +0.241 C 
ATOM     10  O   LIG A   1     -12.127   7.104 131.748  0.00  0.00    -0.491 OA
ATOM     11  C   LIG A   1      -9.782   4.242 131.181  0.00  0.00    +0.008 A 
ATOM     12  C   LIG A   1      -9.010   4.543 130.053  0.00  0.00    +0.129 A 
ATOM     13  O   LIG A   1      -9.625   5.420 129.193  0.00  0.00    -0.483 OA
ATOM     14  C   LIG A   1      -7.742   4.026 129.865  0.00  0.00    +0.095 A 
ATOM     15  C   LIG A   1      -7.294   3.176 130.856  0.00  0.00    +0.170 A 
ATOM     16  C   LIG A   1      -8.057   2.869 131.970  0.00  0.00    +0.167 A 
ATOM     17  C   LIG A   1      -9.319   3.392 132.172  0.00  0.00    +0.057 A 
ATOM     18  O   LIG A   1      -7.415   2.020 132.819  0.00  0.00    -0.453 OA
ATOM     19  C   LIG A   1      -6.174   1.812 132.113  0.00  0.00    +0.466 C 
ATOM     20  O   LIG A   1      -6.083   2.552 130.877  0.00  0.00    -0.453 OA
ENDROOT
BRANCH   1  21
ATOM     21  O   LIG A   1     -13.615  10.354 128.623  0.00  0.00    -0.507 OA
ATOM     22  H   LIG A   1     -14.463  10.148 128.194  0.00  0.00    +0.292 HD
ENDBRANCH   1  21
TORSDOF 1
ENDMDL
MODEL 8
REMARK VINA RESULT:      -7.1      7.129     10.220
REMARK  Name = NuBBE_2508
REMARK  1 active torsions:
REMARK  status: ('A' for Active; 'I' for Inactive)
REMARK    1  A    between atoms: O_1  and  C_2
REMARK                            x       y       z     vdW  Elec       q    Type
REMARK                         _______ _______ _______ _____ _____    ______ ____
ROOT
ATOM      1  C   LIG A   1     -12.596   9.060 129.119  0.00  0.00    +0.120 A 
ATOM      2  C   LIG A   1     -11.508   8.550 128.420  0.00  0.00    +0.091 A 
ATOM      3  C   LIG A   1     -10.751   7.526 128.989  0.00  0.00    +0.131 A 
ATOM      4  C   LIG A   1     -11.055   7.027 130.264  0.00  0.00    +0.035 A 
ATOM      5  C   LIG A   1     -12.159   7.554 130.950  0.00  0.00    +0.014 A 
ATOM      6  C   LIG A   1     -12.929   8.569 130.376  0.00  0.00    +0.046 A 
ATOM      7  C   LIG A   1     -10.177   5.988 130.911  0.00  0.00    +0.218 C 
ATOM      8  C   LIG A   1      -8.975   5.596 130.038  0.00  0.00    +0.105 C 
ATOM      9  C   LIG A   1      -9.329   5.732 128.565  0.00  0.00    +0.241 C 
ATOM     10  O   LIG A   1      -9.689   7.078 128.248  0.00  0.00    -0.491 OA
ATOM     11  C   LIG A   1      -8.831   4.178 130.453  0.00  0.00    +0.008 A 
ATOM     12  C   LIG A   1     -10.004   3.776 131.102  0.00  0.00    +0.129 A 
ATOM     13  O   LIG A   1     -10.933   4.783 131.215  0.00  0.00    -0.483 OA
ATOM     14  C   LIG A   1     -10.200   2.481 131.541  0.00  0.00    +0.095 A 
ATOM     15  C   LIG A   1      -9.152   1.611 131.314  0.00  0.00    +0.170 A 
ATOM     16  C   LIG A   1      -7.985   2.005 130.680  0.00  0.00    +0.167 A 
ATOM     17  C   LIG A   1      -7.788   3.294 130.226  0.00  0.00    +0.057 A 
ATOM     18  O   LIG A   1      -7.094   0.984 130.556  0.00  0.00    -0.453 OA
ATOM     19  C   LIG A   1      -7.815  -0.089 131.195  0.00  0.00    +0.466 C 
ATOM     20  O   LIG A   1      -9.125   0.295 131.665  0.00  0.00    -0.453 OA
ENDROOT
BRANCH   1  21
ATOM     21  O   LIG A   1     -13.372  10.054 128.598  0.00  0.00    -0.507 OA
ATOM     22  H   LIG A   1     -12.794  10.790 128.336  0.00  0.00    +0.292 HD
ENDBRANCH   1  21
TORSDOF 1
ENDMDL
MODEL 9
REMARK VINA RESULT:      -7.1      1.406      7.183
REMARK  Name = NuBBE_2508
REMARK  1 active torsions:
REMARK  status: ('A' for Active; 'I' for Inactive)
REMARK    1  A    between atoms: O_1  and  C_2
REMARK                            x       y       z     vdW  Elec       q    Type
REMARK                         _______ _______ _______ _____ _____    ______ ____
ROOT
ATOM      1  C   LIG A   1      -6.345   5.081 118.927  0.00  0.00    +0.120 A 
ATOM      2  C   LIG A   1      -5.640   4.882 120.108  0.00  0.00    +0.091 A 
ATOM      3  C   LIG A   1      -6.258   4.218 121.168  0.00  0.00    +0.131 A 
ATOM      4  C   LIG A   1      -7.585   3.776 121.066  0.00  0.00    +0.035 A 
ATOM      5  C   LIG A   1      -8.276   3.985 119.864  0.00  0.00    +0.014 A 
ATOM      6  C   LIG A   1      -7.655   4.635 118.796  0.00  0.00    +0.046 A 
ATOM      7  C   LIG A   1      -8.276   3.144 122.247  0.00  0.00    +0.218 C 
ATOM      8  C   LIG A   1      -7.382   3.075 123.494  0.00  0.00    +0.105 C 
ATOM      9  C   LIG A   1      -5.922   2.944 123.087  0.00  0.00    +0.241 C 
ATOM     10  O   LIG A   1      -5.506   4.065 122.303  0.00  0.00    -0.491 OA
ATOM     11  C   LIG A   1      -7.911   1.828 124.099  0.00  0.00    +0.008 A 
ATOM     12  C   LIG A   1      -8.650   1.136 123.133  0.00  0.00    +0.129 A 
ATOM     13  O   LIG A   1      -8.721   1.796 121.930  0.00  0.00    -0.483 OA
ATOM     14  C   LIG A   1      -9.210  -0.103 123.377  0.00  0.00    +0.095 A 
ATOM     15  C   LIG A   1      -9.008  -0.607 124.647  0.00  0.00    +0.170 A 
ATOM     16  C   LIG A   1      -8.285   0.076 125.609  0.00  0.00    +0.167 A 
ATOM     17  C   LIG A   1      -7.710   1.309 125.368  0.00  0.00    +0.057 A 
ATOM     18  O   LIG A   1      -8.206  -0.610 126.782  0.00  0.00    -0.453 OA
ATOM     19  C   LIG A   1      -8.971  -1.790 126.461  0.00  0.00    +0.466 C 
ATOM     20  O   LIG A   1      -9.470  -1.803 125.107  0.00  0.00    -0.453 OA
ENDROOT
BRANCH   1  21
ATOM     21  O   LIG A   1      -5.778   5.716 117.860  0.00  0.00    -0.507 OA
ATOM     22  H   LIG A   1      -6.286   6.525 117.679  0.00  0.00    +0.292 HD
ENDBRANCH   1  21
TORSDOF 1
ENDMDL
