MODEL 1
REMARK VINA RESULT:      -7.6      0.000      0.000
REMARK  Name = NuBBE_313
REMARK  22 active torsions:
REMARK  status: ('A' for Active; 'I' for Inactive)
REMARK    1  A    between atoms: C_3  and  C_4
REMARK    2  A    between atoms: C_5  and  O_6
REMARK    3  A    between atoms: O_6  and  C_7
REMARK    4  A    between atoms: C_7  and  C_8
REMARK    5  A    between atoms: C_9  and  C_10
REMARK    6  A    between atoms: C_13  and  O_14
REMARK    7  A    between atoms: C_15  and  O_16
REMARK    8  A    between atoms: O_16  and  C_17
REMARK    9  A    between atoms: C_22  and  C_23
REMARK   10  A    between atoms: C_23  and  C_24
REMARK   11  A    between atoms: C_24  and  C_25
REMARK   12  A    between atoms: C_25  and  C_26
REMARK   13  A    between atoms: C_26  and  C_27
REMARK   14  A    between atoms: C_27  and  C_28
REMARK   15  A    between atoms: C_28  and  C_29
REMARK   16  A    between atoms: C_29  and  C_30
REMARK   17  A    between atoms: C_30  and  C_31
REMARK   18  A    between atoms: C_31  and  C_32
REMARK   19  A    between atoms: C_32  and  C_33
REMARK   20  A    between atoms: C_33  and  C_34
REMARK   21  A    between atoms: C_34  and  C_35
REMARK   22  A    between atoms: C_35  and  C_36
REMARK                            x       y       z     vdW  Elec       q    Type
REMARK                         _______ _______ _______ _____ _____    ______ ____
ROOT
ATOM      1  H   LIG A   1      -6.297  -2.388 126.487  0.00  0.00    +0.123 HD
ATOM      2  N   LIG A   1      -6.888  -2.416 125.656  0.00  0.00    -0.307 NA
ATOM      3  C   LIG A   1      -7.544  -1.161 125.455  0.00  0.00    +0.092 C 
ATOM      4  C   LIG A   1      -6.536  -0.023 125.632  0.00  0.00    +0.028 C 
ATOM      5  C   LIG A   1      -8.366  -1.193 124.122  0.00  0.00    +0.193 C 
ATOM      6  C   LIG A   1      -9.001  -2.580 123.738  0.00  0.00    +0.048 C 
ATOM      7  C   LIG A   1      -8.327  -3.798 124.321  0.00  0.00    +0.022 C 
ATOM      8  C   LIG A   1      -7.935  -3.446 125.722  0.00  0.00    +0.054 C 
ENDROOT
BRANCH   8   9
ATOM      9  C   LIG A   1      -9.037  -3.449 126.818  0.00  0.00    +0.019 C 
BRANCH   9  10
ATOM     10  C   LIG A   1      -8.705  -3.530 128.464  0.00  0.00    +0.002 C 
BRANCH  10  11
ATOM     11  C   LIG A   1      -7.286  -3.288 129.328  0.00  0.00    +0.000 C 
BRANCH  11  12
ATOM     12  C   LIG A   1      -6.841  -1.975 129.988  0.00  0.00    -0.000 C 
BRANCH  12  13
ATOM     13  C   LIG A   1      -8.077  -1.074 130.475  0.00  0.00    -0.000 C 
BRANCH  13  14
ATOM     14  C   LIG A   1      -7.909   0.110 131.489  0.00  0.00    -0.000 C 
BRANCH  14  15
ATOM     15  C   LIG A   1      -9.148   0.767 132.158  0.00  0.00    -0.000 C 
BRANCH  15  16
ATOM     16  C   LIG A   1      -9.928   1.945 131.525  0.00  0.00    -0.000 C 
BRANCH  16  17
ATOM     17  C   LIG A   1      -9.332   2.732 130.386  0.00  0.00    +0.000 C 
BRANCH  17  18
ATOM     18  C   LIG A   1      -9.972   4.231 130.242  0.00  0.00    +0.000 C 
BRANCH  18  19
ATOM     19  C   LIG A   1      -9.763   5.292 131.296  0.00  0.00    +0.007 C 
BRANCH  19  20
ATOM     20  C   LIG A   1     -10.599   6.616 131.023  0.00  0.00    +0.074 C 
BRANCH  20  21
ATOM     21  C   LIG A   1     -12.078   6.683 130.777  0.00  0.00    +0.130 C 
ATOM     22  C   LIG A   1     -12.595   6.651 129.400  0.00  0.00    +0.086 C 
ATOM     23  O   LIG A   1     -12.864   6.841 131.721  0.00  0.00    -0.298 OA
ENDBRANCH  20  21
ENDBRANCH  19  20
ENDBRANCH  18  19
ENDBRANCH  17  18
ENDBRANCH  16  17
ENDBRANCH  15  16
ENDBRANCH  14  15
ENDBRANCH  13  14
ENDBRANCH  12  13
ENDBRANCH  11  12
ENDBRANCH  10  11
ENDBRANCH   9  10
ENDBRANCH   8   9
BRANCH   5  24
ATOM     24  O   LIG A   1      -9.512  -0.350 124.334  0.00  0.00    -0.457 OA
BRANCH  24  25
ATOM     25  C   LIG A   1      -9.726   0.552 123.308  0.00  0.00    +0.332 C 
ATOM     26  O   LIG A   1     -10.581   0.539 122.534  0.00  0.00    -0.246 OA
BRANCH  25  27
ATOM     27  C   LIG A   1      -8.474   1.388 123.249  0.00  0.00    +0.092 C 
ATOM     28  C   LIG A   1      -8.473   2.440 122.429  0.00  0.00    +0.015 C 
BRANCH  28  29
ATOM     29  C   LIG A   1      -7.316   3.310 122.179  0.00  0.00    -0.021 A 
ATOM     30  C   LIG A   1      -6.390   3.533 123.199  0.00  0.00    +0.012 A 
ATOM     31  C   LIG A   1      -5.233   4.277 122.960  0.00  0.00    +0.050 A 
ATOM     32  C   LIG A   1      -4.986   4.793 121.685  0.00  0.00    +0.159 A 
ATOM     33  C   LIG A   1      -5.897   4.566 120.643  0.00  0.00    +0.162 A 
ATOM     34  C   LIG A   1      -7.062   3.835 120.915  0.00  0.00    +0.057 A 
BRANCH  32  35
ATOM     35  O   LIG A   1      -3.823   5.480 121.466  0.00  0.00    -0.503 OA
ATOM     36  H   LIG A   1      -3.992   6.176 120.808  0.00  0.00    +0.292 HD
ENDBRANCH  32  35
BRANCH  33  37
ATOM     37  O   LIG A   1      -5.627   5.046 119.382  0.00  0.00    -0.491 OA
ATOM     38  C   LIG A   1      -6.695   4.853 118.448  0.00  0.00    +0.277 C 
ENDBRANCH  33  37
ENDBRANCH  28  29
ENDBRANCH  25  27
ENDBRANCH  24  25
ENDBRANCH   5  24
TORSDOF 19
ENDMDL
MODEL 2
REMARK VINA RESULT:      -7.5      4.172      9.132
REMARK  Name = NuBBE_313
REMARK  22 active torsions:
REMARK  status: ('A' for Active; 'I' for Inactive)
REMARK    1  A    between atoms: C_3  and  C_4
REMARK    2  A    between atoms: C_5  and  O_6
REMARK    3  A    between atoms: O_6  and  C_7
REMARK    4  A    between atoms: C_7  and  C_8
REMARK    5  A    between atoms: C_9  and  C_10
REMARK    6  A    between atoms: C_13  and  O_14
REMARK    7  A    between atoms: C_15  and  O_16
REMARK    8  A    between atoms: O_16  and  C_17
REMARK    9  A    between atoms: C_22  and  C_23
REMARK   10  A    between atoms: C_23  and  C_24
REMARK   11  A    between atoms: C_24  and  C_25
REMARK   12  A    between atoms: C_25  and  C_26
REMARK   13  A    between atoms: C_26  and  C_27
REMARK   14  A    between atoms: C_27  and  C_28
REMARK   15  A    between atoms: C_28  and  C_29
REMARK   16  A    between atoms: C_29  and  C_30
REMARK   17  A    between atoms: C_30  and  C_31
REMARK   18  A    between atoms: C_31  and  C_32
REMARK   19  A    between atoms: C_32  and  C_33
REMARK   20  A    between atoms: C_33  and  C_34
REMARK   21  A    between atoms: C_34  and  C_35
REMARK   22  A    between atoms: C_35  and  C_36
REMARK                            x       y       z     vdW  Elec       q    Type
REMARK                         _______ _______ _______ _____ _____    ______ ____
ROOT
ATOM      1  H   LIG A   1      -7.624   0.805 128.521  0.00  0.00    +0.123 HD
ATOM      2  N   LIG A   1      -8.090   0.890 129.424  0.00  0.00    -0.307 NA
ATOM      3  C   LIG A   1      -7.992   2.226 129.924  0.00  0.00    +0.092 C 
ATOM      4  C   LIG A   1      -8.319   3.217 128.805  0.00  0.00    +0.028 C 
ATOM      5  C   LIG A   1      -8.798   2.359 131.261  0.00  0.00    +0.193 C 
ATOM      6  C   LIG A   1      -8.821   1.083 132.181  0.00  0.00    +0.048 C 
ATOM      7  C   LIG A   1      -8.588  -0.235 131.485  0.00  0.00    +0.022 C 
ATOM      8  C   LIG A   1      -7.531   0.000 130.452  0.00  0.00    +0.054 C 
ENDROOT
BRANCH   8   9
ATOM      9  C   LIG A   1      -6.052   0.090 130.921  0.00  0.00    +0.019 C 
BRANCH   9  10
ATOM     10  C   LIG A   1      -5.261  -1.153 131.731  0.00  0.00    +0.002 C 
BRANCH  10  11
ATOM     11  C   LIG A   1      -3.911  -2.066 131.325  0.00  0.00    +0.000 C 
BRANCH  11  12
ATOM     12  C   LIG A   1      -3.877  -3.242 130.340  0.00  0.00    -0.000 C 
BRANCH  12  13
ATOM     13  C   LIG A   1      -5.063  -4.294 130.586  0.00  0.00    -0.000 C 
BRANCH  13  14
ATOM     14  C   LIG A   1      -6.521  -4.059 130.062  0.00  0.00    -0.000 C 
BRANCH  14  15
ATOM     15  C   LIG A   1      -6.799  -3.067 128.898  0.00  0.00    -0.000 C 
BRANCH  15  16
ATOM     16  C   LIG A   1      -8.175  -2.943 128.201  0.00  0.00    -0.000 C 
BRANCH  16  17
ATOM     17  C   LIG A   1      -8.287  -2.317 126.835  0.00  0.00    +0.000 C 
BRANCH  17  18
ATOM     18  C   LIG A   1      -9.419  -3.031 125.895  0.00  0.00    +0.000 C 
BRANCH  18  19
ATOM     19  C   LIG A   1      -9.173  -3.327 124.435  0.00  0.00    +0.007 C 
BRANCH  19  20
ATOM     20  C   LIG A   1      -8.280  -2.225 123.716  0.00  0.00    +0.074 C 
BRANCH  20  21
ATOM     21  C   LIG A   1      -6.817  -2.350 123.407  0.00  0.00    +0.130 C 
ATOM     22  C   LIG A   1      -5.993  -3.326 124.137  0.00  0.00    +0.086 C 
ATOM     23  O   LIG A   1      -6.280  -1.583 122.596  0.00  0.00    -0.298 OA
ENDBRANCH  20  21
ENDBRANCH  19  20
ENDBRANCH  18  19
ENDBRANCH  17  18
ENDBRANCH  16  17
ENDBRANCH  15  16
ENDBRANCH  14  15
ENDBRANCH  13  14
ENDBRANCH  12  13
ENDBRANCH  11  12
ENDBRANCH  10  11
ENDBRANCH   9  10
ENDBRANCH   8   9
BRANCH   5  24
ATOM     24  O   LIG A   1      -8.100   3.331 132.058  0.00  0.00    -0.457 OA
BRANCH  24  25
ATOM     25  C   LIG A   1      -8.944   4.185 132.745  0.00  0.00    +0.332 C 
ATOM     26  O   LIG A   1      -9.362   4.046 133.811  0.00  0.00    -0.246 OA
BRANCH  25  27
ATOM     27  C   LIG A   1      -9.412   5.186 131.722  0.00  0.00    +0.092 C 
ATOM     28  C   LIG A   1     -10.562   5.820 131.958  0.00  0.00    +0.015 C 
BRANCH  28  29
ATOM     29  C   LIG A   1     -11.211   6.758 131.033  0.00  0.00    -0.021 A 
ATOM     30  C   LIG A   1     -12.410   7.369 131.403  0.00  0.00    +0.012 A 
ATOM     31  C   LIG A   1     -12.999   8.335 130.585  0.00  0.00    +0.050 A 
ATOM     32  C   LIG A   1     -12.377   8.711 129.391  0.00  0.00    +0.159 A 
ATOM     33  C   LIG A   1     -11.164   8.120 129.009  0.00  0.00    +0.162 A 
ATOM     34  C   LIG A   1     -10.606   7.135 129.837  0.00  0.00    +0.057 A 
BRANCH  32  35
ATOM     35  O   LIG A   1     -12.952   9.692 128.629  0.00  0.00    -0.503 OA
ATOM     36  H   LIG A   1     -13.247   9.301 127.789  0.00  0.00    +0.292 HD
ENDBRANCH  32  35
BRANCH  33  37
ATOM     37  O   LIG A   1     -10.542   8.522 127.850  0.00  0.00    -0.491 OA
ATOM     38  C   LIG A   1     -10.772   7.651 126.737  0.00  0.00    +0.277 C 
ENDBRANCH  33  37
ENDBRANCH  28  29
ENDBRANCH  25  27
ENDBRANCH  24  25
ENDBRANCH   5  24
TORSDOF 19
ENDMDL
MODEL 3
REMARK VINA RESULT:      -7.5      3.684      8.846
REMARK  Name = NuBBE_313
REMARK  22 active torsions:
REMARK  status: ('A' for Active; 'I' for Inactive)
REMARK    1  A    between atoms: C_3  and  C_4
REMARK    2  A    between atoms: C_5  and  O_6
REMARK    3  A    between atoms: O_6  and  C_7
REMARK    4  A    between atoms: C_7  and  C_8
REMARK    5  A    between atoms: C_9  and  C_10
REMARK    6  A    between atoms: C_13  and  O_14
REMARK    7  A    between atoms: C_15  and  O_16
REMARK    8  A    between atoms: O_16  and  C_17
REMARK    9  A    between atoms: C_22  and  C_23
REMARK   10  A    between atoms: C_23  and  C_24
REMARK   11  A    between atoms: C_24  and  C_25
REMARK   12  A    between atoms: C_25  and  C_26
REMARK   13  A    between atoms: C_26  and  C_27
REMARK   14  A    between atoms: C_27  and  C_28
REMARK   15  A    between atoms: C_28  and  C_29
REMARK   16  A    between atoms: C_29  and  C_30
REMARK   17  A    between atoms: C_30  and  C_31
REMARK   18  A    between atoms: C_31  and  C_32
REMARK   19  A    between atoms: C_32  and  C_33
REMARK   20  A    between atoms: C_33  and  C_34
REMARK   21  A    between atoms: C_34  and  C_35
REMARK   22  A    between atoms: C_35  and  C_36
REMARK                            x       y       z     vdW  Elec       q    Type
REMARK                         _______ _______ _______ _____ _____    ______ ____
ROOT
ATOM      1  H   LIG A   1      -8.123  -2.030 121.718  0.00  0.00    +0.123 HD
ATOM      2  N   LIG A   1      -7.613  -2.323 122.551  0.00  0.00    -0.307 NA
ATOM      3  C   LIG A   1      -8.495  -2.448 123.670  0.00  0.00    +0.092 C 
ATOM      4  C   LIG A   1      -9.755  -3.205 123.246  0.00  0.00    +0.028 C 
ATOM      5  C   LIG A   1      -7.711  -2.995 124.911  0.00  0.00    +0.193 C 
ATOM      6  C   LIG A   1      -6.209  -2.543 125.032  0.00  0.00    +0.048 C 
ATOM      7  C   LIG A   1      -5.536  -2.143 123.741  0.00  0.00    +0.022 C 
ATOM      8  C   LIG A   1      -6.549  -1.386 122.941  0.00  0.00    +0.054 C 
ENDROOT
BRANCH   8   9
ATOM      9  C   LIG A   1      -6.837   0.092 123.326  0.00  0.00    +0.019 C 
BRANCH   9  10
ATOM     10  C   LIG A   1      -8.375   0.771 123.306  0.00  0.00    +0.002 C 
BRANCH  10  11
ATOM     11  C   LIG A   1      -9.355   1.347 124.540  0.00  0.00    +0.000 C 
BRANCH  11  12
ATOM     12  C   LIG A   1      -9.629   0.648 125.879  0.00  0.00    -0.000 C 
BRANCH  12  13
ATOM     13  C   LIG A   1      -8.604   1.088 127.032  0.00  0.00    -0.000 C 
BRANCH  13  14
ATOM     14  C   LIG A   1      -7.380   2.028 126.759  0.00  0.00    -0.000 C 
BRANCH  14  15
ATOM     15  C   LIG A   1      -7.589   3.535 126.442  0.00  0.00    -0.000 C 
BRANCH  15  16
ATOM     16  C   LIG A   1      -6.553   4.391 125.675  0.00  0.00    -0.000 C 
BRANCH  16  17
ATOM     17  C   LIG A   1      -5.600   3.748 124.700  0.00  0.00    +0.000 C 
BRANCH  17  18
ATOM     18  C   LIG A   1      -6.222   3.613 123.194  0.00  0.00    +0.000 C 
BRANCH  18  19
ATOM     19  C   LIG A   1      -5.442   4.026 121.969  0.00  0.00    +0.007 C 
BRANCH  19  20
ATOM     20  C   LIG A   1      -6.084   3.502 120.613  0.00  0.00    +0.074 C 
BRANCH  20  21
ATOM     21  C   LIG A   1      -7.181   4.180 119.845  0.00  0.00    +0.130 C 
ATOM     22  C   LIG A   1      -8.587   3.936 120.204  0.00  0.00    +0.086 C 
ATOM     23  O   LIG A   1      -6.916   4.883 118.861  0.00  0.00    -0.298 OA
ENDBRANCH  20  21
ENDBRANCH  19  20
ENDBRANCH  18  19
ENDBRANCH  17  18
ENDBRANCH  16  17
ENDBRANCH  15  16
ENDBRANCH  14  15
ENDBRANCH  13  14
ENDBRANCH  12  13
ENDBRANCH  11  12
ENDBRANCH  10  11
ENDBRANCH   9  10
ENDBRANCH   8   9
BRANCH   5  24
ATOM     24  O   LIG A   1      -8.329  -2.407 126.069  0.00  0.00    -0.457 OA
BRANCH  24  25
ATOM     25  C   LIG A   1      -9.130  -3.290 126.771  0.00  0.00    +0.332 C 
ATOM     26  O   LIG A   1     -10.245  -3.518 126.588  0.00  0.00    -0.246 OA
BRANCH  25  27
ATOM     27  C   LIG A   1      -8.320  -3.684 127.979  0.00  0.00    +0.092 C 
ATOM     28  C   LIG A   1      -7.685  -2.715 128.640  0.00  0.00    +0.015 C 
BRANCH  28  29
ATOM     29  C   LIG A   1      -6.784  -2.925 129.781  0.00  0.00    -0.021 A 
ATOM     30  C   LIG A   1      -7.320  -3.094 131.058  0.00  0.00    +0.012 A 
ATOM     31  C   LIG A   1      -6.493  -3.391 132.144  0.00  0.00    +0.050 A 
ATOM     32  C   LIG A   1      -5.116  -3.537 131.953  0.00  0.00    +0.159 A 
ATOM     33  C   LIG A   1      -4.561  -3.386 130.673  0.00  0.00    +0.162 A 
ATOM     34  C   LIG A   1      -5.410  -3.066 129.605  0.00  0.00    +0.057 A 
BRANCH  32  35
ATOM     35  O   LIG A   1      -4.335  -3.871 133.024  0.00  0.00    -0.503 OA
ATOM     36  H   LIG A   1      -4.906  -4.220 133.730  0.00  0.00    +0.292 HD
ENDBRANCH  32  35
BRANCH  33  37
ATOM     37  O   LIG A   1      -3.210  -3.568 130.489  0.00  0.00    -0.491 OA
ATOM     38  C   LIG A   1      -2.831  -3.741 129.119  0.00  0.00    +0.277 C 
ENDBRANCH  33  37
ENDBRANCH  28  29
ENDBRANCH  25  27
ENDBRANCH  24  25
ENDBRANCH   5  24
TORSDOF 19
ENDMDL
MODEL 4
REMARK VINA RESULT:      -7.5      4.730      9.519
REMARK  Name = NuBBE_313
REMARK  22 active torsions:
REMARK  status: ('A' for Active; 'I' for Inactive)
REMARK    1  A    between atoms: C_3  and  C_4
REMARK    2  A    between atoms: C_5  and  O_6
REMARK    3  A    between atoms: O_6  and  C_7
REMARK    4  A    between atoms: C_7  and  C_8
REMARK    5  A    between atoms: C_9  and  C_10
REMARK    6  A    between atoms: C_13  and  O_14
REMARK    7  A    between atoms: C_15  and  O_16
REMARK    8  A    between atoms: O_16  and  C_17
REMARK    9  A    between atoms: C_22  and  C_23
REMARK   10  A    between atoms: C_23  and  C_24
REMARK   11  A    between atoms: C_24  and  C_25
REMARK   12  A    between atoms: C_25  and  C_26
REMARK   13  A    between atoms: C_26  and  C_27
REMARK   14  A    between atoms: C_27  and  C_28
REMARK   15  A    between atoms: C_28  and  C_29
REMARK   16  A    between atoms: C_29  and  C_30
REMARK   17  A    between atoms: C_30  and  C_31
REMARK   18  A    between atoms: C_31  and  C_32
REMARK   19  A    between atoms: C_32  and  C_33
REMARK   20  A    between atoms: C_33  and  C_34
REMARK   21  A    between atoms: C_34  and  C_35
REMARK   22  A    between atoms: C_35  and  C_36
REMARK                            x       y       z     vdW  Elec       q    Type
REMARK                         _______ _______ _______ _____ _____    ______ ____
ROOT
ATOM      1  H   LIG A   1      -1.021   5.874 129.530  0.00  0.00    +0.123 HD
ATOM      2  N   LIG A   1      -1.817   6.470 129.756  0.00  0.00    -0.307 NA
ATOM      3  C   LIG A   1      -2.668   5.839 130.718  0.00  0.00    +0.092 C 
ATOM      4  C   LIG A   1      -1.818   5.249 131.844  0.00  0.00    +0.028 C 
ATOM      5  C   LIG A   1      -3.828   6.810 131.125  0.00  0.00    +0.193 C 
ATOM      6  C   LIG A   1      -4.352   7.770 129.994  0.00  0.00    +0.048 C 
ATOM      7  C   LIG A   1      -3.379   8.069 128.880  0.00  0.00    +0.022 C 
ATOM      8  C   LIG A   1      -2.650   6.795 128.589  0.00  0.00    +0.054 C 
ENDROOT
BRANCH   8   9
ATOM      9  C   LIG A   1      -3.377   5.706 127.751  0.00  0.00    +0.019 C 
BRANCH   9  10
ATOM     10  C   LIG A   1      -2.778   4.149 127.538  0.00  0.00    +0.002 C 
BRANCH  10  11
ATOM     11  C   LIG A   1      -3.212   2.684 128.233  0.00  0.00    +0.000 C 
BRANCH  11  12
ATOM     12  C   LIG A   1      -4.633   2.251 128.620  0.00  0.00    -0.000 C 
BRANCH  12  13
ATOM     13  C   LIG A   1      -4.798   2.001 130.197  0.00  0.00    -0.000 C 
BRANCH  13  14
ATOM     14  C   LIG A   1      -5.744   0.895 130.780  0.00  0.00    -0.000 C 
BRANCH  14  15
ATOM     15  C   LIG A   1      -6.832   1.252 131.830  0.00  0.00    -0.000 C 
BRANCH  15  16
ATOM     16  C   LIG A   1      -7.659   2.560 131.783  0.00  0.00    -0.000 C 
BRANCH  16  17
ATOM     17  C   LIG A   1      -9.012   2.587 131.120  0.00  0.00    +0.000 C 
BRANCH  17  18
ATOM     18  C   LIG A   1      -8.974   3.225 129.615  0.00  0.00    +0.000 C 
BRANCH  18  19
ATOM     19  C   LIG A   1      -7.750   3.927 129.077  0.00  0.00    +0.007 C 
BRANCH  19  20
ATOM     20  C   LIG A   1      -7.842   4.236 127.520  0.00  0.00    +0.074 C 
BRANCH  20  21
ATOM     21  C   LIG A   1      -7.715   3.225 126.418  0.00  0.00    +0.130 C 
ATOM     22  C   LIG A   1      -6.486   3.169 125.612  0.00  0.00    +0.086 C 
ATOM     23  O   LIG A   1      -8.668   2.487 126.132  0.00  0.00    -0.298 OA
ENDBRANCH  20  21
ENDBRANCH  19  20
ENDBRANCH  18  19
ENDBRANCH  17  18
ENDBRANCH  16  17
ENDBRANCH  15  16
ENDBRANCH  14  15
ENDBRANCH  13  14
ENDBRANCH  12  13
ENDBRANCH  11  12
ENDBRANCH  10  11
ENDBRANCH   9  10
ENDBRANCH   8   9
BRANCH   5  24
ATOM     24  O   LIG A   1      -4.967   5.979 131.410  0.00  0.00    -0.457 OA
BRANCH  24  25
ATOM     25  C   LIG A   1      -5.418   6.096 132.712  0.00  0.00    +0.332 C 
ATOM     26  O   LIG A   1      -4.783   6.092 133.675  0.00  0.00    -0.246 OA
BRANCH  25  27
ATOM     27  C   LIG A   1      -6.917   5.960 132.625  0.00  0.00    +0.092 C 
ATOM     28  C   LIG A   1      -7.527   6.510 131.574  0.00  0.00    +0.015 C 
BRANCH  28  29
ATOM     29  C   LIG A   1      -8.981   6.552 131.373  0.00  0.00    -0.021 A 
ATOM     30  C   LIG A   1      -9.830   6.143 132.402  0.00  0.00    +0.012 A 
ATOM     31  C   LIG A   1     -11.215   6.262 132.273  0.00  0.00    +0.050 A 
ATOM     32  C   LIG A   1     -11.762   6.811 131.110  0.00  0.00    +0.159 A 
ATOM     33  C   LIG A   1     -10.925   7.242 130.071  0.00  0.00    +0.162 A 
ATOM     34  C   LIG A   1      -9.539   7.090 130.216  0.00  0.00    +0.057 A 
BRANCH  32  35
ATOM     35  O   LIG A   1     -13.120   6.957 131.027  0.00  0.00    -0.503 OA
ATOM     36  H   LIG A   1     -13.395   6.796 130.107  0.00  0.00    +0.292 HD
ENDBRANCH  32  35
BRANCH  33  37
ATOM     37  O   LIG A   1     -11.472   7.815 128.945  0.00  0.00    -0.491 OA
ATOM     38  C   LIG A   1     -10.511   8.451 128.095  0.00  0.00    +0.277 C 
ENDBRANCH  33  37
ENDBRANCH  28  29
ENDBRANCH  25  27
ENDBRANCH  24  25
ENDBRANCH   5  24
TORSDOF 19
ENDMDL
MODEL 5
REMARK VINA RESULT:      -7.5      3.451      8.280
REMARK  Name = NuBBE_313
REMARK  22 active torsions:
REMARK  status: ('A' for Active; 'I' for Inactive)
REMARK    1  A    between atoms: C_3  and  C_4
REMARK    2  A    between atoms: C_5  and  O_6
REMARK    3  A    between atoms: O_6  and  C_7
REMARK    4  A    between atoms: C_7  and  C_8
REMARK    5  A    between atoms: C_9  and  C_10
REMARK    6  A    between atoms: C_13  and  O_14
REMARK    7  A    between atoms: C_15  and  O_16
REMARK    8  A    between atoms: O_16  and  C_17
REMARK    9  A    between atoms: C_22  and  C_23
REMARK   10  A    between atoms: C_23  and  C_24
REMARK   11  A    between atoms: C_24  and  C_25
REMARK   12  A    between atoms: C_25  and  C_26
REMARK   13  A    between atoms: C_26  and  C_27
REMARK   14  A    between atoms: C_27  and  C_28
REMARK   15  A    between atoms: C_28  and  C_29
REMARK   16  A    between atoms: C_29  and  C_30
REMARK   17  A    between atoms: C_30  and  C_31
REMARK   18  A    between atoms: C_31  and  C_32
REMARK   19  A    between atoms: C_32  and  C_33
REMARK   20  A    between atoms: C_33  and  C_34
REMARK   21  A    between atoms: C_34  and  C_35
REMARK   22  A    between atoms: C_35  and  C_36
REMARK                            x       y       z     vdW  Elec       q    Type
REMARK                         _______ _______ _______ _____ _____    ______ ____
ROOT
ATOM      1  H   LIG A   1      -3.580  -5.004 131.641  0.00  0.00    +0.123 HD
ATOM      2  N   LIG A   1      -3.832  -4.023 131.753  0.00  0.00    -0.307 NA
ATOM      3  C   LIG A   1      -5.225  -3.883 132.045  0.00  0.00    +0.092 C 
ATOM      4  C   LIG A   1      -5.626  -4.895 133.120  0.00  0.00    +0.028 C 
ATOM      5  C   LIG A   1      -5.568  -2.378 132.311  0.00  0.00    +0.193 C 
ATOM      6  C   LIG A   1      -4.742  -1.326 131.484  0.00  0.00    +0.048 C 
ATOM      7  C   LIG A   1      -3.394  -1.789 130.988  0.00  0.00    +0.022 C 
ATOM      8  C   LIG A   1      -3.557  -3.213 130.557  0.00  0.00    +0.054 C 
ENDROOT
BRANCH   8   9
ATOM      9  C   LIG A   1      -4.231  -3.493 129.185  0.00  0.00    +0.019 C 
BRANCH   9  10
ATOM     10  C   LIG A   1      -5.027  -2.315 128.286  0.00  0.00    +0.002 C 
BRANCH  10  11
ATOM     11  C   LIG A   1      -6.651  -2.097 127.925  0.00  0.00    +0.000 C 
BRANCH  11  12
ATOM     12  C   LIG A   1      -7.825  -2.880 128.529  0.00  0.00    -0.000 C 
BRANCH  12  13
ATOM     13  C   LIG A   1      -8.700  -3.642 127.421  0.00  0.00    -0.000 C 
BRANCH  13  14
ATOM     14  C   LIG A   1      -9.375  -2.896 126.219  0.00  0.00    -0.000 C 
BRANCH  14  15
ATOM     15  C   LIG A   1      -8.951  -3.198 124.755  0.00  0.00    -0.000 C 
BRANCH  15  16
ATOM     16  C   LIG A   1      -7.605  -3.867 124.383  0.00  0.00    -0.000 C 
BRANCH  16  17
ATOM     17  C   LIG A   1      -6.312  -3.103 124.507  0.00  0.00    +0.000 C 
BRANCH  17  18
ATOM     18  C   LIG A   1      -6.354  -1.650 123.757  0.00  0.00    +0.000 C 
BRANCH  18  19
ATOM     19  C   LIG A   1      -6.643  -0.372 124.509  0.00  0.00    +0.007 C 
BRANCH  19  20
ATOM     20  C   LIG A   1      -7.387   0.718 123.624  0.00  0.00    +0.074 C 
BRANCH  20  21
ATOM     21  C   LIG A   1      -8.874   0.907 123.534  0.00  0.00    +0.130 C 
ATOM     22  C   LIG A   1      -9.693  -0.068 122.797  0.00  0.00    +0.086 C 
ATOM     23  O   LIG A   1      -9.407   1.917 124.011  0.00  0.00    -0.298 OA
ENDBRANCH  20  21
ENDBRANCH  19  20
ENDBRANCH  18  19
ENDBRANCH  17  18
ENDBRANCH  16  17
ENDBRANCH  15  16
ENDBRANCH  14  15
ENDBRANCH  13  14
ENDBRANCH  12  13
ENDBRANCH  11  12
ENDBRANCH  10  11
ENDBRANCH   9  10
ENDBRANCH   8   9
BRANCH   5  24
ATOM     24  O   LIG A   1      -6.915  -2.184 131.845  0.00  0.00    -0.457 OA
BRANCH  24  25
ATOM     25  C   LIG A   1      -7.748  -1.620 132.794  0.00  0.00    +0.332 C 
ATOM     26  O   LIG A   1      -8.275  -2.157 133.669  0.00  0.00    -0.246 OA
BRANCH  25  27
ATOM     27  C   LIG A   1      -8.034  -0.228 132.293  0.00  0.00    +0.092 C 
ATOM     28  C   LIG A   1      -8.241  -0.073 130.985  0.00  0.00    +0.015 C 
BRANCH  28  29
ATOM     29  C   LIG A   1      -8.445   1.217 130.312  0.00  0.00    -0.021 A 
ATOM     30  C   LIG A   1      -8.708   2.356 131.075  0.00  0.00    +0.012 A 
ATOM     31  C   LIG A   1      -8.810   3.610 130.469  0.00  0.00    +0.050 A 
ATOM     32  C   LIG A   1      -8.633   3.735 129.089  0.00  0.00    +0.159 A 
ATOM     33  C   LIG A   1      -8.352   2.604 128.307  0.00  0.00    +0.162 A 
ATOM     34  C   LIG A   1      -8.278   1.353 128.937  0.00  0.00    +0.057 A 
BRANCH  32  35
ATOM     35  O   LIG A   1      -8.695   4.980 128.527  0.00  0.00    -0.503 OA
ATOM     36  H   LIG A   1      -9.520   5.052 128.017  0.00  0.00    +0.292 HD
ENDBRANCH  32  35
BRANCH  33  37
ATOM     37  O   LIG A   1      -8.143   2.742 126.955  0.00  0.00    -0.491 OA
ATOM     38  C   LIG A   1      -6.764   2.881 126.594  0.00  0.00    +0.277 C 
ENDBRANCH  33  37
ENDBRANCH  28  29
ENDBRANCH  25  27
ENDBRANCH  24  25
ENDBRANCH   5  24
TORSDOF 19
ENDMDL
MODEL 6
REMARK VINA RESULT:      -7.4      3.857      5.758
REMARK  Name = NuBBE_313
REMARK  22 active torsions:
REMARK  status: ('A' for Active; 'I' for Inactive)
REMARK    1  A    between atoms: C_3  and  C_4
REMARK    2  A    between atoms: C_5  and  O_6
REMARK    3  A    between atoms: O_6  and  C_7
REMARK    4  A    between atoms: C_7  and  C_8
REMARK    5  A    between atoms: C_9  and  C_10
REMARK    6  A    between atoms: C_13  and  O_14
REMARK    7  A    between atoms: C_15  and  O_16
REMARK    8  A    between atoms: O_16  and  C_17
REMARK    9  A    between atoms: C_22  and  C_23
REMARK   10  A    between atoms: C_23  and  C_24
REMARK   11  A    between atoms: C_24  and  C_25
REMARK   12  A    between atoms: C_25  and  C_26
REMARK   13  A    between atoms: C_26  and  C_27
REMARK   14  A    between atoms: C_27  and  C_28
REMARK   15  A    between atoms: C_28  and  C_29
REMARK   16  A    between atoms: C_29  and  C_30
REMARK   17  A    between atoms: C_30  and  C_31
REMARK   18  A    between atoms: C_31  and  C_32
REMARK   19  A    between atoms: C_32  and  C_33
REMARK   20  A    between atoms: C_33  and  C_34
REMARK   21  A    between atoms: C_34  and  C_35
REMARK   22  A    between atoms: C_35  and  C_36
REMARK                            x       y       z     vdW  Elec       q    Type
REMARK                         _______ _______ _______ _____ _____    ______ ____
ROOT
ATOM      1  H   LIG A   1      -6.532  -3.609 125.345  0.00  0.00    +0.123 HD
ATOM      2  N   LIG A   1      -7.094  -3.051 124.703  0.00  0.00    -0.307 NA
ATOM      3  C   LIG A   1      -6.950  -1.655 124.980  0.00  0.00    +0.092 C 
ATOM      4  C   LIG A   1      -5.470  -1.323 125.179  0.00  0.00    +0.028 C 
ATOM      5  C   LIG A   1      -7.740  -0.814 123.921  0.00  0.00    +0.193 C 
ATOM      6  C   LIG A   1      -9.066  -1.462 123.376  0.00  0.00    +0.048 C 
ATOM      7  C   LIG A   1      -9.148  -2.966 123.463  0.00  0.00    +0.022 C 
ATOM      8  C   LIG A   1      -8.530  -3.360 124.768  0.00  0.00    +0.054 C 
ENDROOT
BRANCH   8   9
ATOM      9  C   LIG A   1      -9.367  -3.173 126.064  0.00  0.00    +0.019 C 
BRANCH   9  10
ATOM     10  C   LIG A   1      -9.003  -3.935 127.518  0.00  0.00    +0.002 C 
BRANCH  10  11
ATOM     11  C   LIG A   1      -8.217  -3.388 128.897  0.00  0.00    +0.000 C 
BRANCH  11  12
ATOM     12  C   LIG A   1      -7.696  -1.964 129.136  0.00  0.00    -0.000 C 
BRANCH  12  13
ATOM     13  C   LIG A   1      -8.180  -1.353 130.539  0.00  0.00    -0.000 C 
BRANCH  13  14
ATOM     14  C   LIG A   1      -7.181  -1.000 131.694  0.00  0.00    -0.000 C 
BRANCH  14  15
ATOM     15  C   LIG A   1      -6.455  -2.122 132.489  0.00  0.00    -0.000 C 
BRANCH  15  16
ATOM     16  C   LIG A   1      -6.484  -3.612 132.070  0.00  0.00    -0.000 C 
BRANCH  16  17
ATOM     17  C   LIG A   1      -5.402  -4.179 131.188  0.00  0.00    +0.000 C 
BRANCH  17  18
ATOM     18  C   LIG A   1      -4.150  -3.149 130.969  0.00  0.00    +0.000 C 
BRANCH  18  19
ATOM     19  C   LIG A   1      -4.076  -2.224 129.778  0.00  0.00    +0.007 C 
BRANCH  19  20
ATOM     20  C   LIG A   1      -3.922  -0.695 130.183  0.00  0.00    +0.074 C 
BRANCH  20  21
ATOM     21  C   LIG A   1      -4.587   0.463 129.498  0.00  0.00    +0.130 C 
ATOM     22  C   LIG A   1      -4.437   1.822 130.042  0.00  0.00    +0.086 C 
ATOM     23  O   LIG A   1      -5.324   0.275 128.521  0.00  0.00    -0.298 OA
ENDBRANCH  20  21
ENDBRANCH  19  20
ENDBRANCH  18  19
ENDBRANCH  17  18
ENDBRANCH  16  17
ENDBRANCH  15  16
ENDBRANCH  14  15
ENDBRANCH  13  14
ENDBRANCH  12  13
ENDBRANCH  11  12
ENDBRANCH  10  11
ENDBRANCH   9  10
ENDBRANCH   8   9
BRANCH   5  24
ATOM     24  O   LIG A   1      -8.203   0.364 124.605  0.00  0.00    -0.457 OA
BRANCH  24  25
ATOM     25  C   LIG A   1      -7.990   1.530 123.894  0.00  0.00    +0.332 C 
ATOM     26  O   LIG A   1      -8.567   1.898 122.965  0.00  0.00    -0.246 OA
BRANCH  25  27
ATOM     27  C   LIG A   1      -6.688   2.080 124.417  0.00  0.00    +0.092 C 
ATOM     28  C   LIG A   1      -6.624   2.391 125.712  0.00  0.00    +0.015 C 
BRANCH  28  29
ATOM     29  C   LIG A   1      -5.471   3.017 126.372  0.00  0.00    -0.021 A 
ATOM     30  C   LIG A   1      -4.188   2.529 126.122  0.00  0.00    +0.012 A 
ATOM     31  C   LIG A   1      -3.067   3.165 126.660  0.00  0.00    +0.050 A 
ATOM     32  C   LIG A   1      -3.224   4.312 127.443  0.00  0.00    +0.159 A 
ATOM     33  C   LIG A   1      -4.505   4.827 127.692  0.00  0.00    +0.162 A 
ATOM     34  C   LIG A   1      -5.615   4.156 127.160  0.00  0.00    +0.057 A 
BRANCH  32  35
ATOM     35  O   LIG A   1      -2.108   4.941 127.921  0.00  0.00    -0.503 OA
ATOM     36  H   LIG A   1      -2.172   4.997 128.890  0.00  0.00    +0.292 HD
ENDBRANCH  32  35
BRANCH  33  37
ATOM     37  O   LIG A   1      -4.647   5.977 128.434  0.00  0.00    -0.491 OA
ATOM     38  C   LIG A   1      -4.904   5.741 129.823  0.00  0.00    +0.277 C 
ENDBRANCH  33  37
ENDBRANCH  28  29
ENDBRANCH  25  27
ENDBRANCH  24  25
ENDBRANCH   5  24
TORSDOF 19
ENDMDL
MODEL 7
REMARK VINA RESULT:      -7.4      4.141      5.286
REMARK  Name = NuBBE_313
REMARK  22 active torsions:
REMARK  status: ('A' for Active; 'I' for Inactive)
REMARK    1  A    between atoms: C_3  and  C_4
REMARK    2  A    between atoms: C_5  and  O_6
REMARK    3  A    between atoms: O_6  and  C_7
REMARK    4  A    between atoms: C_7  and  C_8
REMARK    5  A    between atoms: C_9  and  C_10
REMARK    6  A    between atoms: C_13  and  O_14
REMARK    7  A    between atoms: C_15  and  O_16
REMARK    8  A    between atoms: O_16  and  C_17
REMARK    9  A    between atoms: C_22  and  C_23
REMARK   10  A    between atoms: C_23  and  C_24
REMARK   11  A    between atoms: C_24  and  C_25
REMARK   12  A    between atoms: C_25  and  C_26
REMARK   13  A    between atoms: C_26  and  C_27
REMARK   14  A    between atoms: C_27  and  C_28
REMARK   15  A    between atoms: C_28  and  C_29
REMARK   16  A    between atoms: C_29  and  C_30
REMARK   17  A    between atoms: C_30  and  C_31
REMARK   18  A    between atoms: C_31  and  C_32
REMARK   19  A    between atoms: C_32  and  C_33
REMARK   20  A    between atoms: C_33  and  C_34
REMARK   21  A    between atoms: C_34  and  C_35
REMARK   22  A    between atoms: C_35  and  C_36
REMARK                            x       y       z     vdW  Elec       q    Type
REMARK                         _______ _______ _______ _____ _____    ______ ____
ROOT
ATOM      1  H   LIG A   1      -5.775  -2.894 124.892  0.00  0.00    +0.123 HD
ATOM      2  N   LIG A   1      -6.751  -2.625 125.016  0.00  0.00    -0.307 NA
ATOM      3  C   LIG A   1      -7.039  -1.412 124.316  0.00  0.00    +0.092 C 
ATOM      4  C   LIG A   1      -6.445  -1.481 122.908  0.00  0.00    +0.028 C 
ATOM      5  C   LIG A   1      -8.563  -1.072 124.438  0.00  0.00    +0.193 C 
ATOM      6  C   LIG A   1      -9.255  -1.483 125.789  0.00  0.00    +0.048 C 
ATOM      7  C   LIG A   1      -8.598  -2.607 126.550  0.00  0.00    +0.022 C 
ATOM      8  C   LIG A   1      -7.119  -2.411 126.424  0.00  0.00    +0.054 C 
ENDROOT
BRANCH   8   9
ATOM      9  C   LIG A   1      -6.443  -1.327 127.309  0.00  0.00    +0.019 C 
BRANCH   9  10
ATOM     10  C   LIG A   1      -6.280   0.280 126.843  0.00  0.00    +0.002 C 
BRANCH  10  11
ATOM     11  C   LIG A   1      -5.157   1.454 127.263  0.00  0.00    +0.000 C 
BRANCH  11  12
ATOM     12  C   LIG A   1      -5.064   2.869 126.677  0.00  0.00    -0.000 C 
BRANCH  12  13
ATOM     13  C   LIG A   1      -3.572   3.264 126.239  0.00  0.00    -0.000 C 
BRANCH  13  14
ATOM     14  C   LIG A   1      -2.440   3.569 127.279  0.00  0.00    -0.000 C 
BRANCH  14  15
ATOM     15  C   LIG A   1      -2.633   4.661 128.368  0.00  0.00    -0.000 C 
BRANCH  15  16
ATOM     16  C   LIG A   1      -3.562   5.885 128.185  0.00  0.00    -0.000 C 
BRANCH  16  17
ATOM     17  C   LIG A   1      -3.104   7.261 128.596  0.00  0.00    +0.000 C 
BRANCH  17  18
ATOM     18  C   LIG A   1      -3.979   7.884 129.830  0.00  0.00    +0.000 C 
BRANCH  18  19
ATOM     19  C   LIG A   1      -3.871   7.344 131.236  0.00  0.00    +0.007 C 
BRANCH  19  20
ATOM     20  C   LIG A   1      -2.433   7.558 131.878  0.00  0.00    +0.074 C 
BRANCH  20  21
ATOM     21  C   LIG A   1      -1.482   6.467 132.276  0.00  0.00    +0.130 C 
ATOM     22  C   LIG A   1      -1.815   5.063 131.991  0.00  0.00    +0.086 C 
ATOM     23  O   LIG A   1      -0.453   6.734 132.911  0.00  0.00    -0.298 OA
ENDBRANCH  20  21
ENDBRANCH  19  20
ENDBRANCH  18  19
ENDBRANCH  17  18
ENDBRANCH  16  17
ENDBRANCH  15  16
ENDBRANCH  14  15
ENDBRANCH  13  14
ENDBRANCH  12  13
ENDBRANCH  11  12
ENDBRANCH  10  11
ENDBRANCH   9  10
ENDBRANCH   8   9
BRANCH   5  24
ATOM     24  O   LIG A   1      -8.657   0.364 124.440  0.00  0.00    -0.457 OA
BRANCH  24  25
ATOM     25  C   LIG A   1      -9.531   0.858 123.489  0.00  0.00    +0.332 C 
ATOM     26  O   LIG A   1     -10.500   0.363 123.106  0.00  0.00    -0.246 OA
BRANCH  25  27
ATOM     27  C   LIG A   1      -8.819   2.033 122.870  0.00  0.00    +0.092 C 
ATOM     28  C   LIG A   1      -7.486   2.040 122.912  0.00  0.00    +0.015 C 
BRANCH  28  29
ATOM     29  C   LIG A   1      -6.635   3.141 122.440  0.00  0.00    -0.021 A 
ATOM     30  C   LIG A   1      -5.759   3.762 123.331  0.00  0.00    +0.012 A 
ATOM     31  C   LIG A   1      -4.872   4.746 122.887  0.00  0.00    +0.050 A 
ATOM     32  C   LIG A   1      -4.845   5.103 121.537  0.00  0.00    +0.159 A 
ATOM     33  C   LIG A   1      -5.707   4.478 120.623  0.00  0.00    +0.162 A 
ATOM     34  C   LIG A   1      -6.604   3.511 121.098  0.00  0.00    +0.057 A 
BRANCH  32  35
ATOM     35  O   LIG A   1      -3.936   6.037 121.121  0.00  0.00    -0.503 OA
ATOM     36  H   LIG A   1      -3.993   6.118 120.153  0.00  0.00    +0.292 HD
ENDBRANCH  32  35
BRANCH  33  37
ATOM     37  O   LIG A   1      -5.648   4.811 119.290  0.00  0.00    -0.491 OA
ATOM     38  C   LIG A   1      -6.930   4.894 118.656  0.00  0.00    +0.277 C 
ENDBRANCH  33  37
ENDBRANCH  28  29
ENDBRANCH  25  27
ENDBRANCH  24  25
ENDBRANCH   5  24
TORSDOF 19
ENDMDL
MODEL 8
REMARK VINA RESULT:      -7.4      4.058      7.061
REMARK  Name = NuBBE_313
REMARK  22 active torsions:
REMARK  status: ('A' for Active; 'I' for Inactive)
REMARK    1  A    between atoms: C_3  and  C_4
REMARK    2  A    between atoms: C_5  and  O_6
REMARK    3  A    between atoms: O_6  and  C_7
REMARK    4  A    between atoms: C_7  and  C_8
REMARK    5  A    between atoms: C_9  and  C_10
REMARK    6  A    between atoms: C_13  and  O_14
REMARK    7  A    between atoms: C_15  and  O_16
REMARK    8  A    between atoms: O_16  and  C_17
REMARK    9  A    between atoms: C_22  and  C_23
REMARK   10  A    between atoms: C_23  and  C_24
REMARK   11  A    between atoms: C_24  and  C_25
REMARK   12  A    between atoms: C_25  and  C_26
REMARK   13  A    between atoms: C_26  and  C_27
REMARK   14  A    between atoms: C_27  and  C_28
REMARK   15  A    between atoms: C_28  and  C_29
REMARK   16  A    between atoms: C_29  and  C_30
REMARK   17  A    between atoms: C_30  and  C_31
REMARK   18  A    between atoms: C_31  and  C_32
REMARK   19  A    between atoms: C_32  and  C_33
REMARK   20  A    between atoms: C_33  and  C_34
REMARK   21  A    between atoms: C_34  and  C_35
REMARK   22  A    between atoms: C_35  and  C_36
REMARK                            x       y       z     vdW  Elec       q    Type
REMARK                         _______ _______ _______ _____ _____    ______ ____
ROOT
ATOM      1  H   LIG A   1     -10.056   1.530 121.756  0.00  0.00    +0.123 HD
ATOM      2  N   LIG A   1      -9.611   1.779 122.639  0.00  0.00    -0.307 NA
ATOM      3  C   LIG A   1      -8.385   2.479 122.412  0.00  0.00    +0.092 C 
ATOM      4  C   LIG A   1      -8.598   3.552 121.343  0.00  0.00    +0.028 C 
ATOM      5  C   LIG A   1      -7.769   2.938 123.778  0.00  0.00    +0.193 C 
ATOM      6  C   LIG A   1      -8.011   1.977 125.000  0.00  0.00    +0.048 C 
ATOM      7  C   LIG A   1      -9.216   1.074 124.900  0.00  0.00    +0.022 C 
ATOM      8  C   LIG A   1      -9.295   0.613 123.478  0.00  0.00    +0.054 C 
ENDROOT
BRANCH   8   9
ATOM      9  C   LIG A   1      -8.330  -0.513 123.015  0.00  0.00    +0.019 C 
BRANCH   9  10
ATOM     10  C   LIG A   1      -8.697  -2.150 123.127  0.00  0.00    +0.002 C 
BRANCH  10  11
ATOM     11  C   LIG A   1      -9.295  -3.074 124.394  0.00  0.00    +0.000 C 
BRANCH  11  12
ATOM     12  C   LIG A   1      -8.480  -3.637 125.567  0.00  0.00    -0.000 C 
BRANCH  12  13
ATOM     13  C   LIG A   1      -9.239  -3.500 126.974  0.00  0.00    -0.000 C 
BRANCH  13  14
ATOM     14  C   LIG A   1      -8.605  -3.981 128.325  0.00  0.00    -0.000 C 
BRANCH  14  15
ATOM     15  C   LIG A   1      -8.176  -2.957 129.411  0.00  0.00    -0.000 C 
BRANCH  15  16
ATOM     16  C   LIG A   1      -7.252  -3.319 130.599  0.00  0.00    -0.000 C 
BRANCH  16  17
ATOM     17  C   LIG A   1      -5.837  -3.778 130.355  0.00  0.00    +0.000 C 
BRANCH  17  18
ATOM     18  C   LIG A   1      -5.114  -2.990 129.118  0.00  0.00    +0.000 C 
BRANCH  18  19
ATOM     19  C   LIG A   1      -4.500  -1.621 129.295  0.00  0.00    +0.007 C 
BRANCH  19  20
ATOM     20  C   LIG A   1      -5.384  -0.456 128.674  0.00  0.00    +0.074 C 
BRANCH  20  21
ATOM     21  C   LIG A   1      -6.075  -0.495 127.342  0.00  0.00    +0.130 C 
ATOM     22  C   LIG A   1      -5.302  -0.276 126.109  0.00  0.00    +0.086 C 
ATOM     23  O   LIG A   1      -7.303  -0.634 127.276  0.00  0.00    -0.298 OA
ENDBRANCH  20  21
ENDBRANCH  19  20
ENDBRANCH  18  19
ENDBRANCH  17  18
ENDBRANCH  16  17
ENDBRANCH  15  16
ENDBRANCH  14  15
ENDBRANCH  13  14
ENDBRANCH  12  13
ENDBRANCH  11  12
ENDBRANCH  10  11
ENDBRANCH   9  10
ENDBRANCH   8   9
BRANCH   5  24
ATOM     24  O   LIG A   1      -6.341   2.906 123.608  0.00  0.00    -0.457 OA
BRANCH  24  25
ATOM     25  C   LIG A   1      -5.768   4.163 123.548  0.00  0.00    +0.332 C 
ATOM     26  O   LIG A   1      -5.389   4.715 122.609  0.00  0.00    -0.246 OA
BRANCH  25  27
ATOM     27  C   LIG A   1      -5.499   4.543 124.981  0.00  0.00    +0.092 C 
ATOM     28  C   LIG A   1      -4.518   3.901 125.617  0.00  0.00    +0.015 C 
BRANCH  28  29
ATOM     29  C   LIG A   1      -4.176   4.078 127.034  0.00  0.00    -0.021 A 
ATOM     30  C   LIG A   1      -4.113   2.963 127.871  0.00  0.00    +0.012 A 
ATOM     31  C   LIG A   1      -3.699   3.091 129.198  0.00  0.00    +0.050 A 
ATOM     32  C   LIG A   1      -3.326   4.343 129.695  0.00  0.00    +0.159 A 
ATOM     33  C   LIG A   1      -3.367   5.473 128.865  0.00  0.00    +0.162 A 
ATOM     34  C   LIG A   1      -3.810   5.321 127.543  0.00  0.00    +0.057 A 
BRANCH  32  35
ATOM     35  O   LIG A   1      -2.881   4.434 130.985  0.00  0.00    -0.503 OA
ATOM     36  H   LIG A   1      -2.110   5.026 131.008  0.00  0.00    +0.292 HD
ENDBRANCH  32  35
BRANCH  33  37
ATOM     37  O   LIG A   1      -2.963   6.695 129.352  0.00  0.00    -0.491 OA
ATOM     38  C   LIG A   1      -4.046   7.579 129.665  0.00  0.00    +0.277 C 
ENDBRANCH  33  37
ENDBRANCH  28  29
ENDBRANCH  25  27
ENDBRANCH  24  25
ENDBRANCH   5  24
TORSDOF 19
ENDMDL
MODEL 9
REMARK VINA RESULT:      -7.3      3.687      6.305
REMARK  Name = NuBBE_313
REMARK  22 active torsions:
REMARK  status: ('A' for Active; 'I' for Inactive)
REMARK    1  A    between atoms: C_3  and  C_4
REMARK    2  A    between atoms: C_5  and  O_6
REMARK    3  A    between atoms: O_6  and  C_7
REMARK    4  A    between atoms: C_7  and  C_8
REMARK    5  A    between atoms: C_9  and  C_10
REMARK    6  A    between atoms: C_13  and  O_14
REMARK    7  A    between atoms: C_15  and  O_16
REMARK    8  A    between atoms: O_16  and  C_17
REMARK    9  A    between atoms: C_22  and  C_23
REMARK   10  A    between atoms: C_23  and  C_24
REMARK   11  A    between atoms: C_24  and  C_25
REMARK   12  A    between atoms: C_25  and  C_26
REMARK   13  A    between atoms: C_26  and  C_27
REMARK   14  A    between atoms: C_27  and  C_28
REMARK   15  A    between atoms: C_28  and  C_29
REMARK   16  A    between atoms: C_29  and  C_30
REMARK   17  A    between atoms: C_30  and  C_31
REMARK   18  A    between atoms: C_31  and  C_32
REMARK   19  A    between atoms: C_32  and  C_33
REMARK   20  A    between atoms: C_33  and  C_34
REMARK   21  A    between atoms: C_34  and  C_35
REMARK   22  A    between atoms: C_35  and  C_36
REMARK                            x       y       z     vdW  Elec       q    Type
REMARK                         _______ _______ _______ _____ _____    ______ ____
ROOT
ATOM      1  H   LIG A   1      -6.475  -3.659 125.616  0.00  0.00    +0.123 HD
ATOM      2  N   LIG A   1      -6.995  -3.120 124.923  0.00  0.00    -0.307 NA
ATOM      3  C   LIG A   1      -6.917  -1.720 125.204  0.00  0.00    +0.092 C 
ATOM      4  C   LIG A   1      -5.470  -1.343 125.528  0.00  0.00    +0.028 C 
ATOM      5  C   LIG A   1      -7.636  -0.906 124.075  0.00  0.00    +0.193 C 
ATOM      6  C   LIG A   1      -8.890  -1.595 123.421  0.00  0.00    +0.048 C 
ATOM      7  C   LIG A   1      -8.935  -3.101 123.509  0.00  0.00    +0.022 C 
ATOM      8  C   LIG A   1      -8.421  -3.471 124.865  0.00  0.00    +0.054 C 
ENDROOT
BRANCH   8   9
ATOM      9  C   LIG A   1      -9.373  -3.305 126.083  0.00  0.00    +0.019 C 
BRANCH   9  10
ATOM     10  C   LIG A   1      -8.972  -3.786 127.643  0.00  0.00    +0.002 C 
BRANCH  10  11
ATOM     11  C   LIG A   1      -7.758  -3.284 128.687  0.00  0.00    +0.000 C 
BRANCH  11  12
ATOM     12  C   LIG A   1      -7.787  -2.031 129.573  0.00  0.00    -0.000 C 
BRANCH  12  13
ATOM     13  C   LIG A   1      -7.474  -0.684 128.757  0.00  0.00    -0.000 C 
BRANCH  13  14
ATOM     14  C   LIG A   1      -8.068   0.707 129.167  0.00  0.00    -0.000 C 
BRANCH  14  15
ATOM     15  C   LIG A   1      -7.523   1.472 130.405  0.00  0.00    -0.000 C 
BRANCH  15  16
ATOM     16  C   LIG A   1      -6.814   0.771 131.589  0.00  0.00    -0.000 C 
BRANCH  16  17
ATOM     17  C   LIG A   1      -5.467   1.250 132.065  0.00  0.00    +0.000 C 
BRANCH  17  18
ATOM     18  C   LIG A   1      -4.273   0.982 130.980  0.00  0.00    +0.000 C 
BRANCH  18  19
ATOM     19  C   LIG A   1      -4.262  -0.239 130.092  0.00  0.00    +0.007 C 
BRANCH  19  20
ATOM     20  C   LIG A   1      -3.465  -1.462 130.721  0.00  0.00    +0.074 C 
BRANCH  20  21
ATOM     21  C   LIG A   1      -3.627  -2.904 130.335  0.00  0.00    +0.130 C 
ATOM     22  C   LIG A   1      -4.019  -3.256 128.961  0.00  0.00    +0.086 C 
ATOM     23  O   LIG A   1      -3.509  -3.797 131.184  0.00  0.00    -0.298 OA
ENDBRANCH  20  21
ENDBRANCH  19  20
ENDBRANCH  18  19
ENDBRANCH  17  18
ENDBRANCH  16  17
ENDBRANCH  15  16
ENDBRANCH  14  15
ENDBRANCH  13  14
ENDBRANCH  12  13
ENDBRANCH  11  12
ENDBRANCH  10  11
ENDBRANCH   9  10
ENDBRANCH   8   9
BRANCH   5  24
ATOM     24  O   LIG A   1      -8.191   0.260 124.709  0.00  0.00    -0.457 OA
BRANCH  24  25
ATOM     25  C   LIG A   1      -7.582   1.438 124.318  0.00  0.00    +0.332 C 
ATOM     26  O   LIG A   1      -7.384   1.799 123.241  0.00  0.00    -0.246 OA
BRANCH  25  27
ATOM     27  C   LIG A   1      -6.998   2.019 125.580  0.00  0.00    +0.092 C 
ATOM     28  C   LIG A   1      -5.700   2.325 125.576  0.00  0.00    +0.015 C 
BRANCH  28  29
ATOM     29  C   LIG A   1      -4.946   2.814 126.738  0.00  0.00    -0.021 A 
ATOM     30  C   LIG A   1      -3.559   2.937 126.656  0.00  0.00    +0.012 A 
ATOM     31  C   LIG A   1      -2.829   3.488 127.711  0.00  0.00    +0.050 A 
ATOM     32  C   LIG A   1      -3.491   3.939 128.856  0.00  0.00    +0.159 A 
ATOM     33  C   LIG A   1      -4.887   3.839 128.951  0.00  0.00    +0.162 A 
ATOM     34  C   LIG A   1      -5.593   3.260 127.887  0.00  0.00    +0.057 A 
BRANCH  32  35
ATOM     35  O   LIG A   1      -2.757   4.516 129.856  0.00  0.00    -0.503 OA
ATOM     36  H   LIG A   1      -2.606   3.855 130.554  0.00  0.00    +0.292 HD
ENDBRANCH  32  35
BRANCH  33  37
ATOM     37  O   LIG A   1      -5.533   4.319 130.067  0.00  0.00    -0.491 OA
ATOM     38  C   LIG A   1      -6.778   4.966 129.781  0.00  0.00    +0.277 C 
ENDBRANCH  33  37
ENDBRANCH  28  29
ENDBRANCH  25  27
ENDBRANCH  24  25
ENDBRANCH   5  24
TORSDOF 19
ENDMDL
