MODEL 1
REMARK VINA RESULT:      -6.6      0.000      0.000
REMARK  Name = NuBBE_1058
REMARK  2 active torsions:
REMARK  status: ('A' for Active; 'I' for Inactive)
REMARK    1  A    between atoms: C_15  and  O_16
REMARK    2  A    between atoms: O_16  and  C_17
REMARK                            x       y       z     vdW  Elec       q    Type
REMARK                         _______ _______ _______ _____ _____    ______ ____
ROOT
ATOM      1  O   LIG A   1     -10.882   7.766 125.464  0.00  0.00    -0.245 OA
ATOM      2  C   LIG A   1     -10.994   7.580 126.670  0.00  0.00    +0.337 A 
ATOM      3  C   LIG A   1     -12.120   8.155 127.420  0.00  0.00    +0.092 A 
ATOM      4  C   LIG A   1     -12.272   7.974 128.735  0.00  0.00    +0.020 A 
ATOM      5  O   LIG A   1     -10.090   6.831 127.403  0.00  0.00    -0.418 OA
ATOM      6  C   LIG A   1     -10.225   6.620 128.804  0.00  0.00    +0.185 A 
ATOM      7  C   LIG A   1     -11.305   7.180 129.491  0.00  0.00    +0.040 A 
ATOM      8  C   LIG A   1     -11.399   6.948 130.870  0.00  0.00    +0.063 A 
ATOM      9 CL   LIG A   1     -12.657   7.557 131.868  0.00  0.00    -0.082 Cl
ATOM     10  C   LIG A   1     -10.435   6.175 131.549  0.00  0.00    +0.043 A 
ATOM     11  C   LIG A   1     -10.213   5.747 132.891  0.00  0.00    +0.051 A 
ATOM     12  C   LIG A   1      -9.062   5.000 132.879  0.00  0.00    +0.196 A 
ATOM     13  O   LIG A   1      -8.554   4.932 131.625  0.00  0.00    -0.459 OA
ATOM     14  C   LIG A   1      -9.381   5.644 130.802  0.00  0.00    +0.181 A 
ATOM     15  C   LIG A   1      -9.229   5.835 129.420  0.00  0.00    +0.206 A 
ENDROOT
BRANCH  15  16
ATOM     16  O   LIG A   1      -8.224   5.355 128.598  0.00  0.00    -0.488 OA
ATOM     17  C   LIG A   1      -8.156   3.947 128.426  0.00  0.00    +0.277 C 
ENDBRANCH  15  16
TORSDOF 1
ENDMDL
MODEL 2
REMARK VINA RESULT:      -6.3      6.442      8.091
REMARK  Name = NuBBE_1058
REMARK  2 active torsions:
REMARK  status: ('A' for Active; 'I' for Inactive)
REMARK    1  A    between atoms: C_15  and  O_16
REMARK    2  A    between atoms: O_16  and  C_17
REMARK                            x       y       z     vdW  Elec       q    Type
REMARK                         _______ _______ _______ _____ _____    ______ ____
ROOT
ATOM      1  O   LIG A   1      -6.874   4.150 119.314  0.00  0.00    -0.245 OA
ATOM      2  C   LIG A   1      -6.648   4.007 120.510  0.00  0.00    +0.337 A 
ATOM      3  C   LIG A   1      -5.366   4.434 121.091  0.00  0.00    +0.092 A 
ATOM      4  C   LIG A   1      -5.085   4.293 122.389  0.00  0.00    +0.020 A 
ATOM      5  O   LIG A   1      -7.559   3.447 121.387  0.00  0.00    -0.418 OA
ATOM      6  C   LIG A   1      -7.289   3.283 122.775  0.00  0.00    +0.185 A 
ATOM      7  C   LIG A   1      -6.062   3.697 123.299  0.00  0.00    +0.040 A 
ATOM      8  C   LIG A   1      -5.837   3.516 124.671  0.00  0.00    +0.063 A 
ATOM      9 CL   LIG A   1      -4.391   3.966 125.480  0.00  0.00    -0.082 Cl
ATOM     10  C   LIG A   1      -6.816   2.933 125.501  0.00  0.00    +0.043 A 
ATOM     11  C   LIG A   1      -6.934   2.602 126.884  0.00  0.00    +0.051 A 
ATOM     12  C   LIG A   1      -8.176   2.042 127.048  0.00  0.00    +0.196 A 
ATOM     13  O   LIG A   1      -8.837   2.002 125.867  0.00  0.00    -0.459 OA
ATOM     14  C   LIG A   1      -8.022   2.542 124.913  0.00  0.00    +0.181 A 
ATOM     15  C   LIG A   1      -8.312   2.697 123.550  0.00  0.00    +0.206 A 
ENDROOT
BRANCH  15  16
ATOM     16  O   LIG A   1      -9.468   2.341 122.878  0.00  0.00    -0.488 OA
ATOM     17  C   LIG A   1      -9.765   0.953 122.807  0.00  0.00    +0.277 C 
ENDBRANCH  15  16
TORSDOF 1
ENDMDL
MODEL 3
REMARK VINA RESULT:      -6.2      9.214      9.994
REMARK  Name = NuBBE_1058
REMARK  2 active torsions:
REMARK  status: ('A' for Active; 'I' for Inactive)
REMARK    1  A    between atoms: C_15  and  O_16
REMARK    2  A    between atoms: O_16  and  C_17
REMARK                            x       y       z     vdW  Elec       q    Type
REMARK                         _______ _______ _______ _____ _____    ______ ____
ROOT
ATOM      1  O   LIG A   1      -7.985  -1.999 122.194  0.00  0.00    -0.245 OA
ATOM      2  C   LIG A   1      -8.099  -2.301 123.376  0.00  0.00    +0.337 A 
ATOM      3  C   LIG A   1      -9.239  -3.104 123.842  0.00  0.00    +0.092 A 
ATOM      4  C   LIG A   1      -9.396  -3.450 125.123  0.00  0.00    +0.020 A 
ATOM      5  O   LIG A   1      -7.185  -1.919 124.342  0.00  0.00    -0.418 OA
ATOM      6  C   LIG A   1      -7.324  -2.271 125.714  0.00  0.00    +0.185 A 
ATOM      7  C   LIG A   1      -8.419  -3.035 126.129  0.00  0.00    +0.040 A 
ATOM      8  C   LIG A   1      -8.518  -3.359 127.488  0.00  0.00    +0.063 A 
ATOM      9 CL   LIG A   1      -9.792  -4.287 128.170  0.00  0.00    -0.082 Cl
ATOM     10  C   LIG A   1      -7.545  -2.930 128.415  0.00  0.00    +0.043 A 
ATOM     11  C   LIG A   1      -7.327  -3.061 129.818  0.00  0.00    +0.051 A 
ATOM     12  C   LIG A   1      -6.165  -2.387 130.099  0.00  0.00    +0.196 A 
ATOM     13  O   LIG A   1      -5.646  -1.847 128.970  0.00  0.00    -0.459 OA
ATOM     14  C   LIG A   1      -6.476  -2.170 127.934  0.00  0.00    +0.181 A 
ATOM     15  C   LIG A   1      -6.316  -1.813 126.586  0.00  0.00    +0.206 A 
ENDROOT
BRANCH  15  16
ATOM     16  O   LIG A   1      -5.299  -1.066 126.017  0.00  0.00    -0.488 OA
ATOM     17  C   LIG A   1      -5.326   0.334 126.253  0.00  0.00    +0.277 C 
ENDBRANCH  15  16
TORSDOF 1
ENDMDL
MODEL 4
REMARK VINA RESULT:      -6.1      6.585      8.872
REMARK  Name = NuBBE_1058
REMARK  2 active torsions:
REMARK  status: ('A' for Active; 'I' for Inactive)
REMARK    1  A    between atoms: C_15  and  O_16
REMARK    2  A    between atoms: O_16  and  C_17
REMARK                            x       y       z     vdW  Elec       q    Type
REMARK                         _______ _______ _______ _____ _____    ______ ____
ROOT
ATOM      1  O   LIG A   1      -9.858  -3.575 123.219  0.00  0.00    -0.245 OA
ATOM      2  C   LIG A   1      -9.356  -3.007 124.182  0.00  0.00    +0.337 A 
ATOM      3  C   LIG A   1      -8.444  -3.723 125.086  0.00  0.00    +0.092 A 
ATOM      4  C   LIG A   1      -7.879  -3.137 126.146  0.00  0.00    +0.020 A 
ATOM      5  O   LIG A   1      -9.600  -1.680 124.486  0.00  0.00    -0.418 OA
ATOM      6  C   LIG A   1      -9.015  -1.028 125.607  0.00  0.00    +0.185 A 
ATOM      7  C   LIG A   1      -8.152  -1.734 126.451  0.00  0.00    +0.040 A 
ATOM      8  C   LIG A   1      -7.598  -1.053 127.543  0.00  0.00    +0.063 A 
ATOM      9 CL   LIG A   1      -6.522  -1.763 128.677  0.00  0.00    -0.082 Cl
ATOM     10  C   LIG A   1      -7.898   0.302 127.789  0.00  0.00    +0.043 A 
ATOM     11  C   LIG A   1      -7.538   1.280 128.764  0.00  0.00    +0.051 A 
ATOM     12  C   LIG A   1      -8.196   2.435 128.422  0.00  0.00    +0.196 A 
ATOM     13  O   LIG A   1      -8.938   2.244 127.305  0.00  0.00    -0.459 OA
ATOM     14  C   LIG A   1      -8.767   0.949 126.907  0.00  0.00    +0.181 A 
ATOM     15  C   LIG A   1      -9.353   0.328 125.793  0.00  0.00    +0.206 A 
ENDROOT
BRANCH  15  16
ATOM     16  O   LIG A   1     -10.223   0.880 124.869  0.00  0.00    -0.488 OA
ATOM     17  C   LIG A   1      -9.664   1.780 123.922  0.00  0.00    +0.277 C 
ENDBRANCH  15  16
TORSDOF 1
ENDMDL
MODEL 5
REMARK VINA RESULT:      -5.9      6.981      9.999
REMARK  Name = NuBBE_1058
REMARK  2 active torsions:
REMARK  status: ('A' for Active; 'I' for Inactive)
REMARK    1  A    between atoms: C_15  and  O_16
REMARK    2  A    between atoms: O_16  and  C_17
REMARK                            x       y       z     vdW  Elec       q    Type
REMARK                         _______ _______ _______ _____ _____    ______ ____
ROOT
ATOM      1  O   LIG A   1      -7.848  -3.109 130.327  0.00  0.00    -0.245 OA
ATOM      2  C   LIG A   1      -8.091  -2.897 129.145  0.00  0.00    +0.337 A 
ATOM      3  C   LIG A   1      -8.603  -3.967 128.277  0.00  0.00    +0.092 A 
ATOM      4  C   LIG A   1      -8.877  -3.773 126.984  0.00  0.00    +0.020 A 
ATOM      5  O   LIG A   1      -7.906  -1.662 128.548  0.00  0.00    -0.418 OA
ATOM      6  C   LIG A   1      -8.189  -1.423 127.174  0.00  0.00    +0.185 A 
ATOM      7  C   LIG A   1      -8.674  -2.460 126.372  0.00  0.00    +0.040 A 
ATOM      8  C   LIG A   1      -8.938  -2.182 125.024  0.00  0.00    +0.063 A 
ATOM      9 CL   LIG A   1      -9.537  -3.333 123.900  0.00  0.00    -0.082 Cl
ATOM     10  C   LIG A   1      -8.722  -0.896 124.488  0.00  0.00    +0.043 A 
ATOM     11  C   LIG A   1      -8.869  -0.270 123.214  0.00  0.00    +0.051 A 
ATOM     12  C   LIG A   1      -8.472   1.035 123.370  0.00  0.00    +0.196 A 
ATOM     13  O   LIG A   1      -8.089   1.263 124.649  0.00  0.00    -0.459 OA
ATOM     14  C   LIG A   1      -8.236   0.096 125.344  0.00  0.00    +0.181 A 
ATOM     15  C   LIG A   1      -7.954  -0.115 126.702  0.00  0.00    +0.206 A 
ENDROOT
BRANCH  15  16
ATOM     16  O   LIG A   1      -7.470   0.796 127.624  0.00  0.00    -0.488 OA
ATOM     17  C   LIG A   1      -8.393   1.756 128.119  0.00  0.00    +0.277 C 
ENDBRANCH  15  16
TORSDOF 1
ENDMDL
MODEL 6
REMARK VINA RESULT:      -5.7      6.235      7.836
REMARK  Name = NuBBE_1058
REMARK  2 active torsions:
REMARK  status: ('A' for Active; 'I' for Inactive)
REMARK    1  A    between atoms: C_15  and  O_16
REMARK    2  A    between atoms: O_16  and  C_17
REMARK                            x       y       z     vdW  Elec       q    Type
REMARK                         _______ _______ _______ _____ _____    ______ ____
ROOT
ATOM      1  O   LIG A   1      -4.280   5.700 121.349  0.00  0.00    -0.245 OA
ATOM      2  C   LIG A   1      -4.955   4.855 121.924  0.00  0.00    +0.337 A 
ATOM      3  C   LIG A   1      -5.475   3.685 121.201  0.00  0.00    +0.092 A 
ATOM      4  C   LIG A   1      -6.216   2.745 121.795  0.00  0.00    +0.020 A 
ATOM      5  O   LIG A   1      -5.273   4.932 123.269  0.00  0.00    -0.418 OA
ATOM      6  C   LIG A   1      -6.059   3.948 123.930  0.00  0.00    +0.185 A 
ATOM      7  C   LIG A   1      -6.542   2.847 123.217  0.00  0.00    +0.040 A 
ATOM      8  C   LIG A   1      -7.312   1.902 123.907  0.00  0.00    +0.063 A 
ATOM      9 CL   LIG A   1      -7.982   0.493 123.190  0.00  0.00    -0.082 Cl
ATOM     10  C   LIG A   1      -7.596   2.053 125.280  0.00  0.00    +0.043 A 
ATOM     11  C   LIG A   1      -8.319   1.324 126.271  0.00  0.00    +0.051 A 
ATOM     12  C   LIG A   1      -8.205   2.034 127.441  0.00  0.00    +0.196 A 
ATOM     13  O   LIG A   1      -7.462   3.150 127.246  0.00  0.00    -0.459 OA
ATOM     14  C   LIG A   1      -7.083   3.176 125.934  0.00  0.00    +0.181 A 
ATOM     15  C   LIG A   1      -6.303   4.157 125.304  0.00  0.00    +0.206 A 
ENDROOT
BRANCH  15  16
ATOM     16  O   LIG A   1      -5.755   5.299 125.861  0.00  0.00    -0.488 OA
ATOM     17  C   LIG A   1      -4.691   5.113 126.784  0.00  0.00    +0.277 C 
ENDBRANCH  15  16
TORSDOF 1
ENDMDL
MODEL 7
REMARK VINA RESULT:      -5.7      6.250      8.845
REMARK  Name = NuBBE_1058
REMARK  2 active torsions:
REMARK  status: ('A' for Active; 'I' for Inactive)
REMARK    1  A    between atoms: C_15  and  O_16
REMARK    2  A    between atoms: O_16  and  C_17
REMARK                            x       y       z     vdW  Elec       q    Type
REMARK                         _______ _______ _______ _____ _____    ______ ____
ROOT
ATOM      1  O   LIG A   1      -8.687   3.525 128.512  0.00  0.00    -0.245 OA
ATOM      2  C   LIG A   1      -8.447   2.360 128.213  0.00  0.00    +0.337 A 
ATOM      3  C   LIG A   1      -7.540   1.544 129.033  0.00  0.00    +0.092 A 
ATOM      4  C   LIG A   1      -7.254   0.273 128.736  0.00  0.00    +0.020 A 
ATOM      5  O   LIG A   1      -8.998   1.738 127.107  0.00  0.00    -0.418 OA
ATOM      6  C   LIG A   1      -8.714   0.386 126.765  0.00  0.00    +0.185 A 
ATOM      7  C   LIG A   1      -7.847  -0.366 127.562  0.00  0.00    +0.040 A 
ATOM      8  C   LIG A   1      -7.594  -1.693 127.189  0.00  0.00    +0.063 A 
ATOM      9 CL   LIG A   1      -6.559  -2.758 128.051  0.00  0.00    -0.082 Cl
ATOM     10  C   LIG A   1      -8.194  -2.257 126.044  0.00  0.00    +0.043 A 
ATOM     11  C   LIG A   1      -8.170  -3.521 125.382  0.00  0.00    +0.051 A 
ATOM     12  C   LIG A   1      -8.995  -3.407 124.291  0.00  0.00    +0.196 A 
ATOM     13  O   LIG A   1      -9.529  -2.164 124.229  0.00  0.00    -0.459 OA
ATOM     14  C   LIG A   1      -9.051  -1.451 125.292  0.00  0.00    +0.181 A 
ATOM     15  C   LIG A   1      -9.349  -0.117 125.611  0.00  0.00    +0.206 A 
ENDROOT
BRANCH  15  16
ATOM     16  O   LIG A   1     -10.178   0.758 124.931  0.00  0.00    -0.488 OA
ATOM     17  C   LIG A   1      -9.677   1.300 123.717  0.00  0.00    +0.277 C 
ENDBRANCH  15  16
TORSDOF 1
ENDMDL
MODEL 8
REMARK VINA RESULT:      -5.7      9.175     10.729
REMARK  Name = NuBBE_1058
REMARK  2 active torsions:
REMARK  status: ('A' for Active; 'I' for Inactive)
REMARK    1  A    between atoms: C_15  and  O_16
REMARK    2  A    between atoms: O_16  and  C_17
REMARK                            x       y       z     vdW  Elec       q    Type
REMARK                         _______ _______ _______ _____ _____    ______ ____
ROOT
ATOM      1  O   LIG A   1      -3.834  -1.979 130.678  0.00  0.00    -0.245 OA
ATOM      2  C   LIG A   1      -4.833  -2.269 130.029  0.00  0.00    +0.337 A 
ATOM      3  C   LIG A   1      -5.898  -3.096 130.615  0.00  0.00    +0.092 A 
ATOM      4  C   LIG A   1      -6.999  -3.432 129.937  0.00  0.00    +0.020 A 
ATOM      5  O   LIG A   1      -5.031  -1.851 128.725  0.00  0.00    -0.418 OA
ATOM      6  C   LIG A   1      -6.192  -2.193 127.977  0.00  0.00    +0.185 A 
ATOM      7  C   LIG A   1      -7.188  -2.981 128.559  0.00  0.00    +0.040 A 
ATOM      8  C   LIG A   1      -8.315  -3.294 127.787  0.00  0.00    +0.063 A 
ATOM      9 CL   LIG A   1      -9.631  -4.247 128.340  0.00  0.00    -0.082 Cl
ATOM     10  C   LIG A   1      -8.443  -2.831 126.461  0.00  0.00    +0.043 A 
ATOM     11  C   LIG A   1      -9.407  -2.948 125.415  0.00  0.00    +0.051 A 
ATOM     12  C   LIG A   1      -8.912  -2.244 124.346  0.00  0.00    +0.196 A 
ATOM     13  O   LIG A   1      -7.711  -1.699 124.653  0.00  0.00    -0.459 OA
ATOM     14  C   LIG A   1      -7.411  -2.048 125.940  0.00  0.00    +0.181 A 
ATOM     15  C   LIG A   1      -6.260  -1.695 126.659  0.00  0.00    +0.206 A 
ENDROOT
BRANCH  15  16
ATOM     16  O   LIG A   1      -5.188  -0.930 126.232  0.00  0.00    -0.488 OA
ATOM     17  C   LIG A   1      -5.394   0.473 126.155  0.00  0.00    +0.277 C 
ENDBRANCH  15  16
TORSDOF 1
ENDMDL
MODEL 9
REMARK VINA RESULT:      -5.7      6.810      8.768
REMARK  Name = NuBBE_1058
REMARK  2 active torsions:
REMARK  status: ('A' for Active; 'I' for Inactive)
REMARK    1  A    between atoms: C_15  and  O_16
REMARK    2  A    between atoms: O_16  and  C_17
REMARK                            x       y       z     vdW  Elec       q    Type
REMARK                         _______ _______ _______ _____ _____    ______ ____
ROOT
ATOM      1  O   LIG A   1      -8.999   3.078 122.808  0.00  0.00    -0.245 OA
ATOM      2  C   LIG A   1      -9.016   1.928 123.232  0.00  0.00    +0.337 A 
ATOM      3  C   LIG A   1      -9.502   0.823 122.394  0.00  0.00    +0.092 A 
ATOM      4  C   LIG A   1      -9.537  -0.442 122.824  0.00  0.00    +0.020 A 
ATOM      5  O   LIG A   1      -8.590   1.589 124.504  0.00  0.00    -0.418 OA
ATOM      6  C   LIG A   1      -8.614   0.252 124.991  0.00  0.00    +0.185 A 
ATOM      7  C   LIG A   1      -9.082  -0.779 124.172  0.00  0.00    +0.040 A 
ATOM      8  C   LIG A   1      -9.089  -2.081 124.692  0.00  0.00    +0.063 A 
ATOM      9 CL   LIG A   1      -9.628  -3.463 123.827  0.00  0.00    -0.082 Cl
ATOM     10  C   LIG A   1      -8.640  -2.347 126.001  0.00  0.00    +0.043 A 
ATOM     11  C   LIG A   1      -8.509  -3.498 126.834  0.00  0.00    +0.051 A 
ATOM     12  C   LIG A   1      -7.994  -3.061 128.029  0.00  0.00    +0.196 A 
ATOM     13  O   LIG A   1      -7.796  -1.721 127.997  0.00  0.00    -0.459 OA
ATOM     14  C   LIG A   1      -8.184  -1.271 126.767  0.00  0.00    +0.181 A 
ATOM     15  C   LIG A   1      -8.147   0.054 126.307  0.00  0.00    +0.206 A 
ENDROOT
BRANCH  15  16
ATOM     16  O   LIG A   1      -7.719   1.181 126.987  0.00  0.00    -0.488 OA
ATOM     17  C   LIG A   1      -8.591   1.698 127.982  0.00  0.00    +0.277 C 
ENDBRANCH  15  16
TORSDOF 1
ENDMDL
