MODEL 1
REMARK VINA RESULT:      -8.2      0.000      0.000
REMARK  Name = NuBBE_2449
REMARK  4 active torsions:
REMARK  status: ('A' for Active; 'I' for Inactive)
REMARK    1  A    between atoms: O_1  and  C_2
REMARK    2  A    between atoms: C_3  and  C_14
REMARK    3  A    between atoms: C_11  and  O_13
REMARK    4  A    between atoms: C_17  and  O_20
REMARK                            x       y       z     vdW  Elec       q    Type
REMARK                         _______ _______ _______ _____ _____    ______ ____
ROOT
ATOM      1  C   LIG A   1     -10.457   6.572 131.640  0.00  0.00    +0.208 A 
ATOM      2  C   LIG A   1      -9.357   6.623 130.867  0.00  0.00    +0.181 A 
ATOM      3  O   LIG A   1      -9.384   6.813 129.490  0.00  0.00    -0.451 OA
ATOM      4  C   LIG A   1     -10.597   6.937 128.863  0.00  0.00    +0.143 A 
ATOM      5  C   LIG A   1     -11.809   6.896 129.543  0.00  0.00    +0.068 A 
ATOM      6  C   LIG A   1     -11.787   6.711 130.998  0.00  0.00    +0.234 A 
ATOM      7  O   LIG A   1     -12.804   6.672 131.683  0.00  0.00    -0.283 OA
ATOM      8  C   LIG A   1     -13.019   7.030 128.855  0.00  0.00    +0.019 A 
ATOM      9  C   LIG A   1     -13.008   7.208 127.470  0.00  0.00    +0.046 A 
ATOM     10  C   LIG A   1     -11.790   7.248 126.796  0.00  0.00    +0.120 A 
ATOM     11  C   LIG A   1     -10.584   7.115 127.480  0.00  0.00    +0.092 A 
ENDROOT
BRANCH   2  12
ATOM     12  C   LIG A   1      -7.983   6.507 131.404  0.00  0.00    +0.021 A 
ATOM     13  C   LIG A   1      -6.918   7.136 130.736  0.00  0.00    +0.015 A 
ATOM     14  C   LIG A   1      -5.606   7.019 131.207  0.00  0.00    +0.046 A 
ATOM     15  C   LIG A   1      -5.354   6.265 132.346  0.00  0.00    +0.117 A 
ATOM     16  C   LIG A   1      -6.388   5.626 133.018  0.00  0.00    +0.046 A 
ATOM     17  C   LIG A   1      -7.698   5.744 132.546  0.00  0.00    +0.015 A 
BRANCH  15  18
ATOM     18  O   LIG A   1      -4.091   6.123 132.840  0.00  0.00    -0.507 OA
ATOM     19  H   LIG A   1      -3.791   6.984 133.175  0.00  0.00    +0.292 HD
ENDBRANCH  15  18
ENDBRANCH   2  12
BRANCH   1  20
ATOM     20  O   LIG A   1     -10.442   6.413 133.014  0.00  0.00    -0.501 OA
ATOM     21  H   LIG A   1     -11.160   5.771 133.203  0.00  0.00    +0.292 HD
ENDBRANCH   1  20
BRANCH  10  22
ATOM     22  O   LIG A   1     -11.733   7.420 125.445  0.00  0.00    -0.507 OA
ATOM     23  H   LIG A   1     -11.495   8.342 125.252  0.00  0.00    +0.292 HD
ENDBRANCH  10  22
TORSDOF 4
ENDMDL
MODEL 2
REMARK VINA RESULT:      -8.2      8.360     10.303
REMARK  Name = NuBBE_2449
REMARK  4 active torsions:
REMARK  status: ('A' for Active; 'I' for Inactive)
REMARK    1  A    between atoms: O_1  and  C_2
REMARK    2  A    between atoms: C_3  and  C_14
REMARK    3  A    between atoms: C_11  and  O_13
REMARK    4  A    between atoms: C_17  and  O_20
REMARK                            x       y       z     vdW  Elec       q    Type
REMARK                         _______ _______ _______ _____ _____    ______ ____
ROOT
ATOM      1  C   LIG A   1      -7.901   2.906 124.133  0.00  0.00    +0.208 A 
ATOM      2  C   LIG A   1      -7.192   2.454 123.082  0.00  0.00    +0.181 A 
ATOM      3  O   LIG A   1      -6.898   1.112 122.864  0.00  0.00    -0.451 OA
ATOM      4  C   LIG A   1      -7.331   0.183 123.773  0.00  0.00    +0.143 A 
ATOM      5  C   LIG A   1      -8.067   0.518 124.906  0.00  0.00    +0.068 A 
ATOM      6  C   LIG A   1      -8.393   1.928 125.134  0.00  0.00    +0.234 A 
ATOM      7  O   LIG A   1      -9.045   2.317 126.098  0.00  0.00    -0.283 OA
ATOM      8  C   LIG A   1      -8.487  -0.471 125.802  0.00  0.00    +0.019 A 
ATOM      9  C   LIG A   1      -8.162  -1.806 125.556  0.00  0.00    +0.046 A 
ATOM     10  C   LIG A   1      -7.426  -2.133 124.420  0.00  0.00    +0.120 A 
ATOM     11  C   LIG A   1      -7.007  -1.150 123.527  0.00  0.00    +0.092 A 
ENDROOT
BRANCH   2  12
ATOM     12  C   LIG A   1      -6.663   3.338 122.020  0.00  0.00    +0.021 A 
ATOM     13  C   LIG A   1      -7.393   3.513 120.832  0.00  0.00    +0.015 A 
ATOM     14  C   LIG A   1      -6.903   4.321 119.801  0.00  0.00    +0.046 A 
ATOM     15  C   LIG A   1      -5.674   4.952 119.953  0.00  0.00    +0.117 A 
ATOM     16  C   LIG A   1      -4.929   4.786 121.113  0.00  0.00    +0.046 A 
ATOM     17  C   LIG A   1      -5.421   3.979 122.143  0.00  0.00    +0.015 A 
BRANCH  15  18
ATOM     18  O   LIG A   1      -5.157   5.748 118.974  0.00  0.00    -0.507 OA
ATOM     19  H   LIG A   1      -5.747   5.714 118.203  0.00  0.00    +0.292 HD
ENDBRANCH  15  18
ENDBRANCH   2  12
BRANCH   1  20
ATOM     20  O   LIG A   1      -8.225   4.233 124.345  0.00  0.00    -0.501 OA
ATOM     21  H   LIG A   1      -8.420   4.592 123.452  0.00  0.00    +0.292 HD
ENDBRANCH   1  20
BRANCH  10  22
ATOM     22  O   LIG A   1      -7.088  -3.424 124.142  0.00  0.00    -0.507 OA
ATOM     23  H   LIG A   1      -6.283  -3.655 124.635  0.00  0.00    +0.292 HD
ENDBRANCH  10  22
TORSDOF 4
ENDMDL
MODEL 3
REMARK VINA RESULT:      -7.7      2.540      6.691
REMARK  Name = NuBBE_2449
REMARK  4 active torsions:
REMARK  status: ('A' for Active; 'I' for Inactive)
REMARK    1  A    between atoms: O_1  and  C_2
REMARK    2  A    between atoms: C_3  and  C_14
REMARK    3  A    between atoms: C_11  and  O_13
REMARK    4  A    between atoms: C_17  and  O_20
REMARK                            x       y       z     vdW  Elec       q    Type
REMARK                         _______ _______ _______ _____ _____    ______ ____
ROOT
ATOM      1  C   LIG A   1     -10.474   4.512 130.952  0.00  0.00    +0.208 A 
ATOM      2  C   LIG A   1     -10.391   5.813 131.289  0.00  0.00    +0.181 A 
ATOM      3  O   LIG A   1      -9.594   6.298 132.320  0.00  0.00    -0.451 OA
ATOM      4  C   LIG A   1      -8.858   5.411 133.061  0.00  0.00    +0.143 A 
ATOM      5  C   LIG A   1      -8.859   4.040 132.822  0.00  0.00    +0.068 A 
ATOM      6  C   LIG A   1      -9.685   3.523 131.727  0.00  0.00    +0.234 A 
ATOM      7  O   LIG A   1      -9.741   2.333 131.435  0.00  0.00    -0.283 OA
ATOM      8  C   LIG A   1      -8.087   3.178 133.608  0.00  0.00    +0.019 A 
ATOM      9  C   LIG A   1      -7.308   3.700 134.642  0.00  0.00    +0.046 A 
ATOM     10  C   LIG A   1      -7.313   5.074 134.876  0.00  0.00    +0.120 A 
ATOM     11  C   LIG A   1      -8.081   5.933 134.094  0.00  0.00    +0.092 A 
ENDROOT
BRANCH   2  12
ATOM     12  C   LIG A   1     -11.125   6.883 130.577  0.00  0.00    +0.021 A 
ATOM     13  C   LIG A   1     -10.564   7.467 129.429  0.00  0.00    +0.015 A 
ATOM     14  C   LIG A   1     -11.224   8.500 128.754  0.00  0.00    +0.046 A 
ATOM     15  C   LIG A   1     -12.447   8.956 129.232  0.00  0.00    +0.117 A 
ATOM     16  C   LIG A   1     -13.016   8.402 130.370  0.00  0.00    +0.046 A 
ATOM     17  C   LIG A   1     -12.355   7.369 131.044  0.00  0.00    +0.015 A 
BRANCH  15  18
ATOM     18  O   LIG A   1     -13.124   9.961 128.607  0.00  0.00    -0.507 OA
ATOM     19  H   LIG A   1     -14.075   9.834 128.758  0.00  0.00    +0.292 HD
ENDBRANCH  15  18
ENDBRANCH   2  12
BRANCH   1  20
ATOM     20  O   LIG A   1     -11.239   4.021 129.910  0.00  0.00    -0.501 OA
ATOM     21  H   LIG A   1     -11.746   4.795 129.581  0.00  0.00    +0.292 HD
ENDBRANCH   1  20
BRANCH  10  22
ATOM     22  O   LIG A   1      -6.568   5.625 135.874  0.00  0.00    -0.507 OA
ATOM     23  H   LIG A   1      -6.180   4.914 136.411  0.00  0.00    +0.292 HD
ENDBRANCH  10  22
TORSDOF 4
ENDMDL
MODEL 4
REMARK VINA RESULT:      -7.5      1.526      6.371
REMARK  Name = NuBBE_2449
REMARK  4 active torsions:
REMARK  status: ('A' for Active; 'I' for Inactive)
REMARK    1  A    between atoms: O_1  and  C_2
REMARK    2  A    between atoms: C_3  and  C_14
REMARK    3  A    between atoms: C_11  and  O_13
REMARK    4  A    between atoms: C_17  and  O_20
REMARK                            x       y       z     vdW  Elec       q    Type
REMARK                         _______ _______ _______ _____ _____    ______ ____
ROOT
ATOM      1  C   LIG A   1      -9.440   6.022 132.266  0.00  0.00    +0.208 A 
ATOM      2  C   LIG A   1      -9.315   6.744 131.137  0.00  0.00    +0.181 A 
ATOM      3  O   LIG A   1      -8.095   7.151 130.607  0.00  0.00    -0.451 OA
ATOM      4  C   LIG A   1      -6.942   6.823 131.272  0.00  0.00    +0.143 A 
ATOM      5  C   LIG A   1      -6.932   6.087 132.453  0.00  0.00    +0.068 A 
ATOM      6  C   LIG A   1      -8.213   5.642 133.009  0.00  0.00    +0.234 A 
ATOM      7  O   LIG A   1      -8.302   4.980 134.038  0.00  0.00    -0.283 OA
ATOM      8  C   LIG A   1      -5.726   5.778 133.091  0.00  0.00    +0.019 A 
ATOM      9  C   LIG A   1      -4.522   6.213 132.535  0.00  0.00    +0.046 A 
ATOM     10  C   LIG A   1      -4.540   6.950 131.353  0.00  0.00    +0.120 A 
ATOM     11  C   LIG A   1      -5.740   7.258 130.717  0.00  0.00    +0.092 A 
ENDROOT
BRANCH   2  12
ATOM     12  C   LIG A   1     -10.469   7.167 130.313  0.00  0.00    +0.021 A 
ATOM     13  C   LIG A   1     -10.250   7.858 129.110  0.00  0.00    +0.015 A 
ATOM     14  C   LIG A   1     -11.323   8.293 128.326  0.00  0.00    +0.046 A 
ATOM     15  C   LIG A   1     -12.623   8.043 128.749  0.00  0.00    +0.117 A 
ATOM     16  C   LIG A   1     -12.865   7.371 129.940  0.00  0.00    +0.046 A 
ATOM     17  C   LIG A   1     -11.791   6.936 130.722  0.00  0.00    +0.015 A 
BRANCH  15  18
ATOM     18  O   LIG A   1     -13.700   8.449 128.018  0.00  0.00    -0.507 OA
ATOM     19  H   LIG A   1     -13.516   9.333 127.660  0.00  0.00    +0.292 HD
ENDBRANCH  15  18
ENDBRANCH   2  12
BRANCH   1  20
ATOM     20  O   LIG A   1     -10.645   5.586 132.787  0.00  0.00    -0.501 OA
ATOM     21  H   LIG A   1     -11.118   6.405 133.050  0.00  0.00    +0.292 HD
ENDBRANCH   1  20
BRANCH  10  22
ATOM     22  O   LIG A   1      -3.388   7.394 130.777  0.00  0.00    -0.507 OA
ATOM     23  H   LIG A   1      -3.609   8.011 130.060  0.00  0.00    +0.292 HD
ENDBRANCH  10  22
TORSDOF 4
ENDMDL
MODEL 5
REMARK VINA RESULT:      -7.5      3.203      6.182
REMARK  Name = NuBBE_2449
REMARK  4 active torsions:
REMARK  status: ('A' for Active; 'I' for Inactive)
REMARK    1  A    between atoms: O_1  and  C_2
REMARK    2  A    between atoms: C_3  and  C_14
REMARK    3  A    between atoms: C_11  and  O_13
REMARK    4  A    between atoms: C_17  and  O_20
REMARK                            x       y       z     vdW  Elec       q    Type
REMARK                         _______ _______ _______ _____ _____    ______ ____
ROOT
ATOM      1  C   LIG A   1      -9.717   5.413 132.645  0.00  0.00    +0.208 A 
ATOM      2  C   LIG A   1     -10.026   5.369 131.336  0.00  0.00    +0.181 A 
ATOM      3  O   LIG A   1      -9.778   4.274 130.516  0.00  0.00    -0.451 OA
ATOM      4  C   LIG A   1      -9.164   3.171 131.052  0.00  0.00    +0.143 A 
ATOM      5  C   LIG A   1      -8.786   3.090 132.388  0.00  0.00    +0.068 A 
ATOM      6  C   LIG A   1      -9.058   4.235 133.262  0.00  0.00    +0.234 A 
ATOM      7  O   LIG A   1      -8.771   4.250 134.454  0.00  0.00    -0.283 OA
ATOM      8  C   LIG A   1      -8.164   1.940 132.885  0.00  0.00    +0.019 A 
ATOM      9  C   LIG A   1      -7.921   0.864 132.029  0.00  0.00    +0.046 A 
ATOM     10  C   LIG A   1      -8.302   0.953 130.693  0.00  0.00    +0.120 A 
ATOM     11  C   LIG A   1      -8.922   2.098 130.197  0.00  0.00    +0.092 A 
ENDROOT
BRANCH   2  12
ATOM     12  C   LIG A   1     -10.693   6.481 130.623  0.00  0.00    +0.021 A 
ATOM     13  C   LIG A   1     -12.020   6.815 130.940  0.00  0.00    +0.015 A 
ATOM     14  C   LIG A   1     -12.683   7.844 130.262  0.00  0.00    +0.046 A 
ATOM     15  C   LIG A   1     -12.020   8.537 129.256  0.00  0.00    +0.117 A 
ATOM     16  C   LIG A   1     -10.712   8.218 128.918  0.00  0.00    +0.046 A 
ATOM     17  C   LIG A   1     -10.051   7.191 129.597  0.00  0.00    +0.015 A 
BRANCH  15  18
ATOM     18  O   LIG A   1     -12.627   9.545 128.568  0.00  0.00    -0.507 OA
ATOM     19  H   LIG A   1     -11.974   9.956 127.978  0.00  0.00    +0.292 HD
ENDBRANCH  15  18
ENDBRANCH   2  12
BRANCH   1  20
ATOM     20  O   LIG A   1      -9.985   6.484 133.477  0.00  0.00    -0.501 OA
ATOM     21  H   LIG A   1     -10.854   6.827 133.176  0.00  0.00    +0.292 HD
ENDBRANCH   1  20
BRANCH  10  22
ATOM     22  O   LIG A   1      -8.083  -0.073 129.824  0.00  0.00    -0.507 OA
ATOM     23  H   LIG A   1      -7.316   0.141 129.267  0.00  0.00    +0.292 HD
ENDBRANCH  10  22
TORSDOF 4
ENDMDL
MODEL 6
REMARK VINA RESULT:      -7.3      9.774     10.530
REMARK  Name = NuBBE_2449
REMARK  4 active torsions:
REMARK  status: ('A' for Active; 'I' for Inactive)
REMARK    1  A    between atoms: O_1  and  C_2
REMARK    2  A    between atoms: C_3  and  C_14
REMARK    3  A    between atoms: C_11  and  O_13
REMARK    4  A    between atoms: C_17  and  O_20
REMARK                            x       y       z     vdW  Elec       q    Type
REMARK                         _______ _______ _______ _____ _____    ______ ____
ROOT
ATOM      1  C   LIG A   1      -5.786  -1.631 127.508  0.00  0.00    +0.208 A 
ATOM      2  C   LIG A   1      -6.724  -2.421 128.063  0.00  0.00    +0.181 A 
ATOM      3  O   LIG A   1      -7.786  -2.978 127.358  0.00  0.00    -0.451 OA
ATOM      4  C   LIG A   1      -7.911  -2.701 126.022  0.00  0.00    +0.143 A 
ATOM      5  C   LIG A   1      -7.015  -1.895 125.328  0.00  0.00    +0.068 A 
ATOM      6  C   LIG A   1      -5.885  -1.316 126.061  0.00  0.00    +0.234 A 
ATOM      7  O   LIG A   1      -5.039  -0.602 125.533  0.00  0.00    -0.283 OA
ATOM      8  C   LIG A   1      -7.187  -1.645 123.963  0.00  0.00    +0.019 A 
ATOM      9  C   LIG A   1      -8.272  -2.213 123.291  0.00  0.00    +0.046 A 
ATOM     10  C   LIG A   1      -9.165  -3.020 123.992  0.00  0.00    +0.120 A 
ATOM     11  C   LIG A   1      -8.994  -3.269 125.352  0.00  0.00    +0.092 A 
ENDROOT
BRANCH   2  12
ATOM     12  C   LIG A   1      -6.716  -2.808 129.491  0.00  0.00    +0.021 A 
ATOM     13  C   LIG A   1      -7.498  -2.091 130.412  0.00  0.00    +0.015 A 
ATOM     14  C   LIG A   1      -7.488  -2.419 131.772  0.00  0.00    +0.046 A 
ATOM     15  C   LIG A   1      -6.686  -3.464 132.216  0.00  0.00    +0.117 A 
ATOM     16  C   LIG A   1      -5.897  -4.181 131.327  0.00  0.00    +0.046 A 
ATOM     17  C   LIG A   1      -5.909  -3.852 129.968  0.00  0.00    +0.015 A 
BRANCH  15  18
ATOM     18  O   LIG A   1      -6.644  -3.818 133.532  0.00  0.00    -0.507 OA
ATOM     19  H   LIG A   1      -6.668  -3.010 134.071  0.00  0.00    +0.292 HD
ENDBRANCH  15  18
ENDBRANCH   2  12
BRANCH   1  20
ATOM     20  O   LIG A   1      -4.710  -1.095 128.191  0.00  0.00    -0.501 OA
ATOM     21  H   LIG A   1      -4.768  -0.128 128.037  0.00  0.00    +0.292 HD
ENDBRANCH   1  20
BRANCH  10  22
ATOM     22  O   LIG A   1     -10.236  -3.593 123.376  0.00  0.00    -0.507 OA
ATOM     23  H   LIG A   1      -9.940  -4.019 122.555  0.00  0.00    +0.292 HD
ENDBRANCH  10  22
TORSDOF 4
ENDMDL
MODEL 7
REMARK VINA RESULT:      -7.1      8.239      9.696
REMARK  Name = NuBBE_2449
REMARK  4 active torsions:
REMARK  status: ('A' for Active; 'I' for Inactive)
REMARK    1  A    between atoms: O_1  and  C_2
REMARK    2  A    between atoms: C_3  and  C_14
REMARK    3  A    between atoms: C_11  and  O_13
REMARK    4  A    between atoms: C_17  and  O_20
REMARK                            x       y       z     vdW  Elec       q    Type
REMARK                         _______ _______ _______ _____ _____    ______ ____
ROOT
ATOM      1  C   LIG A   1      -8.587  -0.387 124.660  0.00  0.00    +0.208 A 
ATOM      2  C   LIG A   1      -7.978   0.376 125.587  0.00  0.00    +0.181 A 
ATOM      3  O   LIG A   1      -7.674  -0.060 126.873  0.00  0.00    -0.451 OA
ATOM      4  C   LIG A   1      -8.028  -1.331 127.242  0.00  0.00    +0.143 A 
ATOM      5  C   LIG A   1      -8.669  -2.219 126.383  0.00  0.00    +0.068 A 
ATOM      6  C   LIG A   1      -8.978  -1.772 125.021  0.00  0.00    +0.234 A 
ATOM      7  O   LIG A   1      -9.531  -2.487 124.192  0.00  0.00    -0.283 OA
ATOM      8  C   LIG A   1      -9.006  -3.507 126.809  0.00  0.00    +0.019 A 
ATOM      9  C   LIG A   1      -8.696  -3.905 128.111  0.00  0.00    +0.046 A 
ATOM     10  C   LIG A   1      -8.055  -3.011 128.965  0.00  0.00    +0.120 A 
ATOM     11  C   LIG A   1      -7.718  -1.727 128.541  0.00  0.00    +0.092 A 
ENDROOT
BRANCH   2  12
ATOM     12  C   LIG A   1      -7.535   1.764 125.331  0.00  0.00    +0.021 A 
ATOM     13  C   LIG A   1      -6.181   2.027 125.067  0.00  0.00    +0.015 A 
ATOM     14  C   LIG A   1      -5.732   3.333 124.849  0.00  0.00    +0.046 A 
ATOM     15  C   LIG A   1      -6.639   4.385 124.903  0.00  0.00    +0.117 A 
ATOM     16  C   LIG A   1      -7.981   4.152 125.173  0.00  0.00    +0.046 A 
ATOM     17  C   LIG A   1      -8.428   2.845 125.390  0.00  0.00    +0.015 A 
BRANCH  15  18
ATOM     18  O   LIG A   1      -6.246   5.674 124.699  0.00  0.00    -0.507 OA
ATOM     19  H   LIG A   1      -6.454   5.920 123.782  0.00  0.00    +0.292 HD
ENDBRANCH  15  18
ENDBRANCH   2  12
BRANCH   1  20
ATOM     20  O   LIG A   1      -8.867   0.024 123.370  0.00  0.00    -0.501 OA
ATOM     21  H   LIG A   1      -8.117   0.607 123.122  0.00  0.00    +0.292 HD
ENDBRANCH   1  20
BRANCH  10  22
ATOM     22  O   LIG A   1      -7.734  -3.358 130.243  0.00  0.00    -0.507 OA
ATOM     23  H   LIG A   1      -8.462  -3.102 130.834  0.00  0.00    +0.292 HD
ENDBRANCH  10  22
TORSDOF 4
ENDMDL
MODEL 8
REMARK VINA RESULT:      -7.1      7.505      8.777
REMARK  Name = NuBBE_2449
REMARK  4 active torsions:
REMARK  status: ('A' for Active; 'I' for Inactive)
REMARK    1  A    between atoms: O_1  and  C_2
REMARK    2  A    between atoms: C_3  and  C_14
REMARK    3  A    between atoms: C_11  and  O_13
REMARK    4  A    between atoms: C_17  and  O_20
REMARK                            x       y       z     vdW  Elec       q    Type
REMARK                         _______ _______ _______ _____ _____    ______ ____
ROOT
ATOM      1  C   LIG A   1      -7.628   2.595 123.629  0.00  0.00    +0.208 A 
ATOM      2  C   LIG A   1      -6.364   3.011 123.831  0.00  0.00    +0.181 A 
ATOM      3  O   LIG A   1      -5.616   3.711 122.890  0.00  0.00    -0.451 OA
ATOM      4  C   LIG A   1      -6.178   3.984 121.669  0.00  0.00    +0.143 A 
ATOM      5  C   LIG A   1      -7.473   3.604 121.330  0.00  0.00    +0.068 A 
ATOM      6  C   LIG A   1      -8.271   2.879 122.323  0.00  0.00    +0.234 A 
ATOM      7  O   LIG A   1      -9.424   2.513 122.117  0.00  0.00    -0.283 OA
ATOM      8  C   LIG A   1      -7.999   3.909 120.070  0.00  0.00    +0.019 A 
ATOM      9  C   LIG A   1      -7.215   4.603 119.146  0.00  0.00    +0.046 A 
ATOM     10  C   LIG A   1      -5.920   4.980 119.494  0.00  0.00    +0.120 A 
ATOM     11  C   LIG A   1      -5.395   4.676 120.748  0.00  0.00    +0.092 A 
ENDROOT
BRANCH   2  12
ATOM     12  C   LIG A   1      -5.631   2.792 125.098  0.00  0.00    +0.021 A 
ATOM     13  C   LIG A   1      -4.803   3.806 125.609  0.00  0.00    +0.015 A 
ATOM     14  C   LIG A   1      -4.078   3.614 126.790  0.00  0.00    +0.046 A 
ATOM     15  C   LIG A   1      -4.174   2.400 127.460  0.00  0.00    +0.117 A 
ATOM     16  C   LIG A   1      -4.977   1.379 126.969  0.00  0.00    +0.046 A 
ATOM     17  C   LIG A   1      -5.701   1.573 125.790  0.00  0.00    +0.015 A 
BRANCH  15  18
ATOM     18  O   LIG A   1      -3.484   2.169 128.613  0.00  0.00    -0.507 OA
ATOM     19  H   LIG A   1      -2.635   1.754 128.389  0.00  0.00    +0.292 HD
ENDBRANCH  15  18
ENDBRANCH   2  12
BRANCH   1  20
ATOM     20  O   LIG A   1      -8.390   1.925 124.568  0.00  0.00    -0.501 OA
ATOM     21  H   LIG A   1      -7.796   1.231 124.928  0.00  0.00    +0.292 HD
ENDBRANCH   1  20
BRANCH  10  22
ATOM     22  O   LIG A   1      -5.121   5.657 118.623  0.00  0.00    -0.507 OA
ATOM     23  H   LIG A   1      -4.276   5.858 119.057  0.00  0.00    +0.292 HD
ENDBRANCH  10  22
TORSDOF 4
ENDMDL
MODEL 9
REMARK VINA RESULT:      -7.1      8.820      9.495
REMARK  Name = NuBBE_2449
REMARK  4 active torsions:
REMARK  status: ('A' for Active; 'I' for Inactive)
REMARK    1  A    between atoms: O_1  and  C_2
REMARK    2  A    between atoms: C_3  and  C_14
REMARK    3  A    between atoms: C_11  and  O_13
REMARK    4  A    between atoms: C_17  and  O_20
REMARK                            x       y       z     vdW  Elec       q    Type
REMARK                         _______ _______ _______ _____ _____    ______ ____
ROOT
ATOM      1  C   LIG A   1      -8.304  -2.451 125.511  0.00  0.00    +0.208 A 
ATOM      2  C   LIG A   1      -7.779  -1.738 126.525  0.00  0.00    +0.181 A 
ATOM      3  O   LIG A   1      -7.815  -0.350 126.598  0.00  0.00    -0.451 OA
ATOM      4  C   LIG A   1      -8.397   0.352 125.574  0.00  0.00    +0.143 A 
ATOM      5  C   LIG A   1      -8.970  -0.263 124.465  0.00  0.00    +0.068 A 
ATOM      6  C   LIG A   1      -8.949  -1.727 124.389  0.00  0.00    +0.234 A 
ATOM      7  O   LIG A   1      -9.438  -2.355 123.457  0.00  0.00    -0.283 OA
ATOM      8  C   LIG A   1      -9.553   0.500 123.448  0.00  0.00    +0.019 A 
ATOM      9  C   LIG A   1      -9.559   1.893 123.549  0.00  0.00    +0.046 A 
ATOM     10  C   LIG A   1      -8.984   2.501 124.663  0.00  0.00    +0.120 A 
ATOM     11  C   LIG A   1      -8.403   1.742 125.676  0.00  0.00    +0.092 A 
ENDROOT
BRANCH   2  12
ATOM     12  C   LIG A   1      -7.124  -2.357 127.698  0.00  0.00    +0.021 A 
ATOM     13  C   LIG A   1      -5.723  -2.347 127.801  0.00  0.00    +0.015 A 
ATOM     14  C   LIG A   1      -5.077  -2.950 128.885  0.00  0.00    +0.046 A 
ATOM     15  C   LIG A   1      -5.835  -3.573 129.870  0.00  0.00    +0.117 A 
ATOM     16  C   LIG A   1      -7.220  -3.606 129.786  0.00  0.00    +0.046 A 
ATOM     17  C   LIG A   1      -7.863  -3.002 128.702  0.00  0.00    +0.015 A 
BRANCH  15  18
ATOM     18  O   LIG A   1      -5.248  -4.174 130.944  0.00  0.00    -0.507 OA
ATOM     19  H   LIG A   1      -4.636  -4.856 130.622  0.00  0.00    +0.292 HD
ENDBRANCH  15  18
ENDBRANCH   2  12
BRANCH   1  20
ATOM     20  O   LIG A   1      -8.302  -3.832 125.443  0.00  0.00    -0.501 OA
ATOM     21  H   LIG A   1      -8.888  -4.050 124.687  0.00  0.00    +0.292 HD
ENDBRANCH   1  20
BRANCH  10  22
ATOM     22  O   LIG A   1      -8.968   3.856 124.801  0.00  0.00    -0.507 OA
ATOM     23  H   LIG A   1      -8.413   4.091 125.563  0.00  0.00    +0.292 HD
ENDBRANCH  10  22
TORSDOF 4
ENDMDL
