MODEL 1
REMARK VINA RESULT:      -6.9      0.000      0.000
REMARK  Name = NuBBE_1869
REMARK  11 active torsions:
REMARK  status: ('A' for Active; 'I' for Inactive)
REMARK    1  A    between atoms: C_1  and  O_2
REMARK    2  A    between atoms: O_2  and  C_3
REMARK    3  A    between atoms: C_4  and  C_5
REMARK    4  A    between atoms: C_8  and  O_9
REMARK    5  A    between atoms: O_9  and  C_10
REMARK    6  A    between atoms: C_11  and  O_12
REMARK    7  A    between atoms: C_13  and  O_14
REMARK    8  A    between atoms: C_18  and  O_19
REMARK    9  A    between atoms: C_20  and  O_21
REMARK   10  A    between atoms: C_22  and  O_23
REMARK   11  A    between atoms: O_23  and  C_24
REMARK                            x       y       z     vdW  Elec       q    Type
REMARK                         _______ _______ _______ _____ _____    ______ ____
ROOT
ATOM      1  C   LIG A   1      -7.506   3.262 128.541  0.00  0.00    +0.211 A 
ATOM      2  C   LIG A   1      -7.814   4.056 127.483  0.00  0.00    +0.184 A 
ATOM      3  O   LIG A   1      -8.727   5.118 127.517  0.00  0.00    -0.451 OA
ATOM      4  C   LIG A   1      -9.278   5.481 128.719  0.00  0.00    +0.147 A 
ATOM      5  C   LIG A   1      -9.035   4.778 129.884  0.00  0.00    +0.113 A 
ATOM      6  C   LIG A   1      -9.589   5.200 131.090  0.00  0.00    +0.177 A 
ATOM      7  C   LIG A   1     -10.391   6.347 131.127  0.00  0.00    +0.202 A 
ATOM      8  C   LIG A   1     -10.645   7.078 129.968  0.00  0.00    +0.169 A 
ATOM      9  C   LIG A   1     -10.101   6.619 128.750  0.00  0.00    +0.096 A 
ATOM     10  C   LIG A   1      -8.183   3.579 129.841  0.00  0.00    +0.238 A 
ATOM     11  O   LIG A   1      -8.051   2.938 130.866  0.00  0.00    -0.283 OA
ENDROOT
BRANCH   2  12
ATOM     12  C   LIG A   1      -7.211   3.917 126.130  0.00  0.00    +0.066 A 
ATOM     13  C   LIG A   1      -5.835   4.152 125.944  0.00  0.00    +0.019 A 
ATOM     14  C   LIG A   1      -5.257   4.188 124.656  0.00  0.00    +0.050 A 
ATOM     15  C   LIG A   1      -6.049   4.007 123.524  0.00  0.00    +0.165 A 
ATOM     16  C   LIG A   1      -7.408   3.749 123.710  0.00  0.00    +0.202 A 
ATOM     17  C   LIG A   1      -7.981   3.684 124.988  0.00  0.00    +0.173 A 
BRANCH  15  18
ATOM     18  O   LIG A   1      -5.633   4.054 122.218  0.00  0.00    -0.491 OA
ATOM     19  C   LIG A   1      -4.465   4.821 121.940  0.00  0.00    +0.277 C 
ENDBRANCH  15  18
BRANCH  16  20
ATOM     20  O   LIG A   1      -8.237   3.580 122.625  0.00  0.00    -0.501 OA
ATOM     21  H   LIG A   1      -7.664   3.187 121.934  0.00  0.00    +0.292 HD
ENDBRANCH  16  20
BRANCH  17  22
ATOM     22  O   LIG A   1      -9.321   3.409 125.077  0.00  0.00    -0.503 OA
ATOM     23  H   LIG A   1      -9.613   3.345 124.144  0.00  0.00    +0.292 HD
ENDBRANCH  17  22
ENDBRANCH   2  12
BRANCH   1  25
ATOM     24  C   LIG A   1      -7.028   0.950 128.197  0.00  0.00    +0.277 C 
ATOM     25  O   LIG A   1      -6.549   2.269 128.439  0.00  0.00    -0.488 OA
ENDBRANCH   1  25
BRANCH   6  26
ATOM     26  O   LIG A   1      -9.403   4.582 132.301  0.00  0.00    -0.503 OA
ATOM     27  H   LIG A   1      -9.653   5.235 132.998  0.00  0.00    +0.292 HD
ENDBRANCH   6  26
BRANCH   7  28
ATOM     28  O   LIG A   1     -10.910   6.676 132.350  0.00  0.00    -0.501 OA
ATOM     29  H   LIG A   1     -11.816   6.998 132.173  0.00  0.00    +0.292 HD
ENDBRANCH   7  28
BRANCH   8  30
ATOM     30  O   LIG A   1     -11.410   8.216 129.896  0.00  0.00    -0.491 OA
ATOM     31  C   LIG A   1     -11.855   8.575 128.584  0.00  0.00    +0.277 C 
ENDBRANCH   8  30
TORSDOF 8
ENDMDL
MODEL 2
REMARK VINA RESULT:      -6.9      4.201      7.094
REMARK  Name = NuBBE_1869
REMARK  11 active torsions:
REMARK  status: ('A' for Active; 'I' for Inactive)
REMARK    1  A    between atoms: C_1  and  O_2
REMARK    2  A    between atoms: O_2  and  C_3
REMARK    3  A    between atoms: C_4  and  C_5
REMARK    4  A    between atoms: C_8  and  O_9
REMARK    5  A    between atoms: O_9  and  C_10
REMARK    6  A    between atoms: C_11  and  O_12
REMARK    7  A    between atoms: C_13  and  O_14
REMARK    8  A    between atoms: C_18  and  O_19
REMARK    9  A    between atoms: C_20  and  O_21
REMARK   10  A    between atoms: C_22  and  O_23
REMARK   11  A    between atoms: O_23  and  C_24
REMARK                            x       y       z     vdW  Elec       q    Type
REMARK                         _______ _______ _______ _____ _____    ______ ____
ROOT
ATOM      1  C   LIG A   1      -9.200   4.303 131.668  0.00  0.00    +0.211 A 
ATOM      2  C   LIG A   1      -9.564   5.546 132.080  0.00  0.00    +0.184 A 
ATOM      3  O   LIG A   1      -9.153   6.146 133.276  0.00  0.00    -0.451 OA
ATOM      4  C   LIG A   1      -8.224   5.506 134.055  0.00  0.00    +0.147 A 
ATOM      5  C   LIG A   1      -7.746   4.246 133.747  0.00  0.00    +0.113 A 
ATOM      6  C   LIG A   1      -6.778   3.645 134.548  0.00  0.00    +0.177 A 
ATOM      7  C   LIG A   1      -6.279   4.320 135.668  0.00  0.00    +0.202 A 
ATOM      8  C   LIG A   1      -6.739   5.595 135.996  0.00  0.00    +0.169 A 
ATOM      9  C   LIG A   1      -7.741   6.176 135.191  0.00  0.00    +0.096 A 
ATOM     10  C   LIG A   1      -8.266   3.544 132.563  0.00  0.00    +0.238 A 
ATOM     11  O   LIG A   1      -7.884   2.408 132.362  0.00  0.00    -0.283 OA
ENDROOT
BRANCH   2  12
ATOM     12  C   LIG A   1     -10.447   6.458 131.303  0.00  0.00    +0.066 A 
ATOM     13  C   LIG A   1     -11.832   6.483 131.557  0.00  0.00    +0.019 A 
ATOM     14  C   LIG A   1     -12.721   7.212 130.738  0.00  0.00    +0.050 A 
ATOM     15  C   LIG A   1     -12.245   7.918 129.636  0.00  0.00    +0.165 A 
ATOM     16  C   LIG A   1     -10.869   7.915 129.400  0.00  0.00    +0.202 A 
ATOM     17  C   LIG A   1      -9.979   7.215 130.227  0.00  0.00    +0.173 A 
BRANCH  15  18
ATOM     18  O   LIG A   1     -12.993   8.634 128.737  0.00  0.00    -0.491 OA
ATOM     19  C   LIG A   1     -13.786   7.888 127.818  0.00  0.00    +0.277 C 
ENDBRANCH  15  18
BRANCH  16  20
ATOM     20  O   LIG A   1     -10.349   8.582 128.315  0.00  0.00    -0.501 OA
ATOM     21  H   LIG A   1      -9.424   8.782 128.566  0.00  0.00    +0.292 HD
ENDBRANCH  16  20
BRANCH  17  22
ATOM     22  O   LIG A   1      -8.642   7.280 129.930  0.00  0.00    -0.503 OA
ATOM     23  H   LIG A   1      -8.586   7.968 129.235  0.00  0.00    +0.292 HD
ENDBRANCH  17  22
ENDBRANCH   2  12
BRANCH   1  25
ATOM     24  C   LIG A   1      -8.625   3.794 129.409  0.00  0.00    +0.277 C 
ATOM     25  O   LIG A   1      -9.604   3.806 130.442  0.00  0.00    -0.488 OA
ENDBRANCH   1  25
BRANCH   6  26
ATOM     26  O   LIG A   1      -6.231   2.406 134.326  0.00  0.00    -0.503 OA
ATOM     27  H   LIG A   1      -6.219   2.267 133.349  0.00  0.00    +0.292 HD
ENDBRANCH   6  26
BRANCH   7  28
ATOM     28  O   LIG A   1      -5.346   3.646 136.408  0.00  0.00    -0.501 OA
ATOM     29  H   LIG A   1      -5.826   3.308 137.190  0.00  0.00    +0.292 HD
ENDBRANCH   7  28
BRANCH   8  30
ATOM     30  O   LIG A   1      -6.313   6.344 137.065  0.00  0.00    -0.491 OA
ATOM     31  C   LIG A   1      -7.305   6.612 138.060  0.00  0.00    +0.277 C 
ENDBRANCH   8  30
TORSDOF 8
ENDMDL
MODEL 3
REMARK VINA RESULT:      -6.9      4.781      7.719
REMARK  Name = NuBBE_1869
REMARK  11 active torsions:
REMARK  status: ('A' for Active; 'I' for Inactive)
REMARK    1  A    between atoms: C_1  and  O_2
REMARK    2  A    between atoms: O_2  and  C_3
REMARK    3  A    between atoms: C_4  and  C_5
REMARK    4  A    between atoms: C_8  and  O_9
REMARK    5  A    between atoms: O_9  and  C_10
REMARK    6  A    between atoms: C_11  and  O_12
REMARK    7  A    between atoms: C_13  and  O_14
REMARK    8  A    between atoms: C_18  and  O_19
REMARK    9  A    between atoms: C_20  and  O_21
REMARK   10  A    between atoms: C_22  and  O_23
REMARK   11  A    between atoms: O_23  and  C_24
REMARK                            x       y       z     vdW  Elec       q    Type
REMARK                         _______ _______ _______ _____ _____    ______ ____
ROOT
ATOM      1  C   LIG A   1      -7.288   2.437 124.262  0.00  0.00    +0.211 A 
ATOM      2  C   LIG A   1      -6.650   2.018 125.386  0.00  0.00    +0.184 A 
ATOM      3  O   LIG A   1      -6.854   0.781 126.009  0.00  0.00    -0.451 OA
ATOM      4  C   LIG A   1      -7.663  -0.144 125.401  0.00  0.00    +0.147 A 
ATOM      5  C   LIG A   1      -8.358   0.136 124.240  0.00  0.00    +0.113 A 
ATOM      6  C   LIG A   1      -9.144  -0.842 123.636  0.00  0.00    +0.177 A 
ATOM      7  C   LIG A   1      -9.227  -2.120 124.202  0.00  0.00    +0.202 A 
ATOM      8  C   LIG A   1      -8.529  -2.430 125.369  0.00  0.00    +0.169 A 
ATOM      9  C   LIG A   1      -7.762  -1.418 125.983  0.00  0.00    +0.096 A 
ATOM     10  C   LIG A   1      -8.259   1.478 123.642  0.00  0.00    +0.238 A 
ATOM     11  O   LIG A   1      -8.942   1.717 122.665  0.00  0.00    -0.283 OA
ENDROOT
BRANCH   2  12
ATOM     12  C   LIG A   1      -5.626   2.817 126.113  0.00  0.00    +0.066 A 
ATOM     13  C   LIG A   1      -5.867   4.173 126.407  0.00  0.00    +0.019 A 
ATOM     14  C   LIG A   1      -4.861   5.002 126.949  0.00  0.00    +0.050 A 
ATOM     15  C   LIG A   1      -3.586   4.497 127.191  0.00  0.00    +0.165 A 
ATOM     16  C   LIG A   1      -3.355   3.147 126.924  0.00  0.00    +0.202 A 
ATOM     17  C   LIG A   1      -4.358   2.312 126.412  0.00  0.00    +0.173 A 
BRANCH  15  18
ATOM     18  O   LIG A   1      -2.508   5.193 127.675  0.00  0.00    -0.491 OA
ATOM     19  C   LIG A   1      -2.742   6.534 128.097  0.00  0.00    +0.277 C 
ENDBRANCH  15  18
BRANCH  16  20
ATOM     20  O   LIG A   1      -2.108   2.603 127.129  0.00  0.00    -0.501 OA
ATOM     21  H   LIG A   1      -1.627   3.275 127.654  0.00  0.00    +0.292 HD
ENDBRANCH  16  20
BRANCH  17  22
ATOM     22  O   LIG A   1      -4.047   0.995 126.194  0.00  0.00    -0.503 OA
ATOM     23  H   LIG A   1      -3.578   1.000 125.334  0.00  0.00    +0.292 HD
ENDBRANCH  17  22
ENDBRANCH   2  12
BRANCH   1  25
ATOM     24  C   LIG A   1      -6.071   3.622 122.587  0.00  0.00    +0.277 C 
ATOM     25  O   LIG A   1      -6.987   3.654 123.677  0.00  0.00    -0.488 OA
ENDBRANCH   1  25
BRANCH   6  26
ATOM     26  O   LIG A   1      -9.864  -0.673 122.480  0.00  0.00    -0.503 OA
ATOM     27  H   LIG A   1      -9.980  -1.567 122.080  0.00  0.00    +0.292 HD
ENDBRANCH   6  26
BRANCH   7  28
ATOM     28  O   LIG A   1     -10.037  -3.012 123.554  0.00  0.00    -0.501 OA
ATOM     29  H   LIG A   1      -9.445  -3.723 123.238  0.00  0.00    +0.292 HD
ENDBRANCH   7  28
BRANCH   8  30
ATOM     30  O   LIG A   1      -8.537  -3.649 126.001  0.00  0.00    -0.491 OA
ATOM     31  C   LIG A   1      -8.678  -3.601 127.424  0.00  0.00    +0.277 C 
ENDBRANCH   8  30
TORSDOF 8
ENDMDL
MODEL 4
REMARK VINA RESULT:      -6.8      4.154      7.120
REMARK  Name = NuBBE_1869
REMARK  11 active torsions:
REMARK  status: ('A' for Active; 'I' for Inactive)
REMARK    1  A    between atoms: C_1  and  O_2
REMARK    2  A    between atoms: O_2  and  C_3
REMARK    3  A    between atoms: C_4  and  C_5
REMARK    4  A    between atoms: C_8  and  O_9
REMARK    5  A    between atoms: O_9  and  C_10
REMARK    6  A    between atoms: C_11  and  O_12
REMARK    7  A    between atoms: C_13  and  O_14
REMARK    8  A    between atoms: C_18  and  O_19
REMARK    9  A    between atoms: C_20  and  O_21
REMARK   10  A    between atoms: C_22  and  O_23
REMARK   11  A    between atoms: O_23  and  C_24
REMARK                            x       y       z     vdW  Elec       q    Type
REMARK                         _______ _______ _______ _____ _____    ______ ____
ROOT
ATOM      1  C   LIG A   1      -8.768   4.584 130.045  0.00  0.00    +0.211 A 
ATOM      2  C   LIG A   1      -8.881   5.929 130.201  0.00  0.00    +0.184 A 
ATOM      3  O   LIG A   1      -7.841   6.780 130.592  0.00  0.00    -0.451 OA
ATOM      4  C   LIG A   1      -6.576   6.267 130.721  0.00  0.00    +0.147 A 
ATOM      5  C   LIG A   1      -6.308   4.920 130.569  0.00  0.00    +0.113 A 
ATOM      6  C   LIG A   1      -5.003   4.445 130.676  0.00  0.00    +0.177 A 
ATOM      7  C   LIG A   1      -3.954   5.335 130.934  0.00  0.00    +0.202 A 
ATOM      8  C   LIG A   1      -4.197   6.700 131.084  0.00  0.00    +0.169 A 
ATOM      9  C   LIG A   1      -5.528   7.159 131.002  0.00  0.00    +0.096 A 
ATOM     10  C   LIG A   1      -7.413   3.990 130.287  0.00  0.00    +0.238 A 
ATOM     11  O   LIG A   1      -7.157   2.802 130.235  0.00  0.00    -0.283 OA
ENDROOT
BRANCH   2  12
ATOM     12  C   LIG A   1     -10.135   6.695 129.963  0.00  0.00    +0.066 A 
ATOM     13  C   LIG A   1     -10.245   7.535 128.838  0.00  0.00    +0.019 A 
ATOM     14  C   LIG A   1     -11.349   8.397 128.663  0.00  0.00    +0.050 A 
ATOM     15  C   LIG A   1     -12.359   8.451 129.621  0.00  0.00    +0.165 A 
ATOM     16  C   LIG A   1     -12.262   7.600 130.723  0.00  0.00    +0.202 A 
ATOM     17  C   LIG A   1     -11.182   6.721 130.887  0.00  0.00    +0.173 A 
BRANCH  15  18
ATOM     18  O   LIG A   1     -13.463   9.264 129.601  0.00  0.00    -0.491 OA
ATOM     19  C   LIG A   1     -13.258  10.639 129.910  0.00  0.00    +0.277 C 
ENDBRANCH  15  18
BRANCH  16  20
ATOM     20  O   LIG A   1     -13.224   7.626 131.706  0.00  0.00    -0.501 OA
ATOM     21  H   LIG A   1     -13.429   6.684 131.879  0.00  0.00    +0.292 HD
ENDBRANCH  16  20
BRANCH  17  22
ATOM     22  O   LIG A   1     -11.177   5.910 131.991  0.00  0.00    -0.503 OA
ATOM     23  H   LIG A   1     -12.069   6.029 132.378  0.00  0.00    +0.292 HD
ENDBRANCH  17  22
ENDBRANCH   2  12
BRANCH   1  25
ATOM     24  C   LIG A   1     -10.489   3.019 130.574  0.00  0.00    +0.277 C 
ATOM     25  O   LIG A   1      -9.832   3.821 129.599  0.00  0.00    -0.488 OA
ENDBRANCH   1  25
BRANCH   6  26
ATOM     26  O   LIG A   1      -4.628   3.133 130.532  0.00  0.00    -0.503 OA
ATOM     27  H   LIG A   1      -4.900   2.663 131.357  0.00  0.00    +0.292 HD
ENDBRANCH   6  26
BRANCH   7  28
ATOM     28  O   LIG A   1      -2.709   4.778 131.044  0.00  0.00    -0.501 OA
ATOM     29  H   LIG A   1      -2.837   3.946 131.542  0.00  0.00    +0.292 HD
ENDBRANCH   7  28
BRANCH   8  30
ATOM     30  O   LIG A   1      -3.242   7.655 131.333  0.00  0.00    -0.491 OA
ATOM     31  C   LIG A   1      -2.882   7.820 132.708  0.00  0.00    +0.277 C 
ENDBRANCH   8  30
TORSDOF 8
ENDMDL
MODEL 5
REMARK VINA RESULT:      -6.7      5.233      8.218
REMARK  Name = NuBBE_1869
REMARK  11 active torsions:
REMARK  status: ('A' for Active; 'I' for Inactive)
REMARK    1  A    between atoms: C_1  and  O_2
REMARK    2  A    between atoms: O_2  and  C_3
REMARK    3  A    between atoms: C_4  and  C_5
REMARK    4  A    between atoms: C_8  and  O_9
REMARK    5  A    between atoms: O_9  and  C_10
REMARK    6  A    between atoms: C_11  and  O_12
REMARK    7  A    between atoms: C_13  and  O_14
REMARK    8  A    between atoms: C_18  and  O_19
REMARK    9  A    between atoms: C_20  and  O_21
REMARK   10  A    between atoms: C_22  and  O_23
REMARK   11  A    between atoms: O_23  and  C_24
REMARK                            x       y       z     vdW  Elec       q    Type
REMARK                         _______ _______ _______ _____ _____    ______ ____
ROOT
ATOM      1  C   LIG A   1      -8.713  -1.307 124.960  0.00  0.00    +0.211 A 
ATOM      2  C   LIG A   1      -7.681  -0.913 125.750  0.00  0.00    +0.184 A 
ATOM      3  O   LIG A   1      -6.941   0.262 125.575  0.00  0.00    -0.451 OA
ATOM      4  C   LIG A   1      -7.336   1.159 124.616  0.00  0.00    +0.147 A 
ATOM      5  C   LIG A   1      -8.385   0.901 123.754  0.00  0.00    +0.113 A 
ATOM      6  C   LIG A   1      -8.776   1.853 122.816  0.00  0.00    +0.177 A 
ATOM      7  C   LIG A   1      -8.108   3.082 122.746  0.00  0.00    +0.202 A 
ATOM      8  C   LIG A   1      -7.052   3.369 123.610  0.00  0.00    +0.169 A 
ATOM      9  C   LIG A   1      -6.650   2.382 124.534  0.00  0.00    +0.096 A 
ATOM     10  C   LIG A   1      -9.091  -0.388 123.838  0.00  0.00    +0.238 A 
ATOM     11  O   LIG A   1      -9.958  -0.616 123.017  0.00  0.00    -0.283 OA
ENDROOT
BRANCH   2  12
ATOM     12  C   LIG A   1      -7.195  -1.676 126.933  0.00  0.00    +0.066 A 
ATOM     13  C   LIG A   1      -8.117  -2.285 127.806  0.00  0.00    +0.019 A 
ATOM     14  C   LIG A   1      -7.706  -2.878 129.020  0.00  0.00    +0.050 A 
ATOM     15  C   LIG A   1      -6.365  -2.857 129.395  0.00  0.00    +0.165 A 
ATOM     16  C   LIG A   1      -5.449  -2.275 128.517  0.00  0.00    +0.202 A 
ATOM     17  C   LIG A   1      -5.848  -1.711 127.298  0.00  0.00    +0.173 A 
BRANCH  15  18
ATOM     18  O   LIG A   1      -5.832  -3.356 130.556  0.00  0.00    -0.491 OA
ATOM     19  C   LIG A   1      -5.687  -4.770 130.644  0.00  0.00    +0.277 C 
ENDBRANCH  15  18
BRANCH  16  20
ATOM     20  O   LIG A   1      -4.114  -2.213 128.848  0.00  0.00    -0.501 OA
ATOM     21  H   LIG A   1      -3.646  -2.553 128.058  0.00  0.00    +0.292 HD
ENDBRANCH  16  20
BRANCH  17  22
ATOM     22  O   LIG A   1      -4.877  -1.176 126.490  0.00  0.00    -0.503 OA
ATOM     23  H   LIG A   1      -4.074  -1.693 126.709  0.00  0.00    +0.292 HD
ENDBRANCH  17  22
ENDBRANCH   2  12
BRANCH   1  25
ATOM     24  C   LIG A   1      -9.172  -3.581 124.403  0.00  0.00    +0.277 C 
ATOM     25  O   LIG A   1      -9.431  -2.457 125.237  0.00  0.00    -0.488 OA
ENDBRANCH   1  25
BRANCH   6  26
ATOM     26  O   LIG A   1      -9.807   1.703 121.923  0.00  0.00    -0.503 OA
ATOM     27  H   LIG A   1      -9.440   1.238 121.134  0.00  0.00    +0.292 HD
ENDBRANCH   6  26
BRANCH   7  28
ATOM     28  O   LIG A   1      -8.545   3.948 121.781  0.00  0.00    -0.501 OA
ATOM     29  H   LIG A   1      -8.152   3.628 120.944  0.00  0.00    +0.292 HD
ENDBRANCH   7  28
BRANCH   8  30
ATOM     30  O   LIG A   1      -6.336   4.541 123.629  0.00  0.00    -0.491 OA
ATOM     31  C   LIG A   1      -6.024   5.047 124.930  0.00  0.00    +0.277 C 
ENDBRANCH   8  30
TORSDOF 8
ENDMDL
MODEL 6
REMARK VINA RESULT:      -6.6      2.053      2.718
REMARK  Name = NuBBE_1869
REMARK  11 active torsions:
REMARK  status: ('A' for Active; 'I' for Inactive)
REMARK    1  A    between atoms: C_1  and  O_2
REMARK    2  A    between atoms: O_2  and  C_3
REMARK    3  A    between atoms: C_4  and  C_5
REMARK    4  A    between atoms: C_8  and  O_9
REMARK    5  A    between atoms: O_9  and  C_10
REMARK    6  A    between atoms: C_11  and  O_12
REMARK    7  A    between atoms: C_13  and  O_14
REMARK    8  A    between atoms: C_18  and  O_19
REMARK    9  A    between atoms: C_20  and  O_21
REMARK   10  A    between atoms: C_22  and  O_23
REMARK   11  A    between atoms: O_23  and  C_24
REMARK                            x       y       z     vdW  Elec       q    Type
REMARK                         _______ _______ _______ _____ _____    ______ ____
ROOT
ATOM      1  C   LIG A   1      -8.180   4.131 130.679  0.00  0.00    +0.211 A 
ATOM      2  C   LIG A   1      -7.980   4.580 129.413  0.00  0.00    +0.184 A 
ATOM      3  O   LIG A   1      -8.838   5.448 128.726  0.00  0.00    -0.451 OA
ATOM      4  C   LIG A   1      -9.905   5.992 129.393  0.00  0.00    +0.147 A 
ATOM      5  C   LIG A   1     -10.217   5.644 130.693  0.00  0.00    +0.113 A 
ATOM      6  C   LIG A   1     -11.290   6.246 131.346  0.00  0.00    +0.177 A 
ATOM      7  C   LIG A   1     -12.056   7.214 130.685  0.00  0.00    +0.202 A 
ATOM      8  C   LIG A   1     -11.757   7.589 129.376  0.00  0.00    +0.169 A 
ATOM      9  C   LIG A   1     -10.685   6.948 128.720  0.00  0.00    +0.096 A 
ATOM     10  C   LIG A   1      -9.402   4.634 131.387  0.00  0.00    +0.238 A 
ATOM     11  O   LIG A   1      -9.747   4.292 132.502  0.00  0.00    -0.283 OA
ENDROOT
BRANCH   2  12
ATOM     12  C   LIG A   1      -6.803   4.222 128.575  0.00  0.00    +0.066 A 
ATOM     13  C   LIG A   1      -5.505   4.565 128.999  0.00  0.00    +0.019 A 
ATOM     14  C   LIG A   1      -4.382   4.387 128.162  0.00  0.00    +0.050 A 
ATOM     15  C   LIG A   1      -4.537   3.879 126.874  0.00  0.00    +0.165 A 
ATOM     16  C   LIG A   1      -5.820   3.515 126.464  0.00  0.00    +0.202 A 
ATOM     17  C   LIG A   1      -6.935   3.663 127.301  0.00  0.00    +0.173 A 
BRANCH  15  18
ATOM     18  O   LIG A   1      -3.547   3.690 125.944  0.00  0.00    -0.491 OA
ATOM     19  C   LIG A   1      -2.230   3.466 126.439  0.00  0.00    +0.277 C 
ENDBRANCH  15  18
BRANCH  16  20
ATOM     20  O   LIG A   1      -6.030   3.025 125.195  0.00  0.00    -0.501 OA
ATOM     21  H   LIG A   1      -7.004   3.008 125.094  0.00  0.00    +0.292 HD
ENDBRANCH  16  20
BRANCH  17  22
ATOM     22  O   LIG A   1      -8.155   3.265 126.821  0.00  0.00    -0.503 OA
ATOM     23  H   LIG A   1      -8.442   4.009 126.252  0.00  0.00    +0.292 HD
ENDBRANCH  17  22
ENDBRANCH   2  12
BRANCH   1  25
ATOM     24  C   LIG A   1      -7.513   1.920 131.279  0.00  0.00    +0.277 C 
ATOM     25  O   LIG A   1      -7.252   3.319 131.308  0.00  0.00    -0.488 OA
ENDBRANCH   1  25
BRANCH   6  26
ATOM     26  O   LIG A   1     -11.677   5.981 132.635  0.00  0.00    -0.503 OA
ATOM     27  H   LIG A   1     -11.023   5.342 133.007  0.00  0.00    +0.292 HD
ENDBRANCH   6  26
BRANCH   7  28
ATOM     28  O   LIG A   1     -13.103   7.736 131.395  0.00  0.00    -0.501 OA
ATOM     29  H   LIG A   1     -13.753   8.031 130.725  0.00  0.00    +0.292 HD
ENDBRANCH   7  28
BRANCH   8  30
ATOM     30  O   LIG A   1     -12.438   8.529 128.642  0.00  0.00    -0.491 OA
ATOM     31  C   LIG A   1     -13.550   8.032 127.890  0.00  0.00    +0.277 C 
ENDBRANCH   8  30
TORSDOF 8
ENDMDL
MODEL 7
REMARK VINA RESULT:      -6.4      4.372      6.661
REMARK  Name = NuBBE_1869
REMARK  11 active torsions:
REMARK  status: ('A' for Active; 'I' for Inactive)
REMARK    1  A    between atoms: C_1  and  O_2
REMARK    2  A    between atoms: O_2  and  C_3
REMARK    3  A    between atoms: C_4  and  C_5
REMARK    4  A    between atoms: C_8  and  O_9
REMARK    5  A    between atoms: O_9  and  C_10
REMARK    6  A    between atoms: C_11  and  O_12
REMARK    7  A    between atoms: C_13  and  O_14
REMARK    8  A    between atoms: C_18  and  O_19
REMARK    9  A    between atoms: C_20  and  O_21
REMARK   10  A    between atoms: C_22  and  O_23
REMARK   11  A    between atoms: O_23  and  C_24
REMARK                            x       y       z     vdW  Elec       q    Type
REMARK                         _______ _______ _______ _____ _____    ______ ____
ROOT
ATOM      1  C   LIG A   1      -6.632   1.270 127.070  0.00  0.00    +0.211 A 
ATOM      2  C   LIG A   1      -6.114   2.368 126.461  0.00  0.00    +0.184 A 
ATOM      3  O   LIG A   1      -6.475   2.822 125.187  0.00  0.00    -0.451 OA
ATOM      4  C   LIG A   1      -7.507   2.204 124.529  0.00  0.00    +0.147 A 
ATOM      5  C   LIG A   1      -8.144   1.089 125.041  0.00  0.00    +0.113 A 
ATOM      6  C   LIG A   1      -9.211   0.512 124.357  0.00  0.00    +0.177 A 
ATOM      7  C   LIG A   1      -9.647   1.065 123.147  0.00  0.00    +0.202 A 
ATOM      8  C   LIG A   1      -9.026   2.194 122.613  0.00  0.00    +0.169 A 
ATOM      9  C   LIG A   1      -7.929   2.748 123.305  0.00  0.00    +0.096 A 
ATOM     10  C   LIG A   1      -7.689   0.518 126.318  0.00  0.00    +0.238 A 
ATOM     11  O   LIG A   1      -8.218  -0.507 126.704  0.00  0.00    -0.283 OA
ENDROOT
BRANCH   2  12
ATOM     12  C   LIG A   1      -5.089   3.258 127.072  0.00  0.00    +0.066 A 
ATOM     13  C   LIG A   1      -5.486   4.412 127.773  0.00  0.00    +0.019 A 
ATOM     14  C   LIG A   1      -4.545   5.362 128.227  0.00  0.00    +0.050 A 
ATOM     15  C   LIG A   1      -3.187   5.186 127.973  0.00  0.00    +0.165 A 
ATOM     16  C   LIG A   1      -2.792   4.028 127.300  0.00  0.00    +0.202 A 
ATOM     17  C   LIG A   1      -3.719   3.068 126.872  0.00  0.00    +0.173 A 
BRANCH  15  18
ATOM     18  O   LIG A   1      -2.172   6.041 128.317  0.00  0.00    -0.491 OA
ATOM     19  C   LIG A   1      -2.085   6.421 129.688  0.00  0.00    +0.277 C 
ENDBRANCH  15  18
BRANCH  16  20
ATOM     20  O   LIG A   1      -1.464   3.814 127.008  0.00  0.00    -0.501 OA
ATOM     21  H   LIG A   1      -1.044   4.694 127.105  0.00  0.00    +0.292 HD
ENDBRANCH  16  20
BRANCH  17  22
ATOM     22  O   LIG A   1      -3.241   1.954 126.234  0.00  0.00    -0.503 OA
ATOM     23  H   LIG A   1      -3.937   1.279 126.377  0.00  0.00    +0.292 HD
ENDBRANCH  17  22
ENDBRANCH   2  12
BRANCH   1  25
ATOM     24  C   LIG A   1      -7.132   1.341 129.403  0.00  0.00    +0.277 C 
ATOM     25  O   LIG A   1      -6.262   0.921 128.357  0.00  0.00    -0.488 OA
ENDBRANCH   1  25
BRANCH   6  26
ATOM     26  O   LIG A   1      -9.917  -0.586 124.780  0.00  0.00    -0.503 OA
ATOM     27  H   LIG A   1      -9.264  -1.212 125.177  0.00  0.00    +0.292 HD
ENDBRANCH   6  26
BRANCH   7  28
ATOM     28  O   LIG A   1     -10.687   0.420 122.534  0.00  0.00    -0.501 OA
ATOM     29  H   LIG A   1     -10.353   0.166 121.649  0.00  0.00    +0.292 HD
ENDBRANCH   7  28
BRANCH   8  30
ATOM     30  O   LIG A   1      -9.378   2.816 121.441  0.00  0.00    -0.491 OA
ATOM     31  C   LIG A   1      -8.402   3.715 120.907  0.00  0.00    +0.277 C 
ENDBRANCH   8  30
TORSDOF 8
ENDMDL
MODEL 8
REMARK VINA RESULT:      -6.4      2.783      4.042
REMARK  Name = NuBBE_1869
REMARK  11 active torsions:
REMARK  status: ('A' for Active; 'I' for Inactive)
REMARK    1  A    between atoms: C_1  and  O_2
REMARK    2  A    between atoms: O_2  and  C_3
REMARK    3  A    between atoms: C_4  and  C_5
REMARK    4  A    between atoms: C_8  and  O_9
REMARK    5  A    between atoms: O_9  and  C_10
REMARK    6  A    between atoms: C_11  and  O_12
REMARK    7  A    between atoms: C_13  and  O_14
REMARK    8  A    between atoms: C_18  and  O_19
REMARK    9  A    between atoms: C_20  and  O_21
REMARK   10  A    between atoms: C_22  and  O_23
REMARK   11  A    between atoms: O_23  and  C_24
REMARK                            x       y       z     vdW  Elec       q    Type
REMARK                         _______ _______ _______ _____ _____    ______ ____
ROOT
ATOM      1  C   LIG A   1      -6.660   2.682 127.128  0.00  0.00    +0.211 A 
ATOM      2  C   LIG A   1      -7.890   2.119 127.254  0.00  0.00    +0.184 A 
ATOM      3  O   LIG A   1      -8.809   2.422 128.266  0.00  0.00    -0.451 OA
ATOM      4  C   LIG A   1      -8.525   3.439 129.139  0.00  0.00    +0.147 A 
ATOM      5  C   LIG A   1      -7.320   4.116 129.114  0.00  0.00    +0.113 A 
ATOM      6  C   LIG A   1      -7.083   5.165 129.999  0.00  0.00    +0.177 A 
ATOM      7  C   LIG A   1      -8.072   5.543 130.916  0.00  0.00    +0.202 A 
ATOM      8  C   LIG A   1      -9.298   4.881 130.956  0.00  0.00    +0.169 A 
ATOM      9  C   LIG A   1      -9.509   3.802 130.073  0.00  0.00    +0.096 A 
ATOM     10  C   LIG A   1      -6.289   3.722 128.142  0.00  0.00    +0.238 A 
ATOM     11  O   LIG A   1      -5.212   4.284 128.195  0.00  0.00    -0.283 OA
ENDROOT
BRANCH   2  12
ATOM     12  C   LIG A   1      -8.444   1.102 126.318  0.00  0.00    +0.066 A 
ATOM     13  C   LIG A   1      -8.197  -0.266 126.538  0.00  0.00    +0.019 A 
ATOM     14  C   LIG A   1      -8.567  -1.246 125.591  0.00  0.00    +0.050 A 
ATOM     15  C   LIG A   1      -9.177  -0.875 124.395  0.00  0.00    +0.165 A 
ATOM     16  C   LIG A   1      -9.444   0.479 124.190  0.00  0.00    +0.202 A 
ATOM     17  C   LIG A   1      -9.104   1.453 125.139  0.00  0.00    +0.173 A 
BRANCH  15  18
ATOM     18  O   LIG A   1      -9.553  -1.710 123.374  0.00  0.00    -0.491 OA
ATOM     19  C   LIG A   1      -9.348  -3.105 123.573  0.00  0.00    +0.277 C 
ENDBRANCH  15  18
BRANCH  16  20
ATOM     20  O   LIG A   1     -10.029   0.901 123.017  0.00  0.00    -0.501 OA
ATOM     21  H   LIG A   1     -10.992   0.835 123.182  0.00  0.00    +0.292 HD
ENDBRANCH  16  20
BRANCH  17  22
ATOM     22  O   LIG A   1      -9.420   2.758 124.861  0.00  0.00    -0.503 OA
ATOM     23  H   LIG A   1      -8.575   3.239 124.987  0.00  0.00    +0.292 HD
ENDBRANCH  17  22
ENDBRANCH   2  12
BRANCH   1  25
ATOM     24  C   LIG A   1      -5.840   3.276 124.968  0.00  0.00    +0.277 C 
ATOM     25  O   LIG A   1      -5.833   2.369 126.064  0.00  0.00    -0.488 OA
ENDBRANCH   1  25
BRANCH   6  26
ATOM     26  O   LIG A   1      -5.931   5.908 130.050  0.00  0.00    -0.503 OA
ATOM     27  H   LIG A   1      -5.973   6.449 130.875  0.00  0.00    +0.292 HD
ENDBRANCH   6  26
BRANCH   7  28
ATOM     28  O   LIG A   1      -7.745   6.570 131.759  0.00  0.00    -0.501 OA
ATOM     29  H   LIG A   1      -6.774   6.665 131.694  0.00  0.00    +0.292 HD
ENDBRANCH   7  28
BRANCH   8  30
ATOM     30  O   LIG A   1     -10.334   5.175 131.809  0.00  0.00    -0.491 OA
ATOM     31  C   LIG A   1     -11.271   6.142 131.325  0.00  0.00    +0.277 C 
ENDBRANCH   8  30
TORSDOF 8
ENDMDL
MODEL 9
REMARK VINA RESULT:      -6.4      3.478      7.293
REMARK  Name = NuBBE_1869
REMARK  11 active torsions:
REMARK  status: ('A' for Active; 'I' for Inactive)
REMARK    1  A    between atoms: C_1  and  O_2
REMARK    2  A    between atoms: O_2  and  C_3
REMARK    3  A    between atoms: C_4  and  C_5
REMARK    4  A    between atoms: C_8  and  O_9
REMARK    5  A    between atoms: O_9  and  C_10
REMARK    6  A    between atoms: C_11  and  O_12
REMARK    7  A    between atoms: C_13  and  O_14
REMARK    8  A    between atoms: C_18  and  O_19
REMARK    9  A    between atoms: C_20  and  O_21
REMARK   10  A    between atoms: C_22  and  O_23
REMARK   11  A    between atoms: O_23  and  C_24
REMARK                            x       y       z     vdW  Elec       q    Type
REMARK                         _______ _______ _______ _____ _____    ______ ____
ROOT
ATOM      1  C   LIG A   1      -7.171   4.994 129.745  0.00  0.00    +0.211 A 
ATOM      2  C   LIG A   1      -8.436   4.621 129.421  0.00  0.00    +0.184 A 
ATOM      3  O   LIG A   1      -8.791   3.380 128.878  0.00  0.00    -0.451 OA
ATOM      4  C   LIG A   1      -7.832   2.407 128.762  0.00  0.00    +0.147 A 
ATOM      5  C   LIG A   1      -6.506   2.638 129.077  0.00  0.00    +0.113 A 
ATOM      6  C   LIG A   1      -5.569   1.613 128.977  0.00  0.00    +0.177 A 
ATOM      7  C   LIG A   1      -5.970   0.338 128.560  0.00  0.00    +0.202 A 
ATOM      8  C   LIG A   1      -7.303   0.077 128.245  0.00  0.00    +0.169 A 
ATOM      9  C   LIG A   1      -8.233   1.134 128.323  0.00  0.00    +0.096 A 
ATOM     10  C   LIG A   1      -6.092   3.978 129.524  0.00  0.00    +0.238 A 
ATOM     11  O   LIG A   1      -4.907   4.171 129.719  0.00  0.00    -0.283 OA
ENDROOT
BRANCH   2  12
ATOM     12  C   LIG A   1      -9.637   5.481 129.610  0.00  0.00    +0.066 A 
ATOM     13  C   LIG A   1      -9.896   6.537 128.716  0.00  0.00    +0.019 A 
ATOM     14  C   LIG A   1     -10.929   7.470 128.952  0.00  0.00    +0.050 A 
ATOM     15  C   LIG A   1     -11.714   7.376 130.098  0.00  0.00    +0.165 A 
ATOM     16  C   LIG A   1     -11.474   6.313 130.971  0.00  0.00    +0.202 A 
ATOM     17  C   LIG A   1     -10.468   5.368 130.727  0.00  0.00    +0.173 A 
BRANCH  15  18
ATOM     18  O   LIG A   1     -12.720   8.229 130.474  0.00  0.00    -0.491 OA
ATOM     19  C   LIG A   1     -12.887   9.411 129.698  0.00  0.00    +0.277 C 
ENDBRANCH  15  18
BRANCH  16  20
ATOM     20  O   LIG A   1     -12.210   6.185 132.127  0.00  0.00    -0.501 OA
ATOM     21  H   LIG A   1     -11.598   6.456 132.842  0.00  0.00    +0.292 HD
ENDBRANCH  16  20
BRANCH  17  22
ATOM     22  O   LIG A   1     -10.313   4.348 131.630  0.00  0.00    -0.503 OA
ATOM     23  H   LIG A   1      -9.392   4.044 131.490  0.00  0.00    +0.292 HD
ENDBRANCH  17  22
ENDBRANCH   2  12
BRANCH   1  25
ATOM     24  C   LIG A   1      -6.874   6.246 131.755  0.00  0.00    +0.277 C 
ATOM     25  O   LIG A   1      -6.913   6.220 130.332  0.00  0.00    -0.488 OA
ENDBRANCH   1  25
BRANCH   6  26
ATOM     26  O   LIG A   1      -4.235   1.733 129.274  0.00  0.00    -0.503 OA
ATOM     27  H   LIG A   1      -3.859   0.821 129.285  0.00  0.00    +0.292 HD
ENDBRANCH   6  26
BRANCH   7  28
ATOM     28  O   LIG A   1      -4.980  -0.602 128.471  0.00  0.00    -0.501 OA
ATOM     29  H   LIG A   1      -5.024  -1.110 129.307  0.00  0.00    +0.292 HD
ENDBRANCH   7  28
BRANCH   8  30
ATOM     30  O   LIG A   1      -7.800  -1.136 127.834  0.00  0.00    -0.491 OA
ATOM     31  C   LIG A   1      -8.068  -1.246 126.433  0.00  0.00    +0.277 C 
ENDBRANCH   8  30
TORSDOF 8
ENDMDL
