MODEL 1
REMARK VINA RESULT:      -6.8      0.000      0.000
REMARK  Name = NuBBE_1620
REMARK  5 active torsions:
REMARK  status: ('A' for Active; 'I' for Inactive)
REMARK    1  A    between atoms: O_1  and  C_2
REMARK    2  A    between atoms: O_1  and  C_3
REMARK    3  A    between atoms: C_6  and  O_7
REMARK    4  A    between atoms: O_7  and  C_8
REMARK    5  A    between atoms: C_17  and  O_18
REMARK                            x       y       z     vdW  Elec       q    Type
REMARK                         _______ _______ _______ _____ _____    ______ ____
ROOT
ATOM      1  C   LIG A   1     -10.933   7.797 129.490  0.00  0.00    +0.188 A 
ATOM      2  C   LIG A   1      -9.888   7.296 130.297  0.00  0.00    +0.123 A 
ATOM      3  C   LIG A   1     -10.239   6.493 131.419  0.00  0.00    +0.047 A 
ATOM      4  C   LIG A   1      -9.216   5.966 132.253  0.00  0.00    +0.142 A 
ATOM      5  C   LIG A   1      -7.876   6.233 131.920  0.00  0.00    +0.082 A 
ATOM      6  C   LIG A   1      -7.677   7.039 130.807  0.00  0.00    +0.231 A 
ATOM      7  N   LIG A   1      -8.606   7.573 130.012  0.00  0.00    -0.208 NA
ATOM      8  O   LIG A   1      -6.345   7.228 130.593  0.00  0.00    -0.445 OA
ATOM      9  C   LIG A   1      -5.682   6.536 131.550  0.00  0.00    +0.198 A 
ATOM     10  C   LIG A   1      -6.573   5.900 132.384  0.00  0.00    +0.055 A 
ATOM     11  C   LIG A   1     -11.599   6.236 131.700  0.00  0.00    +0.017 A 
ATOM     12  C   LIG A   1     -12.616   6.745 130.905  0.00  0.00    +0.050 A 
ATOM     13  C   LIG A   1     -12.278   7.519 129.807  0.00  0.00    +0.161 A 
ENDROOT
BRANCH   1  14
ATOM     14  O   LIG A   1     -10.807   8.585 128.363  0.00  0.00    -0.489 OA
ATOM     15  C   LIG A   1     -10.746   7.976 127.084  0.00  0.00    +0.277 C 
ENDBRANCH   1  14
BRANCH   4  16
ATOM     16  O   LIG A   1      -9.627   5.139 133.292  0.00  0.00    -0.494 OA
ATOM     17  C   LIG A   1      -9.267   3.770 133.175  0.00  0.00    +0.277 C 
ENDBRANCH   4  16
BRANCH  13  18
ATOM     18  O   LIG A   1     -13.275   8.022 129.010  0.00  0.00    -0.503 OA
ATOM     19  H   LIG A   1     -12.968   8.836 128.582  0.00  0.00    +0.292 HD
ENDBRANCH  13  18
TORSDOF 3
ENDMDL
MODEL 2
REMARK VINA RESULT:      -6.4      8.094     10.398
REMARK  Name = NuBBE_1620
REMARK  5 active torsions:
REMARK  status: ('A' for Active; 'I' for Inactive)
REMARK    1  A    between atoms: O_1  and  C_2
REMARK    2  A    between atoms: O_1  and  C_3
REMARK    3  A    between atoms: C_6  and  O_7
REMARK    4  A    between atoms: O_7  and  C_8
REMARK    5  A    between atoms: C_17  and  O_18
REMARK                            x       y       z     vdW  Elec       q    Type
REMARK                         _______ _______ _______ _____ _____    ______ ____
ROOT
ATOM      1  C   LIG A   1      -8.381   2.739 124.340  0.00  0.00    +0.188 A 
ATOM      2  C   LIG A   1      -7.994   3.180 123.055  0.00  0.00    +0.123 A 
ATOM      3  C   LIG A   1      -6.617   3.462 122.834  0.00  0.00    +0.047 A 
ATOM      4  C   LIG A   1      -6.187   3.903 121.553  0.00  0.00    +0.142 A 
ATOM      5  C   LIG A   1      -7.143   4.017 120.529  0.00  0.00    +0.082 A 
ATOM      6  C   LIG A   1      -8.453   3.722 120.885  0.00  0.00    +0.231 A 
ATOM      7  N   LIG A   1      -8.903   3.329 122.078  0.00  0.00    -0.208 NA
ATOM      8  O   LIG A   1      -9.280   3.876 119.813  0.00  0.00    -0.445 OA
ATOM      9  C   LIG A   1      -8.511   4.252 118.764  0.00  0.00    +0.198 A 
ATOM     10  C   LIG A   1      -7.193   4.345 119.145  0.00  0.00    +0.055 A 
ATOM     11  C   LIG A   1      -5.691   3.311 123.890  0.00  0.00    +0.017 A 
ATOM     12  C   LIG A   1      -6.088   2.889 125.151  0.00  0.00    +0.050 A 
ATOM     13  C   LIG A   1      -7.425   2.605 125.368  0.00  0.00    +0.161 A 
ENDROOT
BRANCH   1  14
ATOM     14  O   LIG A   1      -9.656   2.411 124.757  0.00  0.00    -0.489 OA
ATOM     15  C   LIG A   1     -10.232   1.180 124.352  0.00  0.00    +0.277 C 
ENDBRANCH   1  14
BRANCH   4  16
ATOM     16  O   LIG A   1      -4.821   4.098 121.391  0.00  0.00    -0.494 OA
ATOM     17  C   LIG A   1      -4.401   5.446 121.229  0.00  0.00    +0.277 C 
ENDBRANCH   4  16
BRANCH  13  18
ATOM     18  O   LIG A   1      -7.828   2.180 126.609  0.00  0.00    -0.503 OA
ATOM     19  H   LIG A   1      -7.129   1.640 127.010  0.00  0.00    +0.292 HD
ENDBRANCH  13  18
TORSDOF 3
ENDMDL
MODEL 3
REMARK VINA RESULT:      -6.2      8.461     10.405
REMARK  Name = NuBBE_1620
REMARK  5 active torsions:
REMARK  status: ('A' for Active; 'I' for Inactive)
REMARK    1  A    between atoms: O_1  and  C_2
REMARK    2  A    between atoms: O_1  and  C_3
REMARK    3  A    between atoms: C_6  and  O_7
REMARK    4  A    between atoms: O_7  and  C_8
REMARK    5  A    between atoms: C_17  and  O_18
REMARK                            x       y       z     vdW  Elec       q    Type
REMARK                         _______ _______ _______ _____ _____    ______ ____
ROOT
ATOM      1  C   LIG A   1      -7.072   4.243 119.924  0.00  0.00    +0.188 A 
ATOM      2  C   LIG A   1      -7.309   3.697 121.204  0.00  0.00    +0.123 A 
ATOM      3  C   LIG A   1      -6.289   3.838 122.188  0.00  0.00    +0.047 A 
ATOM      4  C   LIG A   1      -6.492   3.305 123.490  0.00  0.00    +0.142 A 
ATOM      5  C   LIG A   1      -7.717   2.678 123.774  0.00  0.00    +0.082 A 
ATOM      6  C   LIG A   1      -8.617   2.599 122.719  0.00  0.00    +0.231 A 
ATOM      7  N   LIG A   1      -8.459   3.062 121.478  0.00  0.00    -0.208 NA
ATOM      8  O   LIG A   1      -9.757   1.967 123.118  0.00  0.00    -0.445 OA
ATOM      9  C   LIG A   1      -9.605   1.653 124.426  0.00  0.00    +0.198 A 
ATOM     10  C   LIG A   1      -8.377   2.073 124.881  0.00  0.00    +0.055 A 
ATOM     11  C   LIG A   1      -5.084   4.496 121.859  0.00  0.00    +0.017 A 
ATOM     12  C   LIG A   1      -4.860   5.018 120.593  0.00  0.00    +0.050 A 
ATOM     13  C   LIG A   1      -5.852   4.890 119.636  0.00  0.00    +0.161 A 
ENDROOT
BRANCH   1  14
ATOM     14  O   LIG A   1      -7.926   4.218 118.839  0.00  0.00    -0.489 OA
ATOM     15  C   LIG A   1      -9.312   4.449 119.032  0.00  0.00    +0.277 C 
ENDBRANCH   1  14
BRANCH   4  16
ATOM     16  O   LIG A   1      -5.482   3.536 124.417  0.00  0.00    -0.494 OA
ATOM     17  C   LIG A   1      -5.754   4.530 125.396  0.00  0.00    +0.277 C 
ENDBRANCH   4  16
BRANCH  13  18
ATOM     18  O   LIG A   1      -5.645   5.408 118.383  0.00  0.00    -0.503 OA
ATOM     19  H   LIG A   1      -6.264   6.138 118.227  0.00  0.00    +0.292 HD
ENDBRANCH  13  18
TORSDOF 3
ENDMDL
MODEL 4
REMARK VINA RESULT:      -6.1      1.961      2.083
REMARK  Name = NuBBE_1620
REMARK  5 active torsions:
REMARK  status: ('A' for Active; 'I' for Inactive)
REMARK    1  A    between atoms: O_1  and  C_2
REMARK    2  A    between atoms: O_1  and  C_3
REMARK    3  A    between atoms: C_6  and  O_7
REMARK    4  A    between atoms: O_7  and  C_8
REMARK    5  A    between atoms: C_17  and  O_18
REMARK                            x       y       z     vdW  Elec       q    Type
REMARK                         _______ _______ _______ _____ _____    ______ ____
ROOT
ATOM      1  C   LIG A   1     -11.563   7.580 128.536  0.00  0.00    +0.188 A 
ATOM      2  C   LIG A   1     -10.618   6.699 129.108  0.00  0.00    +0.123 A 
ATOM      3  C   LIG A   1     -10.720   6.427 130.502  0.00  0.00    +0.047 A 
ATOM      4  C   LIG A   1      -9.791   5.543 131.114  0.00  0.00    +0.142 A 
ATOM      5  C   LIG A   1      -8.812   4.937 130.308  0.00  0.00    +0.082 A 
ATOM      6  C   LIG A   1      -8.819   5.300 128.967  0.00  0.00    +0.231 A 
ATOM      7  N   LIG A   1      -9.655   6.142 128.357  0.00  0.00    -0.208 NA
ATOM      8  O   LIG A   1      -7.825   4.654 128.298  0.00  0.00    -0.445 OA
ATOM      9  C   LIG A   1      -7.186   3.863 129.193  0.00  0.00    +0.198 A 
ATOM     10  C   LIG A   1      -7.757   3.991 130.438  0.00  0.00    +0.055 A 
ATOM     11  C   LIG A   1     -11.736   7.045 131.265  0.00  0.00    +0.017 A 
ATOM     12  C   LIG A   1     -12.649   7.918 130.691  0.00  0.00    +0.050 A 
ATOM     13  C   LIG A   1     -12.559   8.178 129.334  0.00  0.00    +0.161 A 
ENDROOT
BRANCH   1  14
ATOM     14  O   LIG A   1     -11.640   7.969 127.213  0.00  0.00    -0.489 OA
ATOM     15  C   LIG A   1     -12.270   7.119 126.268  0.00  0.00    +0.277 C 
ENDBRANCH   1  14
BRANCH   4  16
ATOM     16  O   LIG A   1      -9.989   5.274 132.463  0.00  0.00    -0.494 OA
ATOM     17  C   LIG A   1      -8.949   5.689 133.338  0.00  0.00    +0.277 C 
ENDBRANCH   4  16
BRANCH  13  18
ATOM     18  O   LIG A   1     -13.461   9.033 128.754  0.00  0.00    -0.503 OA
ATOM     19  H   LIG A   1     -14.067   8.532 128.187  0.00  0.00    +0.292 HD
ENDBRANCH  13  18
TORSDOF 3
ENDMDL
MODEL 5
REMARK VINA RESULT:      -6.0      9.193     10.083
REMARK  Name = NuBBE_1620
REMARK  5 active torsions:
REMARK  status: ('A' for Active; 'I' for Inactive)
REMARK    1  A    between atoms: O_1  and  C_2
REMARK    2  A    between atoms: O_1  and  C_3
REMARK    3  A    between atoms: C_6  and  O_7
REMARK    4  A    between atoms: O_7  and  C_8
REMARK    5  A    between atoms: C_17  and  O_18
REMARK                            x       y       z     vdW  Elec       q    Type
REMARK                         _______ _______ _______ _____ _____    ______ ____
ROOT
ATOM      1  C   LIG A   1      -7.973   2.315 123.831  0.00  0.00    +0.188 A 
ATOM      2  C   LIG A   1      -7.983   0.911 123.986  0.00  0.00    +0.123 A 
ATOM      3  C   LIG A   1      -6.973   0.324 124.798  0.00  0.00    +0.047 A 
ATOM      4  C   LIG A   1      -6.952  -1.085 124.982  0.00  0.00    +0.142 A 
ATOM      5  C   LIG A   1      -7.958  -1.856 124.374  0.00  0.00    +0.082 A 
ATOM      6  C   LIG A   1      -8.874  -1.155 123.599  0.00  0.00    +0.231 A 
ATOM      7  N   LIG A   1      -8.916   0.160 123.380  0.00  0.00    -0.208 NA
ATOM      8  O   LIG A   1      -9.788  -2.010 123.062  0.00  0.00    -0.445 OA
ATOM      9  C   LIG A   1      -9.481  -3.255 123.498  0.00  0.00    +0.198 A 
ATOM     10  C   LIG A   1      -8.373  -3.216 124.313  0.00  0.00    +0.055 A 
ATOM     11  C   LIG A   1      -5.996   1.143 125.406  0.00  0.00    +0.017 A 
ATOM     12  C   LIG A   1      -5.992   2.520 125.235  0.00  0.00    +0.050 A 
ATOM     13  C   LIG A   1      -6.978   3.097 124.452  0.00  0.00    +0.161 A 
ENDROOT
BRANCH   1  14
ATOM     14  O   LIG A   1      -8.860   3.076 123.094  0.00  0.00    -0.489 OA
ATOM     15  C   LIG A   1      -8.685   3.195 121.692  0.00  0.00    +0.277 C 
ENDBRANCH   1  14
BRANCH   4  16
ATOM     16  O   LIG A   1      -5.977  -1.584 125.839  0.00  0.00    -0.494 OA
ATOM     17  C   LIG A   1      -6.436  -2.034 127.106  0.00  0.00    +0.277 C 
ENDBRANCH   4  16
BRANCH  13  18
ATOM     18  O   LIG A   1      -6.988   4.458 124.282  0.00  0.00    -0.503 OA
ATOM     19  H   LIG A   1      -7.268   4.886 125.105  0.00  0.00    +0.292 HD
ENDBRANCH  13  18
TORSDOF 3
ENDMDL
MODEL 6
REMARK VINA RESULT:      -5.8      8.651      9.409
REMARK  Name = NuBBE_1620
REMARK  5 active torsions:
REMARK  status: ('A' for Active; 'I' for Inactive)
REMARK    1  A    between atoms: O_1  and  C_2
REMARK    2  A    between atoms: O_1  and  C_3
REMARK    3  A    between atoms: C_6  and  O_7
REMARK    4  A    between atoms: O_7  and  C_8
REMARK    5  A    between atoms: C_17  and  O_18
REMARK                            x       y       z     vdW  Elec       q    Type
REMARK                         _______ _______ _______ _____ _____    ______ ____
ROOT
ATOM      1  C   LIG A   1      -8.667   1.672 126.208  0.00  0.00    +0.188 A 
ATOM      2  C   LIG A   1      -8.642   0.301 125.872  0.00  0.00    +0.123 A 
ATOM      3  C   LIG A   1      -8.131  -0.613 126.837  0.00  0.00    +0.047 A 
ATOM      4  C   LIG A   1      -8.094  -2.002 126.537  0.00  0.00    +0.142 A 
ATOM      5  C   LIG A   1      -8.598  -2.434 125.298  0.00  0.00    +0.082 A 
ATOM      6  C   LIG A   1      -9.055  -1.435 124.447  0.00  0.00    +0.231 A 
ATOM      7  N   LIG A   1      -9.086  -0.121 124.677  0.00  0.00    -0.208 NA
ATOM      8  O   LIG A   1      -9.509  -1.978 123.283  0.00  0.00    -0.445 OA
ATOM      9  C   LIG A   1      -9.363  -3.321 123.383  0.00  0.00    +0.198 A 
ATOM     10  C   LIG A   1      -8.818  -3.655 124.601  0.00  0.00    +0.055 A 
ATOM     11  C   LIG A   1      -7.657  -0.131 128.076  0.00  0.00    +0.017 A 
ATOM     12  C   LIG A   1      -7.676   1.221 128.389  0.00  0.00    +0.050 A 
ATOM     13  C   LIG A   1      -8.180   2.112 127.457  0.00  0.00    +0.161 A 
ENDROOT
BRANCH   1  14
ATOM     14  O   LIG A   1      -9.123   2.712 125.423  0.00  0.00    -0.489 OA
ATOM     15  C   LIG A   1      -8.304   3.214 124.379  0.00  0.00    +0.277 C 
ENDBRANCH   1  14
BRANCH   4  16
ATOM     16  O   LIG A   1      -7.643  -2.842 127.549  0.00  0.00    -0.494 OA
ATOM     17  C   LIG A   1      -8.638  -3.622 128.197  0.00  0.00    +0.277 C 
ENDBRANCH   4  16
BRANCH  13  18
ATOM     18  O   LIG A   1      -8.210   3.450 127.757  0.00  0.00    -0.503 OA
ATOM     19  H   LIG A   1      -7.408   3.877 127.419  0.00  0.00    +0.292 HD
ENDBRANCH  13  18
TORSDOF 3
ENDMDL
MODEL 7
REMARK VINA RESULT:      -5.7      2.246      4.991
REMARK  Name = NuBBE_1620
REMARK  5 active torsions:
REMARK  status: ('A' for Active; 'I' for Inactive)
REMARK    1  A    between atoms: O_1  and  C_2
REMARK    2  A    between atoms: O_1  and  C_3
REMARK    3  A    between atoms: C_6  and  O_7
REMARK    4  A    between atoms: O_7  and  C_8
REMARK    5  A    between atoms: C_17  and  O_18
REMARK                            x       y       z     vdW  Elec       q    Type
REMARK                         _______ _______ _______ _____ _____    ______ ____
ROOT
ATOM      1  C   LIG A   1      -8.398   4.174 130.606  0.00  0.00    +0.188 A 
ATOM      2  C   LIG A   1      -9.215   5.192 130.066  0.00  0.00    +0.123 A 
ATOM      3  C   LIG A   1     -10.036   5.933 130.962  0.00  0.00    +0.047 A 
ATOM      4  C   LIG A   1     -10.868   6.969 130.458  0.00  0.00    +0.142 A 
ATOM      5  C   LIG A   1     -10.829   7.249 129.081  0.00  0.00    +0.082 A 
ATOM      6  C   LIG A   1      -9.993   6.441 128.320  0.00  0.00    +0.231 A 
ATOM      7  N   LIG A   1      -9.215   5.445 128.748  0.00  0.00    -0.208 NA
ATOM      8  O   LIG A   1     -10.048   6.807 127.009  0.00  0.00    -0.445 OA
ATOM      9  C   LIG A   1     -10.900   7.855 126.920  0.00  0.00    +0.198 A 
ATOM     10  C   LIG A   1     -11.400   8.173 128.161  0.00  0.00    +0.055 A 
ATOM     11  C   LIG A   1     -10.023   5.628 132.341  0.00  0.00    +0.017 A 
ATOM     12  C   LIG A   1      -9.225   4.616 132.856  0.00  0.00    +0.050 A 
ATOM     13  C   LIG A   1      -8.418   3.899 131.989  0.00  0.00    +0.161 A 
ENDROOT
BRANCH   1  14
ATOM     14  O   LIG A   1      -7.533   3.349 129.915  0.00  0.00    -0.489 OA
ATOM     15  C   LIG A   1      -8.053   2.301 129.113  0.00  0.00    +0.277 C 
ENDBRANCH   1  14
BRANCH   4  16
ATOM     16  O   LIG A   1     -11.594   7.693 131.396  0.00  0.00    -0.494 OA
ATOM     17  C   LIG A   1     -13.002   7.504 131.372  0.00  0.00    +0.277 C 
ENDBRANCH   4  16
BRANCH  13  18
ATOM     18  O   LIG A   1      -7.619   2.901 132.488  0.00  0.00    -0.503 OA
ATOM     19  H   LIG A   1      -7.977   2.591 133.333  0.00  0.00    +0.292 HD
ENDBRANCH  13  18
TORSDOF 3
ENDMDL
MODEL 8
REMARK VINA RESULT:      -5.7      9.078     10.608
REMARK  Name = NuBBE_1620
REMARK  5 active torsions:
REMARK  status: ('A' for Active; 'I' for Inactive)
REMARK    1  A    between atoms: O_1  and  C_2
REMARK    2  A    between atoms: O_1  and  C_3
REMARK    3  A    between atoms: C_6  and  O_7
REMARK    4  A    between atoms: O_7  and  C_8
REMARK    5  A    between atoms: C_17  and  O_18
REMARK                            x       y       z     vdW  Elec       q    Type
REMARK                         _______ _______ _______ _____ _____    ______ ____
ROOT
ATOM      1  C   LIG A   1      -7.231  -1.878 128.581  0.00  0.00    +0.188 A 
ATOM      2  C   LIG A   1      -7.538  -1.452 127.270  0.00  0.00    +0.123 A 
ATOM      3  C   LIG A   1      -8.458  -2.232 126.515  0.00  0.00    +0.047 A 
ATOM      4  C   LIG A   1      -8.797  -1.833 125.193  0.00  0.00    +0.142 A 
ATOM      5  C   LIG A   1      -8.230  -0.652 124.684  0.00  0.00    +0.082 A 
ATOM      6  C   LIG A   1      -7.340   0.005 125.524  0.00  0.00    +0.231 A 
ATOM      7  N   LIG A   1      -6.975  -0.346 126.758  0.00  0.00    -0.208 NA
ATOM      8  O   LIG A   1      -6.857   1.125 124.916  0.00  0.00    -0.445 OA
ATOM      9  C   LIG A   1      -7.441   1.205 123.697  0.00  0.00    +0.198 A 
ATOM     10  C   LIG A   1      -8.299   0.146 123.507  0.00  0.00    +0.055 A 
ATOM     11  C   LIG A   1      -9.018  -3.399 127.079  0.00  0.00    +0.017 A 
ATOM     12  C   LIG A   1      -8.697  -3.813 128.364  0.00  0.00    +0.050 A 
ATOM     13  C   LIG A   1      -7.809  -3.052 129.106  0.00  0.00    +0.161 A 
ENDROOT
BRANCH   1  14
ATOM     14  O   LIG A   1      -6.373  -1.267 129.474  0.00  0.00    -0.489 OA
ATOM     15  C   LIG A   1      -4.973  -1.445 129.337  0.00  0.00    +0.277 C 
ENDBRANCH   1  14
BRANCH   4  16
ATOM     16  O   LIG A   1      -9.749  -2.605 124.538  0.00  0.00    -0.494 OA
ATOM     17  C   LIG A   1      -9.297  -3.298 123.382  0.00  0.00    +0.277 C 
ENDBRANCH   4  16
BRANCH  13  18
ATOM     18  O   LIG A   1      -7.489  -3.448 130.380  0.00  0.00    -0.503 OA
ATOM     19  H   LIG A   1      -8.012  -4.229 130.619  0.00  0.00    +0.292 HD
ENDBRANCH  13  18
TORSDOF 3
ENDMDL
MODEL 9
REMARK VINA RESULT:      -5.7      1.797      5.502
REMARK  Name = NuBBE_1620
REMARK  5 active torsions:
REMARK  status: ('A' for Active; 'I' for Inactive)
REMARK    1  A    between atoms: O_1  and  C_2
REMARK    2  A    between atoms: O_1  and  C_3
REMARK    3  A    between atoms: C_6  and  O_7
REMARK    4  A    between atoms: O_7  and  C_8
REMARK    5  A    between atoms: C_17  and  O_18
REMARK                            x       y       z     vdW  Elec       q    Type
REMARK                         _______ _______ _______ _____ _____    ______ ____
ROOT
ATOM      1  C   LIG A   1      -4.835   7.082 131.242  0.00  0.00    +0.188 A 
ATOM      2  C   LIG A   1      -6.215   6.828 131.396  0.00  0.00    +0.123 A 
ATOM      3  C   LIG A   1      -6.633   6.087 132.537  0.00  0.00    +0.047 A 
ATOM      4  C   LIG A   1      -8.015   5.814 132.729  0.00  0.00    +0.142 A 
ATOM      5  C   LIG A   1      -8.934   6.318 131.793  0.00  0.00    +0.082 A 
ATOM      6  C   LIG A   1      -8.389   7.015 130.722  0.00  0.00    +0.231 A 
ATOM      7  N   LIG A   1      -7.101   7.272 130.489  0.00  0.00    -0.208 NA
ATOM      8  O   LIG A   1      -9.376   7.444 129.886  0.00  0.00    -0.445 OA
ATOM      9  C   LIG A   1     -10.555   7.044 130.419  0.00  0.00    +0.198 A 
ATOM     10  C   LIG A   1     -10.342   6.358 131.592  0.00  0.00    +0.055 A 
ATOM     11  C   LIG A   1      -5.673   5.620 133.461  0.00  0.00    +0.017 A 
ATOM     12  C   LIG A   1      -4.318   5.867 133.291  0.00  0.00    +0.050 A 
ATOM     13  C   LIG A   1      -3.908   6.595 132.187  0.00  0.00    +0.161 A 
ENDROOT
BRANCH   1  14
ATOM     14  O   LIG A   1      -4.228   7.781 130.217  0.00  0.00    -0.489 OA
ATOM     15  C   LIG A   1      -3.763   7.084 129.073  0.00  0.00    +0.277 C 
ENDBRANCH   1  14
BRANCH   4  16
ATOM     16  O   LIG A   1      -8.357   5.141 133.896  0.00  0.00    -0.494 OA
ATOM     17  C   LIG A   1      -8.872   3.828 133.727  0.00  0.00    +0.277 C 
ENDBRANCH   4  16
BRANCH  13  18
ATOM     18  O   LIG A   1      -2.572   6.852 132.012  0.00  0.00    -0.503 OA
ATOM     19  H   LIG A   1      -2.084   6.597 132.810  0.00  0.00    +0.292 HD
ENDBRANCH  13  18
TORSDOF 3
ENDMDL
