REMARK  Name = NuBBE_1797
REMARK  22 active torsions:
REMARK  status: ('A' for Active; 'I' for Inactive)
REMARK    1  A    between atoms: C_4  and  C_5
REMARK    2  A    between atoms: C_5  and  C_6
REMARK    3  A    between atoms: C_6  and  O_7
REMARK    4  A    between atoms: C_6  and  C_12
REMARK    5  A    between atoms: O_7  and  SI_8
REMARK    6  A    between atoms: SI_8  and  C_9
REMARK    7  A    between atoms: SI_8  and  C_10
REMARK    8  A    between atoms: SI_8  and  C_11
REMARK    9  A    between atoms: C_12  and  O_13
REMARK   10  A    between atoms: O_13  and  SI_14
REMARK   11  A    between atoms: SI_14  and  C_15
REMARK   12  A    between atoms: SI_14  and  C_16
REMARK   13  A    between atoms: SI_14  and  C_17
REMARK   14  A    between atoms: C_19  and  C_20
REMARK   15  A    between atoms: C_20  and  C_21
REMARK   16  A    between atoms: C_21  and  C_22
REMARK   17  A    between atoms: C_22  and  C_23
REMARK   18  A    between atoms: C_23  and  C_24
REMARK   19  A    between atoms: C_24  and  C_25
REMARK   20  A    between atoms: C_25  and  C_26
REMARK   21  A    between atoms: C_26  and  C_27
REMARK   22  A    between atoms: C_27  and  C_28
REMARK                            x       y       z     vdW  Elec       q    Type
REMARK                         _______ _______ _______ _____ _____    ______ ____
ROOT
ATOM      1  O   LIG A   1      -0.591   1.814   1.710  0.00  0.00    +0.000 OA
ATOM      2  C   LIG A   1      -0.212   1.023   0.938  0.00  0.00    +0.000 C 
ATOM      3  O   LIG A   1       0.937   1.262   0.043  0.00  0.00    +0.000 OA
ATOM      4  C   LIG A   1      -0.676  -0.398   0.595  0.00  0.00    +0.000 C 
ATOM      5  C   LIG A   1       0.124  -0.840  -0.615  0.00  0.00    +0.000 C 
ATOM      6  C   LIG A   1       1.323   0.112  -0.747  0.00  0.00    +0.000 C 
ENDROOT
BRANCH   6   7
ATOM      7  C   LIG A   1       2.678  -0.486  -0.296  0.00  0.00    +0.000 C 
BRANCH   7   8
ATOM      8  C   LIG A   1       4.016   0.337  -0.323  0.00  0.00    +0.000 C 
BRANCH   8   9
ATOM      9  C   LIG A   1       5.191  -0.517   0.229  0.00  0.00    +0.000 C 
BRANCH   9  10
ATOM     10  C   LIG A   1       6.637   0.057   0.204  0.00  0.00    +0.000 C 
BRANCH  10  11
ATOM     11  C   LIG A   1       6.995   1.371   0.974  0.00  0.00    +0.000 C 
BRANCH  11  12
ATOM     12  C   LIG A   1       6.836   2.736   0.219  0.00  0.00    +0.000 C 
BRANCH  12  13
ATOM     13  C   LIG A   1       7.172   4.027   1.040  0.00  0.00    +0.000 C 
BRANCH  13  14
ATOM     14  C   LIG A   1       7.163   5.412   0.303  0.00  0.00    +0.000 C 
BRANCH  14  15
ATOM     15  C   LIG A   1       8.084   5.734  -0.856  0.00  0.00    +0.000 C 
ATOM     16  C   LIG A   1       9.282   6.342  -0.812  0.00  0.00    +0.000 C 
ENDBRANCH  14  15
ENDBRANCH  13  14
ENDBRANCH  12  13
ENDBRANCH  11  12
ENDBRANCH  10  11
ENDBRANCH   9  10
ENDBRANCH   8   9
ENDBRANCH   7   8
ENDBRANCH   6   7
BRANCH   4  17
ATOM     17  C   LIG A   1      -2.236  -0.570   0.579  0.00  0.00    +0.000 C 
BRANCH  17  18
ATOM     18  C   LIG A   1      -3.236  -1.769   0.281  0.00  0.00    +0.000 C 
BRANCH  18  19
ATOM     19  C   LIG A   1      -2.911  -2.828  -0.845  0.00  0.00    +0.000 C 
BRANCH  19  20
ATOM     20  O   LIG A   1      -3.845  -3.947  -0.917  0.00  0.00    +0.000 OA
BRANCH  20  21
ATOM     21 SI   LIG A   1      -5.320  -3.888  -1.735  0.00  0.00    +0.000 Si
ATOM     22  C   LIG A   1      -6.176  -5.592  -1.923  0.00  0.00    +0.000 C 
ATOM     23  C   LIG A   1      -6.665  -3.063  -0.707  0.00  0.00    +0.000 C 
ATOM     24  C   LIG A   1      -5.194  -2.990  -3.377  0.00  0.00    +0.000 C 
ENDBRANCH  20  21
ENDBRANCH  19  20
ENDBRANCH  18  19
BRANCH  18  25
ATOM     25  O   LIG A   1      -4.571  -1.161   0.059  0.00  0.00    +0.000 OA
BRANCH  25  26
ATOM     26 SI   LIG A   1      -5.477  -0.381   1.287  0.00  0.00    +0.000 Si
ATOM     27  C   LIG A   1      -7.334   0.177   0.881  0.00  0.00    +0.000 C 
ATOM     28  C   LIG A   1      -5.888  -1.467   2.767  0.00  0.00    +0.000 C 
ATOM     29  C   LIG A   1      -4.751   1.303   1.658  0.00  0.00    +0.000 C 
ENDBRANCH  25  26
ENDBRANCH  18  25
ENDBRANCH  17  18
ENDBRANCH   4  17
TORSDOF 16
