MODEL 1
REMARK VINA RESULT:      -7.6      0.000      0.000
REMARK  Name = NuBBE_2087
REMARK  5 active torsions:
REMARK  status: ('A' for Active; 'I' for Inactive)
REMARK    1  A    between atoms: C_1  and  O_2
REMARK    2  A    between atoms: O_2  and  C_3
REMARK    3  A    between atoms: C_5  and  O_6
REMARK    4  A    between atoms: C_11  and  O_12
REMARK    5  A    between atoms: C_14  and  C_15
REMARK                            x       y       z     vdW  Elec       q    Type
REMARK                         _______ _______ _______ _____ _____    ______ ____
ROOT
ATOM      1  C   LIG A   1     -12.483   8.592 128.826  0.00  0.00    +0.124 A 
ATOM      2  C   LIG A   1     -11.868   8.181 127.643  0.00  0.00    +0.091 A 
ATOM      3  C   LIG A   1     -10.855   7.218 127.663  0.00  0.00    +0.132 A 
ATOM      4  C   LIG A   1     -10.436   6.646 128.872  0.00  0.00    +0.075 A 
ATOM      5  C   LIG A   1      -9.363   5.618 128.938  0.00  0.00    +0.202 C 
ATOM      6  O   LIG A   1      -8.776   5.204 127.942  0.00  0.00    -0.286 OA
ATOM      7  C   LIG A   1      -8.965   5.055 130.245  0.00  0.00    +0.074 A 
ATOM      8  C   LIG A   1      -7.958   4.082 130.333  0.00  0.00    +0.129 A 
ATOM      9  C   LIG A   1      -7.582   3.550 131.567  0.00  0.00    +0.049 A 
ATOM     10  C   LIG A   1      -8.203   3.983 132.741  0.00  0.00    -0.046 A 
ATOM     11  C   LIG A   1      -7.823   3.406 134.072  0.00  0.00    +0.044 C 
ATOM     12  C   LIG A   1      -9.215   4.948 132.655  0.00  0.00    +0.016 A 
ATOM     13  C   LIG A   1      -9.591   5.480 131.413  0.00  0.00    +0.037 A 
ATOM     14  C   LIG A   1     -10.656   6.496 131.357  0.00  0.00    +0.195 C 
ATOM     15  O   LIG A   1     -11.209   6.869 132.385  0.00  0.00    -0.287 OA
ATOM     16  C   LIG A   1     -11.055   7.062 130.053  0.00  0.00    +0.040 A 
ATOM     17  C   LIG A   1     -12.075   8.031 130.032  0.00  0.00    +0.058 A 
ENDROOT
BRANCH   1  19
ATOM     18  C   LIG A   1     -13.443  10.640 129.568  0.00  0.00    +0.277 C 
ATOM     19  O   LIG A   1     -13.456   9.538 128.666  0.00  0.00    -0.495 OA
ENDBRANCH   1  19
BRANCH   3  20
ATOM     20  O   LIG A   1     -10.286   6.851 126.477  0.00  0.00    -0.506 OA
ATOM     21  H   LIG A   1     -10.433   7.534 125.802  0.00  0.00    +0.292 HD
ENDBRANCH   3  20
BRANCH   8  22
ATOM     22  O   LIG A   1      -7.288   3.598 129.240  0.00  0.00    -0.506 OA
ATOM     23  H   LIG A   1      -6.735   2.838 129.537  0.00  0.00    +0.292 HD
ENDBRANCH   8  22
TORSDOF 3
ENDMDL
MODEL 2
REMARK VINA RESULT:      -7.5      1.163      5.855
REMARK  Name = NuBBE_2087
REMARK  5 active torsions:
REMARK  status: ('A' for Active; 'I' for Inactive)
REMARK    1  A    between atoms: C_1  and  O_2
REMARK    2  A    between atoms: O_2  and  C_3
REMARK    3  A    between atoms: C_5  and  O_6
REMARK    4  A    between atoms: C_11  and  O_12
REMARK    5  A    between atoms: C_14  and  C_15
REMARK                            x       y       z     vdW  Elec       q    Type
REMARK                         _______ _______ _______ _____ _____    ______ ____
ROOT
ATOM      1  C   LIG A   1      -8.394   3.887 132.940  0.00  0.00    +0.124 A 
ATOM      2  C   LIG A   1      -7.708   3.435 131.812  0.00  0.00    +0.091 A 
ATOM      3  C   LIG A   1      -7.991   3.959 130.547  0.00  0.00    +0.132 A 
ATOM      4  C   LIG A   1      -8.971   4.949 130.386  0.00  0.00    +0.075 A 
ATOM      5  C   LIG A   1      -9.303   5.535 129.060  0.00  0.00    +0.202 C 
ATOM      6  O   LIG A   1      -8.743   5.191 128.023  0.00  0.00    -0.286 OA
ATOM      7  C   LIG A   1     -10.348   6.575 128.957  0.00  0.00    +0.074 A 
ATOM      8  C   LIG A   1     -10.676   7.143 127.717  0.00  0.00    +0.129 A 
ATOM      9  C   LIG A   1     -11.662   8.126 127.619  0.00  0.00    +0.049 A 
ATOM     10  C   LIG A   1     -12.345   8.556 128.760  0.00  0.00    -0.046 A 
ATOM     11  C   LIG A   1     -13.394   9.625 128.673  0.00  0.00    +0.044 C 
ATOM     12  C   LIG A   1     -12.013   7.996 130.000  0.00  0.00    +0.016 A 
ATOM     13  C   LIG A   1     -11.020   7.009 130.094  0.00  0.00    +0.037 A 
ATOM     14  C   LIG A   1     -10.696   6.437 131.413  0.00  0.00    +0.195 C 
ATOM     15  O   LIG A   1     -11.288   6.822 132.415  0.00  0.00    -0.287 OA
ATOM     16  C   LIG A   1      -9.654   5.397 131.520  0.00  0.00    +0.040 A 
ATOM     17  C   LIG A   1      -9.368   4.870 132.792  0.00  0.00    +0.058 A 
ENDROOT
BRANCH   1  19
ATOM     18  C   LIG A   1      -6.663   3.441 134.512  0.00  0.00    +0.277 C 
ATOM     19  O   LIG A   1      -8.022   3.292 134.112  0.00  0.00    -0.495 OA
ENDBRANCH   1  19
BRANCH   3  20
ATOM     20  O   LIG A   1      -7.291   3.482 129.476  0.00  0.00    -0.506 OA
ATOM     21  H   LIG A   1      -6.363   3.764 129.523  0.00  0.00    +0.292 HD
ENDBRANCH   3  20
BRANCH   8  22
ATOM     22  O   LIG A   1     -10.067   6.784 126.544  0.00  0.00    -0.506 OA
ATOM     23  H   LIG A   1      -9.118   6.602 126.739  0.00  0.00    +0.292 HD
ENDBRANCH   8  22
TORSDOF 3
ENDMDL
MODEL 3
REMARK VINA RESULT:      -7.0      7.567      9.411
REMARK  Name = NuBBE_2087
REMARK  5 active torsions:
REMARK  status: ('A' for Active; 'I' for Inactive)
REMARK    1  A    between atoms: C_1  and  O_2
REMARK    2  A    between atoms: O_2  and  C_3
REMARK    3  A    between atoms: C_5  and  O_6
REMARK    4  A    between atoms: C_11  and  O_12
REMARK    5  A    between atoms: C_14  and  C_15
REMARK                            x       y       z     vdW  Elec       q    Type
REMARK                         _______ _______ _______ _____ _____    ______ ____
ROOT
ATOM      1  C   LIG A   1      -4.112   3.199 126.439  0.00  0.00    +0.124 A 
ATOM      2  C   LIG A   1      -4.757   4.229 125.752  0.00  0.00    +0.091 A 
ATOM      3  C   LIG A   1      -5.863   3.963 124.940  0.00  0.00    +0.132 A 
ATOM      4  C   LIG A   1      -6.347   2.654 124.798  0.00  0.00    +0.075 A 
ATOM      5  C   LIG A   1      -7.521   2.326 123.946  0.00  0.00    +0.202 C 
ATOM      6  O   LIG A   1      -8.141   3.176 123.313  0.00  0.00    -0.286 OA
ATOM      7  C   LIG A   1      -7.982   0.927 123.837  0.00  0.00    +0.074 A 
ATOM      8  C   LIG A   1      -9.088   0.593 123.041  0.00  0.00    +0.129 A 
ATOM      9  C   LIG A   1      -9.523  -0.729 122.938  0.00  0.00    +0.049 A 
ATOM     10  C   LIG A   1      -8.857  -1.747 123.625  0.00  0.00    -0.046 A 
ATOM     11  C   LIG A   1      -9.325  -3.169 123.539  0.00  0.00    +0.044 C 
ATOM     12  C   LIG A   1      -7.757  -1.415 124.427  0.00  0.00    +0.016 A 
ATOM     13  C   LIG A   1      -7.323  -0.085 124.529  0.00  0.00    +0.037 A 
ATOM     14  C   LIG A   1      -6.161   0.230 125.377  0.00  0.00    +0.195 C 
ATOM     15  O   LIG A   1      -5.583  -0.661 125.989  0.00  0.00    -0.287 OA
ATOM     16  C   LIG A   1      -5.698   1.627 125.488  0.00  0.00    +0.040 A 
ATOM     17  C   LIG A   1      -4.585   1.897 126.305  0.00  0.00    +0.058 A 
ENDROOT
BRANCH   1  19
ATOM     18  C   LIG A   1      -1.773   3.057 126.855  0.00  0.00    +0.277 C 
ATOM     19  O   LIG A   1      -3.046   3.596 127.196  0.00  0.00    -0.495 OA
ENDBRANCH   1  19
BRANCH   3  20
ATOM     20  O   LIG A   1      -6.457   5.006 124.291  0.00  0.00    -0.506 OA
ATOM     21  H   LIG A   1      -6.879   4.702 123.471  0.00  0.00    +0.292 HD
ENDBRANCH   3  20
BRANCH   8  22
ATOM     22  O   LIG A   1      -9.802   1.519 122.327  0.00  0.00    -0.506 OA
ATOM     23  H   LIG A   1      -9.409   2.406 122.503  0.00  0.00    +0.292 HD
ENDBRANCH   8  22
TORSDOF 3
ENDMDL
MODEL 4
REMARK VINA RESULT:      -6.9      7.906      8.630
REMARK  Name = NuBBE_2087
REMARK  5 active torsions:
REMARK  status: ('A' for Active; 'I' for Inactive)
REMARK    1  A    between atoms: C_1  and  O_2
REMARK    2  A    between atoms: O_2  and  C_3
REMARK    3  A    between atoms: C_5  and  O_6
REMARK    4  A    between atoms: C_11  and  O_12
REMARK    5  A    between atoms: C_14  and  C_15
REMARK                            x       y       z     vdW  Elec       q    Type
REMARK                         _______ _______ _______ _____ _____    ______ ____
ROOT
ATOM      1  C   LIG A   1      -6.587   3.155 123.862  0.00  0.00    +0.124 A 
ATOM      2  C   LIG A   1      -7.654   2.763 123.054  0.00  0.00    +0.091 A 
ATOM      3  C   LIG A   1      -8.372   1.597 123.333  0.00  0.00    +0.132 A 
ATOM      4  C   LIG A   1      -8.033   0.795 124.433  0.00  0.00    +0.075 A 
ATOM      5  C   LIG A   1      -8.769  -0.453 124.767  0.00  0.00    +0.202 C 
ATOM      6  O   LIG A   1      -9.719  -0.861 124.106  0.00  0.00    -0.286 OA
ATOM      7  C   LIG A   1      -8.361  -1.255 125.939  0.00  0.00    +0.074 A 
ATOM      8  C   LIG A   1      -9.042  -2.434 126.276  0.00  0.00    +0.129 A 
ATOM      9  C   LIG A   1      -8.657  -3.192 127.383  0.00  0.00    +0.049 A 
ATOM     10  C   LIG A   1      -7.578  -2.789 128.173  0.00  0.00    -0.046 A 
ATOM     11  C   LIG A   1      -7.165  -3.582 129.377  0.00  0.00    +0.044 C 
ATOM     12  C   LIG A   1      -6.902  -1.607 127.844  0.00  0.00    +0.016 A 
ATOM     13  C   LIG A   1      -7.292  -0.847 126.731  0.00  0.00    +0.037 A 
ATOM     14  C   LIG A   1      -6.558   0.388 126.409  0.00  0.00    +0.195 C 
ATOM     15  O   LIG A   1      -5.618   0.748 127.108  0.00  0.00    -0.287 OA
ATOM     16  C   LIG A   1      -6.962   1.192 125.238  0.00  0.00    +0.040 A 
ATOM     17  C   LIG A   1      -6.241   2.367 124.956  0.00  0.00    +0.058 A 
ENDROOT
BRANCH   1  19
ATOM     18  C   LIG A   1      -5.322   4.311 122.210  0.00  0.00    +0.277 C 
ATOM     19  O   LIG A   1      -5.971   4.312 123.477  0.00  0.00    -0.495 OA
ENDBRANCH   1  19
BRANCH   3  20
ATOM     20  O   LIG A   1      -9.408   1.259 122.511  0.00  0.00    -0.506 OA
ATOM     21  H   LIG A   1     -10.258   1.394 122.960  0.00  0.00    +0.292 HD
ENDBRANCH   3  20
BRANCH   8  22
ATOM     22  O   LIG A   1     -10.108  -2.914 125.560  0.00  0.00    -0.506 OA
ATOM     23  H   LIG A   1     -10.296  -3.828 125.875  0.00  0.00    +0.292 HD
ENDBRANCH   8  22
TORSDOF 3
ENDMDL
MODEL 5
REMARK VINA RESULT:      -6.9      4.162      5.904
REMARK  Name = NuBBE_2087
REMARK  5 active torsions:
REMARK  status: ('A' for Active; 'I' for Inactive)
REMARK    1  A    between atoms: C_1  and  O_2
REMARK    2  A    between atoms: O_2  and  C_3
REMARK    3  A    between atoms: C_5  and  O_6
REMARK    4  A    between atoms: C_11  and  O_12
REMARK    5  A    between atoms: C_14  and  C_15
REMARK                            x       y       z     vdW  Elec       q    Type
REMARK                         _______ _______ _______ _____ _____    ______ ____
ROOT
ATOM      1  C   LIG A   1      -9.545   6.538 131.426  0.00  0.00    +0.124 A 
ATOM      2  C   LIG A   1      -9.726   5.819 132.607  0.00  0.00    +0.091 A 
ATOM      3  C   LIG A   1      -8.629   5.404 133.367  0.00  0.00    +0.132 A 
ATOM      4  C   LIG A   1      -7.321   5.703 132.957  0.00  0.00    +0.075 A 
ATOM      5  C   LIG A   1      -6.125   5.282 133.735  0.00  0.00    +0.202 C 
ATOM      6  O   LIG A   1      -6.204   4.649 134.783  0.00  0.00    -0.286 OA
ATOM      7  C   LIG A   1      -4.774   5.627 133.247  0.00  0.00    +0.074 A 
ATOM      8  C   LIG A   1      -3.631   5.244 133.965  0.00  0.00    +0.129 A 
ATOM      9  C   LIG A   1      -2.354   5.569 133.506  0.00  0.00    +0.049 A 
ATOM     10  C   LIG A   1      -2.194   6.281 132.314  0.00  0.00    -0.046 A 
ATOM     11  C   LIG A   1      -0.829   6.655 131.818  0.00  0.00    +0.044 C 
ATOM     12  C   LIG A   1      -3.333   6.672 131.600  0.00  0.00    +0.016 A 
ATOM     13  C   LIG A   1      -4.616   6.344 132.066  0.00  0.00    +0.037 A 
ATOM     14  C   LIG A   1      -5.794   6.767 131.290  0.00  0.00    +0.195 C 
ATOM     15  O   LIG A   1      -5.654   7.401 130.250  0.00  0.00    -0.287 OA
ATOM     16  C   LIG A   1      -7.146   6.424 131.773  0.00  0.00    +0.040 A 
ATOM     17  C   LIG A   1      -8.251   6.841 131.009  0.00  0.00    +0.058 A 
ENDROOT
BRANCH   1  19
ATOM     18  C   LIG A   1     -11.923   6.629 131.464  0.00  0.00    +0.277 C 
ATOM     19  O   LIG A   1     -10.699   6.881 130.781  0.00  0.00    -0.495 OA
ENDBRANCH   1  19
BRANCH   3  20
ATOM     20  O   LIG A   1      -8.862   4.703 134.515  0.00  0.00    -0.506 OA
ATOM     21  H   LIG A   1      -8.372   3.865 134.508  0.00  0.00    +0.292 HD
ENDBRANCH   3  20
BRANCH   8  22
ATOM     22  O   LIG A   1      -3.686   4.541 135.140  0.00  0.00    -0.506 OA
ATOM     23  H   LIG A   1      -4.482   3.960 135.107  0.00  0.00    +0.292 HD
ENDBRANCH   8  22
TORSDOF 3
ENDMDL
MODEL 6
REMARK VINA RESULT:      -6.8      7.978      9.973
REMARK  Name = NuBBE_2087
REMARK  5 active torsions:
REMARK  status: ('A' for Active; 'I' for Inactive)
REMARK    1  A    between atoms: C_1  and  O_2
REMARK    2  A    between atoms: O_2  and  C_3
REMARK    3  A    between atoms: C_5  and  O_6
REMARK    4  A    between atoms: C_11  and  O_12
REMARK    5  A    between atoms: C_14  and  C_15
REMARK                            x       y       z     vdW  Elec       q    Type
REMARK                         _______ _______ _______ _____ _____    ______ ____
ROOT
ATOM      1  C   LIG A   1      -7.629  -2.925 128.201  0.00  0.00    +0.124 A 
ATOM      2  C   LIG A   1      -8.702  -3.291 127.388  0.00  0.00    +0.091 A 
ATOM      3  C   LIG A   1      -9.070  -2.503 126.294  0.00  0.00    +0.132 A 
ATOM      4  C   LIG A   1      -8.368  -1.328 125.991  0.00  0.00    +0.075 A 
ATOM      5  C   LIG A   1      -8.724  -0.461 124.837  0.00  0.00    +0.202 C 
ATOM      6  O   LIG A   1      -9.653  -0.716 124.075  0.00  0.00    -0.286 OA
ATOM      7  C   LIG A   1      -7.946   0.767 124.572  0.00  0.00    +0.074 A 
ATOM      8  C   LIG A   1      -8.261   1.599 123.487  0.00  0.00    +0.129 A 
ATOM      9  C   LIG A   1      -7.526   2.758 123.237  0.00  0.00    +0.049 A 
ATOM     10  C   LIG A   1      -6.462   3.113 124.070  0.00  0.00    -0.046 A 
ATOM     11  C   LIG A   1      -5.650   4.345 123.801  0.00  0.00    +0.044 C 
ATOM     12  C   LIG A   1      -6.139   2.279 125.148  0.00  0.00    +0.016 A 
ATOM     13  C   LIG A   1      -6.880   1.114 125.397  0.00  0.00    +0.037 A 
ATOM     14  C   LIG A   1      -6.518   0.260 126.541  0.00  0.00    +0.195 C 
ATOM     15  O   LIG A   1      -5.578   0.565 127.266  0.00  0.00    -0.287 OA
ATOM     16  C   LIG A   1      -7.294  -0.967 126.809  0.00  0.00    +0.040 A 
ATOM     17  C   LIG A   1      -6.925  -1.761 127.910  0.00  0.00    +0.058 A 
ENDROOT
BRANCH   1  19
ATOM     18  C   LIG A   1      -6.230  -3.512 130.036  0.00  0.00    +0.277 C 
ATOM     19  O   LIG A   1      -7.377  -3.782 129.236  0.00  0.00    -0.495 OA
ENDBRANCH   1  19
BRANCH   3  20
ATOM     20  O   LIG A   1     -10.127  -2.906 125.530  0.00  0.00    -0.506 OA
ATOM     21  H   LIG A   1     -10.727  -2.163 125.358  0.00  0.00    +0.292 HD
ENDBRANCH   3  20
BRANCH   8  22
ATOM     22  O   LIG A   1      -9.288   1.339 122.619  0.00  0.00    -0.506 OA
ATOM     23  H   LIG A   1      -8.915   1.320 121.707  0.00  0.00    +0.292 HD
ENDBRANCH   8  22
TORSDOF 3
ENDMDL
MODEL 7
REMARK VINA RESULT:      -6.8      7.947      8.444
REMARK  Name = NuBBE_2087
REMARK  5 active torsions:
REMARK  status: ('A' for Active; 'I' for Inactive)
REMARK    1  A    between atoms: C_1  and  O_2
REMARK    2  A    between atoms: O_2  and  C_3
REMARK    3  A    between atoms: C_5  and  O_6
REMARK    4  A    between atoms: C_11  and  O_12
REMARK    5  A    between atoms: C_14  and  C_15
REMARK                            x       y       z     vdW  Elec       q    Type
REMARK                         _______ _______ _______ _____ _____    ______ ____
ROOT
ATOM      1  C   LIG A   1      -8.277   2.883 122.644  0.00  0.00    +0.124 A 
ATOM      2  C   LIG A   1      -7.099   3.415 123.169  0.00  0.00    +0.091 A 
ATOM      3  C   LIG A   1      -6.444   2.788 124.233  0.00  0.00    +0.132 A 
ATOM      4  C   LIG A   1      -6.959   1.611 124.795  0.00  0.00    +0.075 A 
ATOM      5  C   LIG A   1      -6.294   0.911 125.927  0.00  0.00    +0.202 C 
ATOM      6  O   LIG A   1      -5.256   1.316 126.441  0.00  0.00    -0.286 OA
ATOM      7  C   LIG A   1      -6.888  -0.326 126.476  0.00  0.00    +0.074 A 
ATOM      8  C   LIG A   1      -6.278  -1.005 127.541  0.00  0.00    +0.129 A 
ATOM      9  C   LIG A   1      -6.838  -2.174 128.059  0.00  0.00    +0.049 A 
ATOM     10  C   LIG A   1      -8.025  -2.684 127.526  0.00  0.00    -0.046 A 
ATOM     11  C   LIG A   1      -8.628  -3.950 128.060  0.00  0.00    +0.044 C 
ATOM     12  C   LIG A   1      -8.631  -2.013 126.457  0.00  0.00    +0.016 A 
ATOM     13  C   LIG A   1      -8.064  -0.839 125.938  0.00  0.00    +0.037 A 
ATOM     14  C   LIG A   1      -8.728  -0.154 124.815  0.00  0.00    +0.195 C 
ATOM     15  O   LIG A   1      -9.763  -0.607 124.340  0.00  0.00    -0.287 OA
ATOM     16  C   LIG A   1      -8.139   1.082 124.265  0.00  0.00    +0.040 A 
ATOM     17  C   LIG A   1      -8.796   1.714 123.194  0.00  0.00    +0.058 A 
ENDROOT
BRANCH   1  19
ATOM     18  C   LIG A   1      -7.951   3.907 120.521  0.00  0.00    +0.277 C 
ATOM     19  O   LIG A   1      -8.814   3.593 121.608  0.00  0.00    -0.495 OA
ENDBRANCH   1  19
BRANCH   3  20
ATOM     20  O   LIG A   1      -5.295   3.350 124.709  0.00  0.00    -0.506 OA
ATOM     21  H   LIG A   1      -5.028   2.927 125.541  0.00  0.00    +0.292 HD
ENDBRANCH   3  20
BRANCH   8  22
ATOM     22  O   LIG A   1      -5.118  -0.581 128.133  0.00  0.00    -0.506 OA
ATOM     23  H   LIG A   1      -4.471  -0.375 127.418  0.00  0.00    +0.292 HD
ENDBRANCH   8  22
TORSDOF 3
ENDMDL
MODEL 8
REMARK VINA RESULT:      -6.7      6.965      8.996
REMARK  Name = NuBBE_2087
REMARK  5 active torsions:
REMARK  status: ('A' for Active; 'I' for Inactive)
REMARK    1  A    between atoms: C_1  and  O_2
REMARK    2  A    between atoms: O_2  and  C_3
REMARK    3  A    between atoms: C_5  and  O_6
REMARK    4  A    between atoms: C_11  and  O_12
REMARK    5  A    between atoms: C_14  and  C_15
REMARK                            x       y       z     vdW  Elec       q    Type
REMARK                         _______ _______ _______ _____ _____    ______ ____
ROOT
ATOM      1  C   LIG A   1      -8.176  -1.304 123.675  0.00  0.00    +0.124 A 
ATOM      2  C   LIG A   1      -9.053  -0.341 123.176  0.00  0.00    +0.091 A 
ATOM      3  C   LIG A   1      -8.835   1.018 123.421  0.00  0.00    +0.132 A 
ATOM      4  C   LIG A   1      -7.731   1.441 124.175  0.00  0.00    +0.075 A 
ATOM      5  C   LIG A   1      -7.461   2.876 124.459  0.00  0.00    +0.202 C 
ATOM      6  O   LIG A   1      -8.184   3.781 124.053  0.00  0.00    -0.286 OA
ATOM      7  C   LIG A   1      -6.280   3.256 125.261  0.00  0.00    +0.074 A 
ATOM      8  C   LIG A   1      -6.003   4.602 125.540  0.00  0.00    +0.129 A 
ATOM      9  C   LIG A   1      -4.887   4.963 126.298  0.00  0.00    +0.049 A 
ATOM     10  C   LIG A   1      -4.028   3.981 126.798  0.00  0.00    -0.046 A 
ATOM     11  C   LIG A   1      -2.814   4.353 127.596  0.00  0.00    +0.044 C 
ATOM     12  C   LIG A   1      -4.297   2.636 126.514  0.00  0.00    +0.016 A 
ATOM     13  C   LIG A   1      -5.419   2.278 125.751  0.00  0.00    +0.037 A 
ATOM     14  C   LIG A   1      -5.677   0.855 125.472  0.00  0.00    +0.195 C 
ATOM     15  O   LIG A   1      -4.917  -0.006 125.902  0.00  0.00    -0.287 OA
ATOM     16  C   LIG A   1      -6.856   0.471 124.672  0.00  0.00    +0.040 A 
ATOM     17  C   LIG A   1      -7.077  -0.896 124.424  0.00  0.00    +0.058 A 
ENDROOT
BRANCH   1  19
ATOM     18  C   LIG A   1      -9.387  -3.270 124.253  0.00  0.00    +0.277 C 
ATOM     19  O   LIG A   1      -8.505  -2.593 123.364  0.00  0.00    -0.495 OA
ENDBRANCH   1  19
BRANCH   3  20
ATOM     20  O   LIG A   1      -9.723   1.920 122.910  0.00  0.00    -0.506 OA
ATOM     21  H   LIG A   1      -9.852   1.771 121.959  0.00  0.00    +0.292 HD
ENDBRANCH   3  20
BRANCH   8  22
ATOM     22  O   LIG A   1      -6.788   5.635 125.098  0.00  0.00    -0.506 OA
ATOM     23  H   LIG A   1      -7.712   5.300 125.020  0.00  0.00    +0.292 HD
ENDBRANCH   8  22
TORSDOF 3
ENDMDL
MODEL 9
REMARK VINA RESULT:      -6.5      6.847      8.206
REMARK  Name = NuBBE_2087
REMARK  5 active torsions:
REMARK  status: ('A' for Active; 'I' for Inactive)
REMARK    1  A    between atoms: C_1  and  O_2
REMARK    2  A    between atoms: O_2  and  C_3
REMARK    3  A    between atoms: C_5  and  O_6
REMARK    4  A    between atoms: C_11  and  O_12
REMARK    5  A    between atoms: C_14  and  C_15
REMARK                            x       y       z     vdW  Elec       q    Type
REMARK                         _______ _______ _______ _____ _____    ______ ____
ROOT
ATOM      1  C   LIG A   1      -8.628   2.077 124.221  0.00  0.00    +0.124 A 
ATOM      2  C   LIG A   1      -9.095   0.982 123.493  0.00  0.00    +0.091 A 
ATOM      3  C   LIG A   1      -9.155  -0.288 124.072  0.00  0.00    +0.132 A 
ATOM      4  C   LIG A   1      -8.747  -0.489 125.399  0.00  0.00    +0.075 A 
ATOM      5  C   LIG A   1      -8.794  -1.823 126.055  0.00  0.00    +0.202 C 
ATOM      6  O   LIG A   1      -9.194  -2.832 125.481  0.00  0.00    -0.286 OA
ATOM      7  C   LIG A   1      -8.348  -1.969 127.456  0.00  0.00    +0.074 A 
ATOM      8  C   LIG A   1      -8.387  -3.215 128.097  0.00  0.00    +0.129 A 
ATOM      9  C   LIG A   1      -7.965  -3.354 129.420  0.00  0.00    +0.049 A 
ATOM     10  C   LIG A   1      -7.490  -2.247 130.129  0.00  0.00    -0.046 A 
ATOM     11  C   LIG A   1      -7.053  -2.376 131.558  0.00  0.00    +0.044 C 
ATOM     12  C   LIG A   1      -7.459  -0.999 129.494  0.00  0.00    +0.016 A 
ATOM     13  C   LIG A   1      -7.885  -0.864 128.164  0.00  0.00    +0.037 A 
ATOM     14  C   LIG A   1      -7.836   0.462 127.523  0.00  0.00    +0.195 C 
ATOM     15  O   LIG A   1      -7.430   1.435 128.148  0.00  0.00    -0.287 OA
ATOM     16  C   LIG A   1      -8.280   0.611 126.123  0.00  0.00    +0.040 A 
ATOM     17  C   LIG A   1      -8.221   1.889 125.538  0.00  0.00    +0.058 A 
ENDROOT
BRANCH   1  19
ATOM     18  C   LIG A   1      -8.466   3.188 122.122  0.00  0.00    +0.277 C 
ATOM     19  O   LIG A   1      -8.621   3.259 123.536  0.00  0.00    -0.495 OA
ENDBRANCH   1  19
BRANCH   3  20
ATOM     20  O   LIG A   1      -9.619  -1.325 123.316  0.00  0.00    -0.506 OA
ATOM     21  H   LIG A   1      -9.825  -1.026 122.416  0.00  0.00    +0.292 HD
ENDBRANCH   3  20
BRANCH   8  22
ATOM     22  O   LIG A   1      -8.830  -4.358 127.485  0.00  0.00    -0.506 OA
ATOM     23  H   LIG A   1      -8.398  -4.414 126.601  0.00  0.00    +0.292 HD
ENDBRANCH   8  22
TORSDOF 3
ENDMDL
