MODEL 1
REMARK VINA RESULT:      -7.4      0.000      0.000
REMARK  Name = NuBBE_1885
REMARK  18 active torsions:
REMARK  status: ('A' for Active; 'I' for Inactive)
REMARK    1  A    between atoms: C_4  and  O_5
REMARK    2  A    between atoms: O_5  and  C_6
REMARK    3  A    between atoms: C_6  and  C_7
REMARK    4  A    between atoms: C_9  and  O_10
REMARK    5  A    between atoms: O_10  and  C_11
REMARK    6  A    between atoms: C_11  and  C_12
REMARK    7  A    between atoms: C_14  and  O_15
REMARK    8  A    between atoms: O_15  and  C_16
REMARK    9  A    between atoms: C_20  and  C_21
REMARK   10  A    between atoms: C_23  and  O_24
REMARK   11  A    between atoms: O_24  and  C_25
REMARK   12  A    between atoms: C_26  and  O_27
REMARK   13  A    between atoms: O_27  and  C_28
REMARK   14  A    between atoms: C_29  and  O_30
REMARK   15  A    between atoms: O_30  and  C_31
REMARK   16  A    between atoms: C_31  and  C_32
REMARK   17  A    between atoms: C_35  and  O_36
REMARK   18  A    between atoms: O_36  and  C_37
REMARK                            x       y       z     vdW  Elec       q    Type
REMARK                         _______ _______ _______ _____ _____    ______ ____
ROOT
ATOM      1  O   LIG A   1      -6.814  -1.768 125.388  0.00  0.00    -0.283 OA
ATOM      2  C   LIG A   1      -7.530  -1.206 126.173  0.00  0.00    +0.238 A 
ATOM      3  C   LIG A   1      -8.149   0.082 125.850  0.00  0.00    +0.114 A 
ATOM      4  C   LIG A   1      -8.460   0.517 124.550  0.00  0.00    +0.192 A 
ATOM      5  C   LIG A   1      -8.753   1.886 124.336  0.00  0.00    +0.216 A 
ATOM      6  C   LIG A   1      -8.680   2.788 125.418  0.00  0.00    +0.169 A 
ATOM      7  C   LIG A   1      -8.465   2.288 126.711  0.00  0.00    +0.096 A 
ATOM      8  C   LIG A   1      -8.198   0.956 126.922  0.00  0.00    +0.147 A 
ATOM      9  O   LIG A   1      -7.847   0.620 128.201  0.00  0.00    -0.451 OA
ATOM     10  C   LIG A   1      -7.796  -0.726 128.534  0.00  0.00    +0.181 A 
ATOM     11  C   LIG A   1      -7.738  -1.689 127.575  0.00  0.00    +0.211 A 
ENDROOT
BRANCH  10  12
ATOM     12  C   LIG A   1      -7.734  -0.947 130.006  0.00  0.00    +0.028 A 
ATOM     13  C   LIG A   1      -8.041   0.075 130.916  0.00  0.00    +0.061 A 
ATOM     14  C   LIG A   1      -7.827  -0.046 132.307  0.00  0.00    +0.166 A 
ATOM     15  C   LIG A   1      -7.332  -1.255 132.828  0.00  0.00    +0.204 A 
ATOM     16  C   LIG A   1      -7.092  -2.301 131.919  0.00  0.00    +0.177 A 
ATOM     17  C   LIG A   1      -7.289  -2.140 130.555  0.00  0.00    +0.062 A 
BRANCH  14  18
ATOM     18  O   LIG A   1      -8.005   1.032 133.137  0.00  0.00    -0.491 OA
ATOM     19  C   LIG A   1      -7.000   2.042 133.115  0.00  0.00    +0.277 C 
ENDBRANCH  14  18
BRANCH  15  20
ATOM     20  O   LIG A   1      -7.076  -1.569 134.139  0.00  0.00    -0.488 OA
ATOM     21  C   LIG A   1      -5.858  -1.158 134.745  0.00  0.00    +0.277 C 
ENDBRANCH  15  20
BRANCH  16  22
ATOM     22  O   LIG A   1      -6.621  -3.548 132.413  0.00  0.00    -0.422 OA
BRANCH  22  23
ATOM     23  C   LIG A   1      -5.323  -4.060 132.227  0.00  0.00    +0.309 C 
ATOM     24  C   LIG A   1      -5.421  -5.166 131.236  0.00  0.00    +0.136 C 
ATOM     25  O   LIG A   1      -4.285  -3.746 132.785  0.00  0.00    -0.251 OA
ENDBRANCH  22  23
ENDBRANCH  16  22
ENDBRANCH  10  12
BRANCH   6  26
ATOM     26  O   LIG A   1      -8.675   4.139 125.191  0.00  0.00    -0.491 OA
ATOM     27  C   LIG A   1      -7.470   4.823 125.550  0.00  0.00    +0.277 C 
ENDBRANCH   6  26
BRANCH  11  28
ATOM     28  O   LIG A   1      -7.719  -3.026 127.845  0.00  0.00    -0.488 OA
ATOM     29  C   LIG A   1      -8.906  -3.729 127.506  0.00  0.00    +0.277 C 
ENDBRANCH  11  28
BRANCH   4  30
ATOM     30  O   LIG A   1      -8.216  -0.357 123.449  0.00  0.00    -0.421 OA
BRANCH  30  31
ATOM     31  C   LIG A   1      -9.245  -1.134 122.920  0.00  0.00    +0.309 C 
ATOM     32  C   LIG A   1      -8.893  -2.601 122.902  0.00  0.00    +0.136 C 
ATOM     33  O   LIG A   1     -10.291  -0.702 122.458  0.00  0.00    -0.251 OA
ENDBRANCH  30  31
ENDBRANCH   4  30
BRANCH   5  34
ATOM     34  O   LIG A   1      -9.007   2.246 122.968  0.00  0.00    -0.418 OA
BRANCH  34  35
ATOM     35  C   LIG A   1      -8.318   3.101 122.090  0.00  0.00    +0.309 C 
ATOM     36  C   LIG A   1      -6.829   2.972 122.312  0.00  0.00    +0.136 C 
ATOM     37  O   LIG A   1      -8.802   3.804 121.219  0.00  0.00    -0.251 OA
ENDBRANCH  34  35
ENDBRANCH   5  34
TORSDOF 11
ENDMDL
MODEL 2
REMARK VINA RESULT:      -7.4      3.726      6.640
REMARK  Name = NuBBE_1885
REMARK  18 active torsions:
REMARK  status: ('A' for Active; 'I' for Inactive)
REMARK    1  A    between atoms: C_4  and  O_5
REMARK    2  A    between atoms: O_5  and  C_6
REMARK    3  A    between atoms: C_6  and  C_7
REMARK    4  A    between atoms: C_9  and  O_10
REMARK    5  A    between atoms: O_10  and  C_11
REMARK    6  A    between atoms: C_11  and  C_12
REMARK    7  A    between atoms: C_14  and  O_15
REMARK    8  A    between atoms: O_15  and  C_16
REMARK    9  A    between atoms: C_20  and  C_21
REMARK   10  A    between atoms: C_23  and  O_24
REMARK   11  A    between atoms: O_24  and  C_25
REMARK   12  A    between atoms: C_26  and  O_27
REMARK   13  A    between atoms: O_27  and  C_28
REMARK   14  A    between atoms: C_29  and  O_30
REMARK   15  A    between atoms: O_30  and  C_31
REMARK   16  A    between atoms: C_31  and  C_32
REMARK   17  A    between atoms: C_35  and  O_36
REMARK   18  A    between atoms: O_36  and  C_37
REMARK                            x       y       z     vdW  Elec       q    Type
REMARK                         _______ _______ _______ _____ _____    ______ ____
ROOT
ATOM      1  O   LIG A   1      -5.439  -1.106 128.374  0.00  0.00    -0.283 OA
ATOM      2  C   LIG A   1      -6.188  -0.166 128.409  0.00  0.00    +0.238 A 
ATOM      3  C   LIG A   1      -7.364  -0.099 127.537  0.00  0.00    +0.114 A 
ATOM      4  C   LIG A   1      -8.051  -1.216 127.033  0.00  0.00    +0.192 A 
ATOM      5  C   LIG A   1      -8.959  -1.038 125.962  0.00  0.00    +0.216 A 
ATOM      6  C   LIG A   1      -9.118   0.243 125.394  0.00  0.00    +0.169 A 
ATOM      7  C   LIG A   1      -8.487   1.341 125.997  0.00  0.00    +0.096 A 
ATOM      8  C   LIG A   1      -7.619   1.171 127.050  0.00  0.00    +0.147 A 
ATOM      9  O   LIG A   1      -6.945   2.294 127.446  0.00  0.00    -0.451 OA
ATOM     10  C   LIG A   1      -6.238   2.246 128.640  0.00  0.00    +0.181 A 
ATOM     11  C   LIG A   1      -5.916   1.061 129.224  0.00  0.00    +0.211 A 
ENDROOT
BRANCH  10  12
ATOM     12  C   LIG A   1      -5.837   3.599 129.118  0.00  0.00    +0.028 A 
ATOM     13  C   LIG A   1      -4.572   4.134 128.832  0.00  0.00    +0.061 A 
ATOM     14  C   LIG A   1      -4.096   5.331 129.411  0.00  0.00    +0.166 A 
ATOM     15  C   LIG A   1      -4.931   6.061 130.277  0.00  0.00    +0.204 A 
ATOM     16  C   LIG A   1      -6.224   5.557 130.505  0.00  0.00    +0.177 A 
ATOM     17  C   LIG A   1      -6.651   4.363 129.940  0.00  0.00    +0.062 A 
BRANCH  14  18
ATOM     18  O   LIG A   1      -2.800   5.734 129.214  0.00  0.00    -0.491 OA
ATOM     19  C   LIG A   1      -2.552   6.624 128.129  0.00  0.00    +0.277 C 
ENDBRANCH  14  18
BRANCH  15  20
ATOM     20  O   LIG A   1      -4.658   7.242 130.918  0.00  0.00    -0.488 OA
ATOM     21  C   LIG A   1      -3.762   7.263 132.020  0.00  0.00    +0.277 C 
ENDBRANCH  15  20
BRANCH  16  22
ATOM     22  O   LIG A   1      -7.107   6.283 131.350  0.00  0.00    -0.422 OA
BRANCH  22  23
ATOM     23  C   LIG A   1      -8.342   6.832 130.956  0.00  0.00    +0.309 C 
ATOM     24  C   LIG A   1      -9.388   6.243 131.836  0.00  0.00    +0.136 C 
ATOM     25  O   LIG A   1      -8.587   7.598 130.040  0.00  0.00    -0.251 OA
ENDBRANCH  22  23
ENDBRANCH  16  22
ENDBRANCH  10  12
BRANCH   6  26
ATOM     26  O   LIG A   1      -9.759   0.392 124.192  0.00  0.00    -0.491 OA
ATOM     27  C   LIG A   1      -9.561   1.647 123.535  0.00  0.00    +0.277 C 
ENDBRANCH   6  26
BRANCH  11  28
ATOM     28  O   LIG A   1      -5.254   0.957 130.411  0.00  0.00    -0.488 OA
ATOM     29  C   LIG A   1      -6.070   0.667 131.537  0.00  0.00    +0.277 C 
ENDBRANCH  11  28
BRANCH   4  30
ATOM     30  O   LIG A   1      -7.630  -2.524 127.421  0.00  0.00    -0.421 OA
BRANCH  30  31
ATOM     31  C   LIG A   1      -8.218  -3.163 128.511  0.00  0.00    +0.309 C 
ATOM     32  C   LIG A   1      -9.161  -4.259 128.083  0.00  0.00    +0.136 C 
ATOM     33  O   LIG A   1      -8.057  -2.852 129.683  0.00  0.00    -0.251 OA
ENDBRANCH  30  31
ENDBRANCH   4  30
BRANCH   5  34
ATOM     34  O   LIG A   1      -9.574  -2.244 125.479  0.00  0.00    -0.418 OA
BRANCH  34  35
ATOM     35  C   LIG A   1      -9.322  -3.022 124.336  0.00  0.00    +0.309 C 
ATOM     36  C   LIG A   1      -8.106  -3.890 124.565  0.00  0.00    +0.136 C 
ATOM     37  O   LIG A   1      -9.992  -3.073 123.319  0.00  0.00    -0.251 OA
ENDBRANCH  34  35
ENDBRANCH   5  34
TORSDOF 11
ENDMDL
MODEL 3
REMARK VINA RESULT:      -7.2      0.661      2.824
REMARK  Name = NuBBE_1885
REMARK  18 active torsions:
REMARK  status: ('A' for Active; 'I' for Inactive)
REMARK    1  A    between atoms: C_4  and  O_5
REMARK    2  A    between atoms: O_5  and  C_6
REMARK    3  A    between atoms: C_6  and  C_7
REMARK    4  A    between atoms: C_9  and  O_10
REMARK    5  A    between atoms: O_10  and  C_11
REMARK    6  A    between atoms: C_11  and  C_12
REMARK    7  A    between atoms: C_14  and  O_15
REMARK    8  A    between atoms: O_15  and  C_16
REMARK    9  A    between atoms: C_20  and  C_21
REMARK   10  A    between atoms: C_23  and  O_24
REMARK   11  A    between atoms: O_24  and  C_25
REMARK   12  A    between atoms: C_26  and  O_27
REMARK   13  A    between atoms: O_27  and  C_28
REMARK   14  A    between atoms: C_29  and  O_30
REMARK   15  A    between atoms: O_30  and  C_31
REMARK   16  A    between atoms: C_31  and  C_32
REMARK   17  A    between atoms: C_35  and  O_36
REMARK   18  A    between atoms: O_36  and  C_37
REMARK                            x       y       z     vdW  Elec       q    Type
REMARK                         _______ _______ _______ _____ _____    ______ ____
ROOT
ATOM      1  O   LIG A   1      -6.791  -1.679 125.157  0.00  0.00    -0.283 OA
ATOM      2  C   LIG A   1      -7.436  -1.114 126.000  0.00  0.00    +0.238 A 
ATOM      3  C   LIG A   1      -8.056   0.187 125.737  0.00  0.00    +0.114 A 
ATOM      4  C   LIG A   1      -8.458   0.642 124.470  0.00  0.00    +0.192 A 
ATOM      5  C   LIG A   1      -8.744   2.016 124.292  0.00  0.00    +0.216 A 
ATOM      6  C   LIG A   1      -8.573   2.906 125.374  0.00  0.00    +0.169 A 
ATOM      7  C   LIG A   1      -8.267   2.388 126.642  0.00  0.00    +0.096 A 
ATOM      8  C   LIG A   1      -8.008   1.049 126.819  0.00  0.00    +0.147 A 
ATOM      9  O   LIG A   1      -7.566   0.694 128.064  0.00  0.00    -0.451 OA
ATOM     10  C   LIG A   1      -7.511  -0.656 128.379  0.00  0.00    +0.181 A 
ATOM     11  C   LIG A   1      -7.543  -1.610 127.409  0.00  0.00    +0.211 A 
ENDROOT
BRANCH  10  12
ATOM     12  C   LIG A   1      -7.340  -0.895 129.839  0.00  0.00    +0.028 A 
ATOM     13  C   LIG A   1      -6.980  -2.154 130.341  0.00  0.00    +0.061 A 
ATOM     14  C   LIG A   1      -6.978  -2.459 131.719  0.00  0.00    +0.166 A 
ATOM     15  C   LIG A   1      -7.300  -1.455 132.651  0.00  0.00    +0.204 A 
ATOM     16  C   LIG A   1      -7.592  -0.175 132.147  0.00  0.00    +0.177 A 
ATOM     17  C   LIG A   1      -7.609   0.084 130.783  0.00  0.00    +0.062 A 
BRANCH  14  18
ATOM     18  O   LIG A   1      -6.762  -3.744 132.150  0.00  0.00    -0.491 OA
ATOM     19  C   LIG A   1      -5.432  -4.247 132.055  0.00  0.00    +0.277 C 
ENDBRANCH  14  18
BRANCH  15  20
ATOM     20  O   LIG A   1      -7.337  -1.552 134.019  0.00  0.00    -0.488 OA
ATOM     21  C   LIG A   1      -6.127  -1.588 134.763  0.00  0.00    +0.277 C 
ENDBRANCH  15  20
BRANCH  16  22
ATOM     22  O   LIG A   1      -7.891   0.872 133.059  0.00  0.00    -0.422 OA
BRANCH  22  23
ATOM     23  C   LIG A   1      -8.114   2.218 132.710  0.00  0.00    +0.309 C 
ATOM     24  C   LIG A   1      -9.587   2.417 132.634  0.00  0.00    +0.136 C 
ATOM     25  O   LIG A   1      -7.302   3.089 132.444  0.00  0.00    -0.251 OA
ENDBRANCH  22  23
ENDBRANCH  16  22
ENDBRANCH  10  12
BRANCH   6  26
ATOM     26  O   LIG A   1      -8.563   4.259 125.161  0.00  0.00    -0.491 OA
ATOM     27  C   LIG A   1      -7.351   4.933 125.516  0.00  0.00    +0.277 C 
ENDBRANCH   6  26
BRANCH  11  28
ATOM     28  O   LIG A   1      -7.527  -2.949 127.663  0.00  0.00    -0.488 OA
ATOM     29  C   LIG A   1      -8.737  -3.635 127.381  0.00  0.00    +0.277 C 
ENDBRANCH  11  28
BRANCH   4  30
ATOM     30  O   LIG A   1      -8.314  -0.224 123.344  0.00  0.00    -0.421 OA
BRANCH  30  31
ATOM     31  C   LIG A   1      -9.389  -0.989 122.897  0.00  0.00    +0.309 C 
ATOM     32  C   LIG A   1      -9.070  -2.463 122.887  0.00  0.00    +0.136 C 
ATOM     33  O   LIG A   1     -10.453  -0.543 122.492  0.00  0.00    -0.251 OA
ENDBRANCH  30  31
ENDBRANCH   4  30
BRANCH   5  34
ATOM     34  O   LIG A   1      -9.096   2.396 122.951  0.00  0.00    -0.418 OA
BRANCH  34  35
ATOM     35  C   LIG A   1      -8.389   3.120 121.975  0.00  0.00    +0.309 C 
ATOM     36  C   LIG A   1      -6.905   3.033 122.249  0.00  0.00    +0.136 C 
ATOM     37  O   LIG A   1      -8.854   3.688 121.002  0.00  0.00    -0.251 OA
ENDBRANCH  34  35
ENDBRANCH   5  34
TORSDOF 11
ENDMDL
MODEL 4
REMARK VINA RESULT:      -7.0      3.778      8.635
REMARK  Name = NuBBE_1885
REMARK  18 active torsions:
REMARK  status: ('A' for Active; 'I' for Inactive)
REMARK    1  A    between atoms: C_4  and  O_5
REMARK    2  A    between atoms: O_5  and  C_6
REMARK    3  A    between atoms: C_6  and  C_7
REMARK    4  A    between atoms: C_9  and  O_10
REMARK    5  A    between atoms: O_10  and  C_11
REMARK    6  A    between atoms: C_11  and  C_12
REMARK    7  A    between atoms: C_14  and  O_15
REMARK    8  A    between atoms: O_15  and  C_16
REMARK    9  A    between atoms: C_20  and  C_21
REMARK   10  A    between atoms: C_23  and  O_24
REMARK   11  A    between atoms: O_24  and  C_25
REMARK   12  A    between atoms: C_26  and  O_27
REMARK   13  A    between atoms: O_27  and  C_28
REMARK   14  A    between atoms: C_29  and  O_30
REMARK   15  A    between atoms: O_30  and  C_31
REMARK   16  A    between atoms: C_31  and  C_32
REMARK   17  A    between atoms: C_35  and  O_36
REMARK   18  A    between atoms: O_36  and  C_37
REMARK                            x       y       z     vdW  Elec       q    Type
REMARK                         _______ _______ _______ _____ _____    ______ ____
ROOT
ATOM      1  O   LIG A   1      -3.610   3.077 128.593  0.00  0.00    -0.283 OA
ATOM      2  C   LIG A   1      -4.810   3.137 128.544  0.00  0.00    +0.238 A 
ATOM      3  C   LIG A   1      -5.576   3.878 129.549  0.00  0.00    +0.114 A 
ATOM      4  C   LIG A   1      -5.090   4.980 130.274  0.00  0.00    +0.192 A 
ATOM      5  C   LIG A   1      -5.792   5.408 131.426  0.00  0.00    +0.216 A 
ATOM      6  C   LIG A   1      -6.932   4.692 131.849  0.00  0.00    +0.169 A 
ATOM      7  C   LIG A   1      -7.433   3.664 131.037  0.00  0.00    +0.096 A 
ATOM      8  C   LIG A   1      -6.761   3.261 129.907  0.00  0.00    +0.147 A 
ATOM      9  O   LIG A   1      -7.262   2.146 129.290  0.00  0.00    -0.451 OA
ATOM     10  C   LIG A   1      -6.782   1.825 128.028  0.00  0.00    +0.181 A 
ATOM     11  C   LIG A   1      -5.623   2.358 127.556  0.00  0.00    +0.211 A 
ENDROOT
BRANCH  10  12
ATOM     12  C   LIG A   1      -7.627   0.810 127.338  0.00  0.00    +0.028 A 
ATOM     13  C   LIG A   1      -7.432  -0.565 127.536  0.00  0.00    +0.061 A 
ATOM     14  C   LIG A   1      -8.094  -1.551 126.773  0.00  0.00    +0.166 A 
ATOM     15  C   LIG A   1      -9.032  -1.159 125.800  0.00  0.00    +0.204 A 
ATOM     16  C   LIG A   1      -9.275   0.218 125.654  0.00  0.00    +0.177 A 
ATOM     17  C   LIG A   1      -8.588   1.163 126.404  0.00  0.00    +0.062 A 
BRANCH  14  18
ATOM     18  O   LIG A   1      -7.760  -2.875 126.903  0.00  0.00    -0.491 OA
ATOM     19  C   LIG A   1      -8.565  -3.667 127.772  0.00  0.00    +0.277 C 
ENDBRANCH  14  18
BRANCH  15  20
ATOM     20  O   LIG A   1      -9.781  -1.961 124.977  0.00  0.00    -0.488 OA
ATOM     21  C   LIG A   1      -9.146  -2.750 123.980  0.00  0.00    +0.277 C 
ENDBRANCH  15  20
BRANCH  16  22
ATOM     22  O   LIG A   1     -10.239   0.650 124.703  0.00  0.00    -0.422 OA
BRANCH  22  23
ATOM     23  C   LIG A   1     -10.006   0.813 123.324  0.00  0.00    +0.309 C 
ATOM     24  C   LIG A   1      -9.151   2.020 123.160  0.00  0.00    +0.136 C 
ATOM     25  O   LIG A   1     -10.442   0.165 122.388  0.00  0.00    -0.251 OA
ENDBRANCH  22  23
ENDBRANCH  16  22
ENDBRANCH  10  12
BRANCH   6  26
ATOM     26  O   LIG A   1      -7.455   4.902 133.098  0.00  0.00    -0.491 OA
ATOM     27  C   LIG A   1      -8.555   5.814 133.163  0.00  0.00    +0.277 C 
ENDBRANCH   6  26
BRANCH  11  28
ATOM     28  O   LIG A   1      -5.124   2.104 126.313  0.00  0.00    -0.488 OA
ATOM     29  C   LIG A   1      -5.362   3.117 125.346  0.00  0.00    +0.277 C 
ENDBRANCH  11  28
BRANCH   4  30
ATOM     30  O   LIG A   1      -3.778   5.470 129.996  0.00  0.00    -0.421 OA
BRANCH  30  31
ATOM     31  C   LIG A   1      -3.593   6.557 129.145  0.00  0.00    +0.309 C 
ATOM     32  C   LIG A   1      -2.285   6.473 128.397  0.00  0.00    +0.136 C 
ATOM     33  O   LIG A   1      -4.350   7.511 129.043  0.00  0.00    -0.251 OA
ENDBRANCH  30  31
ENDBRANCH   4  30
BRANCH   5  34
ATOM     34  O   LIG A   1      -5.191   6.508 132.130  0.00  0.00    -0.418 OA
BRANCH  34  35
ATOM     35  C   LIG A   1      -4.283   6.538 133.203  0.00  0.00    +0.309 C 
ATOM     36  C   LIG A   1      -3.096   7.403 132.845  0.00  0.00    +0.136 C 
ATOM     37  O   LIG A   1      -4.421   6.020 134.298  0.00  0.00    -0.251 OA
ENDBRANCH  34  35
ENDBRANCH   5  34
TORSDOF 11
ENDMDL
MODEL 5
REMARK VINA RESULT:      -7.0      4.121      8.574
REMARK  Name = NuBBE_1885
REMARK  18 active torsions:
REMARK  status: ('A' for Active; 'I' for Inactive)
REMARK    1  A    between atoms: C_4  and  O_5
REMARK    2  A    between atoms: O_5  and  C_6
REMARK    3  A    between atoms: C_6  and  C_7
REMARK    4  A    between atoms: C_9  and  O_10
REMARK    5  A    between atoms: O_10  and  C_11
REMARK    6  A    between atoms: C_11  and  C_12
REMARK    7  A    between atoms: C_14  and  O_15
REMARK    8  A    between atoms: O_15  and  C_16
REMARK    9  A    between atoms: C_20  and  C_21
REMARK   10  A    between atoms: C_23  and  O_24
REMARK   11  A    between atoms: O_24  and  C_25
REMARK   12  A    between atoms: C_26  and  O_27
REMARK   13  A    between atoms: O_27  and  C_28
REMARK   14  A    between atoms: C_29  and  O_30
REMARK   15  A    between atoms: O_30  and  C_31
REMARK   16  A    between atoms: C_31  and  C_32
REMARK   17  A    between atoms: C_35  and  O_36
REMARK   18  A    between atoms: O_36  and  C_37
REMARK                            x       y       z     vdW  Elec       q    Type
REMARK                         _______ _______ _______ _____ _____    ______ ____
ROOT
ATOM      1  O   LIG A   1      -2.739   3.761 126.892  0.00  0.00    -0.283 OA
ATOM      2  C   LIG A   1      -3.758   3.290 127.323  0.00  0.00    +0.238 A 
ATOM      3  C   LIG A   1      -4.012   3.221 128.764  0.00  0.00    +0.114 A 
ATOM      4  C   LIG A   1      -3.476   4.105 129.715  0.00  0.00    +0.192 A 
ATOM      5  C   LIG A   1      -3.530   3.755 131.086  0.00  0.00    +0.216 A 
ATOM      6  C   LIG A   1      -4.075   2.509 131.462  0.00  0.00    +0.169 A 
ATOM      7  C   LIG A   1      -4.687   1.708 130.486  0.00  0.00    +0.096 A 
ATOM      8  C   LIG A   1      -4.651   2.058 129.157  0.00  0.00    +0.147 A 
ATOM      9  O   LIG A   1      -5.139   1.120 128.288  0.00  0.00    -0.451 OA
ATOM     10  C   LIG A   1      -5.349   1.496 126.969  0.00  0.00    +0.181 A 
ATOM     11  C   LIG A   1      -4.774   2.616 126.453  0.00  0.00    +0.211 A 
ENDROOT
BRANCH  10  12
ATOM     12  C   LIG A   1      -6.179   0.511 126.220  0.00  0.00    +0.028 A 
ATOM     13  C   LIG A   1      -7.536   0.745 125.955  0.00  0.00    +0.061 A 
ATOM     14  C   LIG A   1      -8.390  -0.235 125.404  0.00  0.00    +0.166 A 
ATOM     15  C   LIG A   1      -7.865  -1.492 125.051  0.00  0.00    +0.204 A 
ATOM     16  C   LIG A   1      -6.489  -1.697 125.254  0.00  0.00    +0.177 A 
ATOM     17  C   LIG A   1      -5.682  -0.720 125.821  0.00  0.00    +0.062 A 
BRANCH  14  18
ATOM     18  O   LIG A   1      -9.739  -0.008 125.302  0.00  0.00    -0.491 OA
ATOM     19  C   LIG A   1     -10.154   1.101 124.509  0.00  0.00    +0.277 C 
ENDBRANCH  14  18
BRANCH  15  20
ATOM     20  O   LIG A   1      -8.525  -2.557 124.494  0.00  0.00    -0.488 OA
ATOM     21  C   LIG A   1      -8.921  -2.515 123.130  0.00  0.00    +0.277 C 
ENDBRANCH  15  20
BRANCH  16  22
ATOM     22  O   LIG A   1      -5.916  -2.943 124.880  0.00  0.00    -0.422 OA
BRANCH  22  23
ATOM     23  C   LIG A   1      -5.281  -3.212 123.653  0.00  0.00    +0.309 C 
ATOM     24  C   LIG A   1      -4.437  -4.424 123.848  0.00  0.00    +0.136 C 
ATOM     25  O   LIG A   1      -5.320  -2.580 122.611  0.00  0.00    -0.251 OA
ENDBRANCH  22  23
ENDBRANCH  16  22
ENDBRANCH  10  12
BRANCH   6  26
ATOM     26  O   LIG A   1      -3.882   2.026 132.729  0.00  0.00    -0.491 OA
ATOM     27  C   LIG A   1      -5.066   1.867 133.518  0.00  0.00    +0.277 C 
ENDBRANCH   6  26
BRANCH  11  28
ATOM     28  O   LIG A   1      -4.973   3.050 125.176  0.00  0.00    -0.488 OA
ATOM     29  C   LIG A   1      -5.796   4.200 125.048  0.00  0.00    +0.277 C 
ENDBRANCH  11  28
BRANCH   4  30
ATOM     30  O   LIG A   1      -2.664   5.192 129.273  0.00  0.00    -0.421 OA
BRANCH  30  31
ATOM     31  C   LIG A   1      -3.243   6.400 128.889  0.00  0.00    +0.309 C 
ATOM     32  C   LIG A   1      -2.294   7.252 128.084  0.00  0.00    +0.136 C 
ATOM     33  O   LIG A   1      -4.361   6.779 129.207  0.00  0.00    -0.251 OA
ENDBRANCH  30  31
ENDBRANCH   4  30
BRANCH   5  34
ATOM     34  O   LIG A   1      -2.910   4.696 131.979  0.00  0.00    -0.418 OA
BRANCH  34  35
ATOM     35  C   LIG A   1      -3.383   5.897 132.536  0.00  0.00    +0.309 C 
ATOM     36  C   LIG A   1      -4.617   5.624 133.367  0.00  0.00    +0.136 C 
ATOM     37  O   LIG A   1      -2.871   7.000 132.448  0.00  0.00    -0.251 OA
ENDBRANCH  34  35
ENDBRANCH   5  34
TORSDOF 11
ENDMDL
MODEL 6
REMARK VINA RESULT:      -6.9      3.934      8.149
REMARK  Name = NuBBE_1885
REMARK  18 active torsions:
REMARK  status: ('A' for Active; 'I' for Inactive)
REMARK    1  A    between atoms: C_4  and  O_5
REMARK    2  A    between atoms: O_5  and  C_6
REMARK    3  A    between atoms: C_6  and  C_7
REMARK    4  A    between atoms: C_9  and  O_10
REMARK    5  A    between atoms: O_10  and  C_11
REMARK    6  A    between atoms: C_11  and  C_12
REMARK    7  A    between atoms: C_14  and  O_15
REMARK    8  A    between atoms: O_15  and  C_16
REMARK    9  A    between atoms: C_20  and  C_21
REMARK   10  A    between atoms: C_23  and  O_24
REMARK   11  A    between atoms: O_24  and  C_25
REMARK   12  A    between atoms: C_26  and  O_27
REMARK   13  A    between atoms: O_27  and  C_28
REMARK   14  A    between atoms: C_29  and  O_30
REMARK   15  A    between atoms: O_30  and  C_31
REMARK   16  A    between atoms: C_31  and  C_32
REMARK   17  A    between atoms: C_35  and  O_36
REMARK   18  A    between atoms: O_36  and  C_37
REMARK                            x       y       z     vdW  Elec       q    Type
REMARK                         _______ _______ _______ _____ _____    ______ ____
ROOT
ATOM      1  O   LIG A   1      -8.042   4.465 130.959  0.00  0.00    -0.283 OA
ATOM      2  C   LIG A   1      -7.338   3.659 130.411  0.00  0.00    +0.238 A 
ATOM      3  C   LIG A   1      -5.907   3.909 130.215  0.00  0.00    +0.114 A 
ATOM      4  C   LIG A   1      -5.117   4.724 131.042  0.00  0.00    +0.192 A 
ATOM      5  C   LIG A   1      -3.845   5.143 130.581  0.00  0.00    +0.216 A 
ATOM      6  C   LIG A   1      -3.422   4.774 129.286  0.00  0.00    +0.169 A 
ATOM      7  C   LIG A   1      -4.203   3.878 128.541  0.00  0.00    +0.096 A 
ATOM      8  C   LIG A   1      -5.430   3.457 128.997  0.00  0.00    +0.147 A 
ATOM      9  O   LIG A   1      -6.165   2.715 128.112  0.00  0.00    -0.451 OA
ATOM     10  C   LIG A   1      -7.297   2.066 128.585  0.00  0.00    +0.181 A 
ATOM     11  C   LIG A   1      -7.872   2.417 129.766  0.00  0.00    +0.211 A 
ENDROOT
BRANCH  10  12
ATOM     12  C   LIG A   1      -7.809   1.045 127.628  0.00  0.00    +0.028 A 
ATOM     13  C   LIG A   1      -8.703   1.382 126.601  0.00  0.00    +0.061 A 
ATOM     14  C   LIG A   1      -9.339   0.417 125.790  0.00  0.00    +0.166 A 
ATOM     15  C   LIG A   1      -9.038  -0.945 125.970  0.00  0.00    +0.204 A 
ATOM     16  C   LIG A   1      -8.087  -1.273 126.953  0.00  0.00    +0.177 A 
ATOM     17  C   LIG A   1      -7.499  -0.301 127.751  0.00  0.00    +0.062 A 
BRANCH  14  18
ATOM     18  O   LIG A   1     -10.315   0.787 124.900  0.00  0.00    -0.491 OA
ATOM     19  C   LIG A   1      -9.897   1.473 123.723  0.00  0.00    +0.277 C 
ENDBRANCH  14  18
BRANCH  15  20
ATOM     20  O   LIG A   1      -9.535  -2.020 125.276  0.00  0.00    -0.488 OA
ATOM     21  C   LIG A   1      -9.004  -2.351 124.000  0.00  0.00    +0.277 C 
ENDBRANCH  15  20
BRANCH  16  22
ATOM     22  O   LIG A   1      -7.734  -2.637 127.142  0.00  0.00    -0.422 OA
BRANCH  22  23
ATOM     23  C   LIG A   1      -8.000  -3.394 128.299  0.00  0.00    +0.309 C 
ATOM     24  C   LIG A   1      -9.281  -4.117 128.070  0.00  0.00    +0.136 C 
ATOM     25  O   LIG A   1      -7.376  -3.445 129.346  0.00  0.00    -0.251 OA
ENDBRANCH  22  23
ENDBRANCH  16  22
ENDBRANCH  10  12
BRANCH   6  26
ATOM     26  O   LIG A   1      -2.343   5.391 128.711  0.00  0.00    -0.491 OA
ATOM     27  C   LIG A   1      -2.596   6.680 128.142  0.00  0.00    +0.277 C 
ENDBRANCH   6  26
BRANCH  11  28
ATOM     28  O   LIG A   1      -8.963   1.791 130.293  0.00  0.00    -0.488 OA
ATOM     29  C   LIG A   1      -8.690   0.889 131.355  0.00  0.00    +0.277 C 
ENDBRANCH  11  28
BRANCH   4  30
ATOM     30  O   LIG A   1      -5.706   5.324 132.195  0.00  0.00    -0.421 OA
BRANCH  30  31
ATOM     31  C   LIG A   1      -5.652   4.686 133.432  0.00  0.00    +0.309 C 
ATOM     32  C   LIG A   1      -6.859   4.995 134.282  0.00  0.00    +0.136 C 
ATOM     33  O   LIG A   1      -4.720   4.005 133.835  0.00  0.00    -0.251 OA
ENDBRANCH  30  31
ENDBRANCH   4  30
BRANCH   5  34
ATOM     34  O   LIG A   1      -3.132   6.016 131.472  0.00  0.00    -0.418 OA
BRANCH  34  35
ATOM     35  C   LIG A   1      -1.807   5.984 131.939  0.00  0.00    +0.309 C 
ATOM     36  C   LIG A   1      -1.529   4.654 132.602  0.00  0.00    +0.136 C 
ATOM     37  O   LIG A   1      -0.956   6.845 131.794  0.00  0.00    -0.251 OA
ENDBRANCH  34  35
ENDBRANCH   5  34
TORSDOF 11
ENDMDL
MODEL 7
REMARK VINA RESULT:      -6.8      3.862      8.998
REMARK  Name = NuBBE_1885
REMARK  18 active torsions:
REMARK  status: ('A' for Active; 'I' for Inactive)
REMARK    1  A    between atoms: C_4  and  O_5
REMARK    2  A    between atoms: O_5  and  C_6
REMARK    3  A    between atoms: C_6  and  C_7
REMARK    4  A    between atoms: C_9  and  O_10
REMARK    5  A    between atoms: O_10  and  C_11
REMARK    6  A    between atoms: C_11  and  C_12
REMARK    7  A    between atoms: C_14  and  O_15
REMARK    8  A    between atoms: O_15  and  C_16
REMARK    9  A    between atoms: C_20  and  C_21
REMARK   10  A    between atoms: C_23  and  O_24
REMARK   11  A    between atoms: O_24  and  C_25
REMARK   12  A    between atoms: C_26  and  O_27
REMARK   13  A    between atoms: O_27  and  C_28
REMARK   14  A    between atoms: C_29  and  O_30
REMARK   15  A    between atoms: O_30  and  C_31
REMARK   16  A    between atoms: C_31  and  C_32
REMARK   17  A    between atoms: C_35  and  O_36
REMARK   18  A    between atoms: O_36  and  C_37
REMARK                            x       y       z     vdW  Elec       q    Type
REMARK                         _______ _______ _______ _____ _____    ______ ____
ROOT
ATOM      1  O   LIG A   1      -2.922   3.503 126.829  0.00  0.00    -0.283 OA
ATOM      2  C   LIG A   1      -3.928   3.010 127.266  0.00  0.00    +0.238 A 
ATOM      3  C   LIG A   1      -4.160   2.908 128.709  0.00  0.00    +0.114 A 
ATOM      4  C   LIG A   1      -3.621   3.779 129.670  0.00  0.00    +0.192 A 
ATOM      5  C   LIG A   1      -3.649   3.400 131.034  0.00  0.00    +0.216 A 
ATOM      6  C   LIG A   1      -4.173   2.140 131.392  0.00  0.00    +0.169 A 
ATOM      7  C   LIG A   1      -4.789   1.352 130.409  0.00  0.00    +0.096 A 
ATOM      8  C   LIG A   1      -4.778   1.729 129.087  0.00  0.00    +0.147 A 
ATOM      9  O   LIG A   1      -5.268   0.802 128.206  0.00  0.00    -0.451 OA
ATOM     10  C   LIG A   1      -5.502   1.203 126.898  0.00  0.00    +0.181 A 
ATOM     11  C   LIG A   1      -4.949   2.341 126.398  0.00  0.00    +0.211 A 
ENDROOT
BRANCH  10  12
ATOM     12  C   LIG A   1      -6.330   0.223 126.142  0.00  0.00    +0.028 A 
ATOM     13  C   LIG A   1      -5.826  -1.031 125.766  0.00  0.00    +0.061 A 
ATOM     14  C   LIG A   1      -6.518  -1.909 124.905  0.00  0.00    +0.166 A 
ATOM     15  C   LIG A   1      -7.794  -1.553 124.432  0.00  0.00    +0.204 A 
ATOM     16  C   LIG A   1      -8.326  -0.327 124.869  0.00  0.00    +0.177 A 
ATOM     17  C   LIG A   1      -7.607   0.526 125.696  0.00  0.00    +0.062 A 
BRANCH  14  18
ATOM     18  O   LIG A   1      -5.919  -3.057 124.449  0.00  0.00    -0.491 OA
ATOM     19  C   LIG A   1      -4.880  -2.910 123.485  0.00  0.00    +0.277 C 
ENDBRANCH  14  18
BRANCH  15  20
ATOM     20  O   LIG A   1      -8.623  -2.273 123.609  0.00  0.00    -0.488 OA
ATOM     21  C   LIG A   1      -9.348  -3.382 124.122  0.00  0.00    +0.277 C 
ENDBRANCH  15  20
BRANCH  16  22
ATOM     22  O   LIG A   1      -9.626   0.053 124.437  0.00  0.00    -0.422 OA
BRANCH  22  23
ATOM     23  C   LIG A   1      -9.934   0.633 123.192  0.00  0.00    +0.309 C 
ATOM     24  C   LIG A   1      -9.351   2.003 123.185  0.00  0.00    +0.136 C 
ATOM     25  O   LIG A   1     -10.600   0.180 122.276  0.00  0.00    -0.251 OA
ENDBRANCH  22  23
ENDBRANCH  16  22
ENDBRANCH  10  12
BRANCH   6  26
ATOM     26  O   LIG A   1      -3.955   1.633 132.646  0.00  0.00    -0.491 OA
ATOM     27  C   LIG A   1      -4.267   0.247 132.816  0.00  0.00    +0.277 C 
ENDBRANCH   6  26
BRANCH  11  28
ATOM     28  O   LIG A   1      -5.172   2.798 125.133  0.00  0.00    -0.488 OA
ATOM     29  C   LIG A   1      -5.996   3.952 125.042  0.00  0.00    +0.277 C 
ENDBRANCH  11  28
BRANCH   4  30
ATOM     30  O   LIG A   1      -2.829   4.885 129.238  0.00  0.00    -0.421 OA
BRANCH  30  31
ATOM     31  C   LIG A   1      -3.426   6.102 128.917  0.00  0.00    +0.309 C 
ATOM     32  C   LIG A   1      -2.475   7.027 128.199  0.00  0.00    +0.136 C 
ATOM     33  O   LIG A   1      -4.562   6.435 129.225  0.00  0.00    -0.251 OA
ENDBRANCH  30  31
ENDBRANCH   4  30
BRANCH   5  34
ATOM     34  O   LIG A   1      -3.028   4.331 131.937  0.00  0.00    -0.418 OA
BRANCH  34  35
ATOM     35  C   LIG A   1      -3.579   5.277 132.818  0.00  0.00    +0.309 C 
ATOM     36  C   LIG A   1      -3.387   4.819 134.246  0.00  0.00    +0.136 C 
ATOM     37  O   LIG A   1      -4.082   6.348 132.526  0.00  0.00    -0.251 OA
ENDBRANCH  34  35
ENDBRANCH   5  34
TORSDOF 11
ENDMDL
MODEL 8
REMARK VINA RESULT:      -6.5      3.403      5.258
REMARK  Name = NuBBE_1885
REMARK  18 active torsions:
REMARK  status: ('A' for Active; 'I' for Inactive)
REMARK    1  A    between atoms: C_4  and  O_5
REMARK    2  A    between atoms: O_5  and  C_6
REMARK    3  A    between atoms: C_6  and  C_7
REMARK    4  A    between atoms: C_9  and  O_10
REMARK    5  A    between atoms: O_10  and  C_11
REMARK    6  A    between atoms: C_11  and  C_12
REMARK    7  A    between atoms: C_14  and  O_15
REMARK    8  A    between atoms: O_15  and  C_16
REMARK    9  A    between atoms: C_20  and  C_21
REMARK   10  A    between atoms: C_23  and  O_24
REMARK   11  A    between atoms: O_24  and  C_25
REMARK   12  A    between atoms: C_26  and  O_27
REMARK   13  A    between atoms: O_27  and  C_28
REMARK   14  A    between atoms: C_29  and  O_30
REMARK   15  A    between atoms: O_30  and  C_31
REMARK   16  A    between atoms: C_31  and  C_32
REMARK   17  A    between atoms: C_35  and  O_36
REMARK   18  A    between atoms: O_36  and  C_37
REMARK                            x       y       z     vdW  Elec       q    Type
REMARK                         _______ _______ _______ _____ _____    ______ ____
ROOT
ATOM      1  O   LIG A   1      -5.598  -0.249 125.708  0.00  0.00    -0.283 OA
ATOM      2  C   LIG A   1      -5.793   0.853 126.148  0.00  0.00    +0.238 A 
ATOM      3  C   LIG A   1      -6.002   1.999 125.260  0.00  0.00    +0.114 A 
ATOM      4  C   LIG A   1      -6.538   1.920 123.964  0.00  0.00    +0.192 A 
ATOM      5  C   LIG A   1      -6.398   3.028 123.093  0.00  0.00    +0.216 A 
ATOM      6  C   LIG A   1      -5.683   4.164 123.527  0.00  0.00    +0.169 A 
ATOM      7  C   LIG A   1      -5.255   4.234 124.861  0.00  0.00    +0.096 A 
ATOM      8  C   LIG A   1      -5.408   3.164 125.713  0.00  0.00    +0.147 A 
ATOM      9  O   LIG A   1      -4.808   3.295 126.936  0.00  0.00    -0.451 OA
ATOM     10  C   LIG A   1      -5.117   2.365 127.918  0.00  0.00    +0.181 A 
ATOM     11  C   LIG A   1      -5.698   1.174 127.607  0.00  0.00    +0.211 A 
ENDROOT
BRANCH  10  12
ATOM     12  C   LIG A   1      -4.673   2.798 129.273  0.00  0.00    +0.028 A 
ATOM     13  C   LIG A   1      -4.266   1.871 130.244  0.00  0.00    +0.061 A 
ATOM     14  C   LIG A   1      -4.006   2.229 131.585  0.00  0.00    +0.166 A 
ATOM     15  C   LIG A   1      -4.105   3.578 131.973  0.00  0.00    +0.204 A 
ATOM     16  C   LIG A   1      -4.444   4.513 130.979  0.00  0.00    +0.177 A 
ATOM     17  C   LIG A   1      -4.719   4.124 129.675  0.00  0.00    +0.062 A 
BRANCH  14  18
ATOM     18  O   LIG A   1      -3.755   1.266 132.529  0.00  0.00    -0.491 OA
ATOM     19  C   LIG A   1      -4.172  -0.064 132.229  0.00  0.00    +0.277 C 
ENDBRANCH  14  18
BRANCH  15  20
ATOM     20  O   LIG A   1      -3.877   4.120 133.212  0.00  0.00    -0.488 OA
ATOM     21  C   LIG A   1      -4.891   4.072 134.207  0.00  0.00    +0.277 C 
ENDBRANCH  15  20
BRANCH  16  22
ATOM     22  O   LIG A   1      -4.523   5.889 131.326  0.00  0.00    -0.422 OA
BRANCH  22  23
ATOM     23  C   LIG A   1      -5.535   6.776 130.914  0.00  0.00    +0.309 C 
ATOM     24  C   LIG A   1      -6.780   6.394 131.636  0.00  0.00    +0.136 C 
ATOM     25  O   LIG A   1      -5.486   7.667 130.083  0.00  0.00    -0.251 OA
ENDBRANCH  22  23
ENDBRANCH  16  22
ENDBRANCH  10  12
BRANCH   6  26
ATOM     26  O   LIG A   1      -5.289   5.118 122.626  0.00  0.00    -0.491 OA
ATOM     27  C   LIG A   1      -4.120   4.803 121.863  0.00  0.00    +0.277 C 
ENDBRANCH   6  26
BRANCH  11  28
ATOM     28  O   LIG A   1      -6.054   0.240 128.535  0.00  0.00    -0.488 OA
ATOM     29  C   LIG A   1      -7.449   0.112 128.762  0.00  0.00    +0.277 C 
ENDBRANCH  11  28
BRANCH   4  30
ATOM     30  O   LIG A   1      -6.970   0.654 123.467  0.00  0.00    -0.421 OA
BRANCH  30  31
ATOM     31  C   LIG A   1      -8.317   0.300 123.502  0.00  0.00    +0.309 C 
ATOM     32  C   LIG A   1      -8.512  -1.194 123.423  0.00  0.00    +0.136 C 
ATOM     33  O   LIG A   1      -9.253   1.086 123.528  0.00  0.00    -0.251 OA
ENDBRANCH  30  31
ENDBRANCH   4  30
BRANCH   5  34
ATOM     34  O   LIG A   1      -6.932   2.835 121.773  0.00  0.00    -0.418 OA
BRANCH  34  35
ATOM     35  C   LIG A   1      -7.840   3.598 121.017  0.00  0.00    +0.309 C 
ATOM     36  C   LIG A   1      -7.151   4.141 119.786  0.00  0.00    +0.136 C 
ATOM     37  O   LIG A   1      -9.025   3.767 121.245  0.00  0.00    -0.251 OA
ENDBRANCH  34  35
ENDBRANCH   5  34
TORSDOF 11
ENDMDL
MODEL 9
REMARK VINA RESULT:      -6.5      3.766      8.484
REMARK  Name = NuBBE_1885
REMARK  18 active torsions:
REMARK  status: ('A' for Active; 'I' for Inactive)
REMARK    1  A    between atoms: C_4  and  O_5
REMARK    2  A    between atoms: O_5  and  C_6
REMARK    3  A    between atoms: C_6  and  C_7
REMARK    4  A    between atoms: C_9  and  O_10
REMARK    5  A    between atoms: O_10  and  C_11
REMARK    6  A    between atoms: C_11  and  C_12
REMARK    7  A    between atoms: C_14  and  O_15
REMARK    8  A    between atoms: O_15  and  C_16
REMARK    9  A    between atoms: C_20  and  C_21
REMARK   10  A    between atoms: C_23  and  O_24
REMARK   11  A    between atoms: O_24  and  C_25
REMARK   12  A    between atoms: C_26  and  O_27
REMARK   13  A    between atoms: O_27  and  C_28
REMARK   14  A    between atoms: C_29  and  O_30
REMARK   15  A    between atoms: O_30  and  C_31
REMARK   16  A    between atoms: C_31  and  C_32
REMARK   17  A    between atoms: C_35  and  O_36
REMARK   18  A    between atoms: O_36  and  C_37
REMARK                            x       y       z     vdW  Elec       q    Type
REMARK                         _______ _______ _______ _____ _____    ______ ____
ROOT
ATOM      1  O   LIG A   1      -7.606   3.158 131.886  0.00  0.00    -0.283 OA
ATOM      2  C   LIG A   1      -7.055   2.761 130.894  0.00  0.00    +0.238 A 
ATOM      3  C   LIG A   1      -5.975   3.527 130.266  0.00  0.00    +0.114 A 
ATOM      4  C   LIG A   1      -5.118   4.408 130.948  0.00  0.00    +0.192 A 
ATOM      5  C   LIG A   1      -4.335   5.321 130.200  0.00  0.00    +0.216 A 
ATOM      6  C   LIG A   1      -4.468   5.359 128.796  0.00  0.00    +0.169 A 
ATOM      7  C   LIG A   1      -5.260   4.393 128.158  0.00  0.00    +0.096 A 
ATOM      8  C   LIG A   1      -6.006   3.494 128.884  0.00  0.00    +0.147 A 
ATOM      9  O   LIG A   1      -6.858   2.711 128.154  0.00  0.00    -0.451 OA
ATOM     10  C   LIG A   1      -7.461   1.633 128.787  0.00  0.00    +0.181 A 
ATOM     11  C   LIG A   1      -7.506   1.546 130.144  0.00  0.00    +0.211 A 
ENDROOT
BRANCH  10  12
ATOM     12  C   LIG A   1      -8.086   0.683 127.825  0.00  0.00    +0.028 A 
ATOM     13  C   LIG A   1      -7.803  -0.690 127.859  0.00  0.00    +0.061 A 
ATOM     14  C   LIG A   1      -8.240  -1.588 126.861  0.00  0.00    +0.166 A 
ATOM     15  C   LIG A   1      -9.038  -1.114 125.804  0.00  0.00    +0.204 A 
ATOM     16  C   LIG A   1      -9.378   0.250 125.812  0.00  0.00    +0.177 A 
ATOM     17  C   LIG A   1      -8.910   1.112 126.796  0.00  0.00    +0.062 A 
BRANCH  14  18
ATOM     18  O   LIG A   1      -7.813  -2.892 126.860  0.00  0.00    -0.491 OA
ATOM     19  C   LIG A   1      -8.636  -3.846 127.525  0.00  0.00    +0.277 C 
ENDBRANCH  14  18
BRANCH  15  20
ATOM     20  O   LIG A   1      -9.567  -1.828 124.758  0.00  0.00    -0.488 OA
ATOM     21  C   LIG A   1      -8.724  -2.288 123.711  0.00  0.00    +0.277 C 
ENDBRANCH  15  20
BRANCH  16  22
ATOM     22  O   LIG A   1     -10.208   0.760 124.777  0.00  0.00    -0.422 OA
BRANCH  22  23
ATOM     23  C   LIG A   1      -9.765   1.515 123.675  0.00  0.00    +0.309 C 
ATOM     24  C   LIG A   1     -10.186   0.789 122.445  0.00  0.00    +0.136 C 
ATOM     25  O   LIG A   1      -9.105   2.540 123.659  0.00  0.00    -0.251 OA
ENDBRANCH  22  23
ENDBRANCH  16  22
ENDBRANCH  10  12
BRANCH   6  26
ATOM     26  O   LIG A   1      -3.949   6.407 128.082  0.00  0.00    -0.491 OA
ATOM     27  C   LIG A   1      -2.530   6.388 127.897  0.00  0.00    +0.277 C 
ENDBRANCH   6  26
BRANCH  11  28
ATOM     28  O   LIG A   1      -8.054   0.494 130.817  0.00  0.00    -0.488 OA
ATOM     29  C   LIG A   1      -7.131  -0.320 131.525  0.00  0.00    +0.277 C 
ENDBRANCH  11  28
BRANCH   4  30
ATOM     30  O   LIG A   1      -5.248   4.549 132.362  0.00  0.00    -0.421 OA
BRANCH  30  31
ATOM     31  C   LIG A   1      -5.898   5.654 132.908  0.00  0.00    +0.309 C 
ATOM     32  C   LIG A   1      -5.383   5.989 134.285  0.00  0.00    +0.136 C 
ATOM     33  O   LIG A   1      -6.822   6.260 132.384  0.00  0.00    -0.251 OA
ENDBRANCH  30  31
ENDBRANCH   4  30
BRANCH   5  34
ATOM     34  O   LIG A   1      -3.530   6.216 130.985  0.00  0.00    -0.418 OA
BRANCH  34  35
ATOM     35  C   LIG A   1      -3.602   7.607 131.171  0.00  0.00    +0.309 C 
ATOM     36  C   LIG A   1      -2.806   8.002 132.394  0.00  0.00    +0.136 C 
ATOM     37  O   LIG A   1      -4.152   8.419 130.445  0.00  0.00    -0.251 OA
ENDBRANCH  34  35
ENDBRANCH   5  34
TORSDOF 11
ENDMDL
