MODEL 1
REMARK VINA RESULT:      -8.0      0.000      0.000
REMARK  Name = NuBBE_2494
REMARK  6 active torsions:
REMARK  status: ('A' for Active; 'I' for Inactive)
REMARK    1  A    between atoms: C_1  and  C_2
REMARK    2  A    between atoms: C_2  and  C_3
REMARK    3  A    between atoms: C_4  and  C_5
REMARK    4  A    between atoms: C_14  and  C_15
REMARK    5  A    between atoms: C_14  and  C_16
REMARK    6  A    between atoms: C_21  and  C_22
REMARK                            x       y       z     vdW  Elec       q    Type
REMARK                         _______ _______ _______ _____ _____    ______ ____
ROOT
ATOM      1  C   LIG A   1      -7.556  -2.055 124.866  0.00  0.00    -0.034 A 
ATOM      2  C   LIG A   1      -8.711  -2.862 124.715  0.00  0.00    -0.047 A 
ATOM      3  C   LIG A   1      -9.277  -3.226 123.366  0.00  0.00    +0.044 C 
ATOM      4  C   LIG A   1      -9.348  -3.378 125.850  0.00  0.00    +0.004 A 
ATOM      5  C   LIG A   1      -8.868  -3.116 127.132  0.00  0.00    +0.005 A 
ATOM      6  C   LIG A   1      -7.726  -2.332 127.328  0.00  0.00    -0.030 A 
ATOM      7  C   LIG A   1      -7.080  -1.783 126.181  0.00  0.00    +0.025 A 
ATOM      8  C   LIG A   1      -5.879  -0.902 126.413  0.00  0.00    +0.164 C 
ATOM      9  O   LIG A   1      -5.568  -0.008 125.630  0.00  0.00    -0.292 OA
ATOM     10  C   LIG A   1      -5.056  -1.100 127.672  0.00  0.00    +0.085 C 
ATOM     11  C   LIG A   1      -5.610  -2.215 128.557  0.00  0.00    +0.020 C 
ATOM     12  C   LIG A   1      -4.796  -2.514 129.857  0.00  0.00    +0.027 C 
ATOM     13  C   LIG A   1      -3.330  -2.843 129.501  0.00  0.00    +0.019 C 
ATOM     14  C   LIG A   1      -4.794  -1.376 130.884  0.00  0.00    +0.019 C 
ATOM     15  C   LIG A   1      -5.399  -3.766 130.521  0.00  0.00    +0.139 C 
ATOM     16  O   LIG A   1      -4.792  -4.411 131.377  0.00  0.00    -0.297 OA
ATOM     17  C   LIG A   1      -6.783  -4.198 130.076  0.00  0.00    +0.076 C 
ATOM     18  C   LIG A   1      -7.652  -2.963 129.891  0.00  0.00    +0.019 C 
ATOM     19  C   LIG A   1      -7.160  -2.037 128.736  0.00  0.00    -0.002 C 
ATOM     20  C   LIG A   1      -7.632  -0.604 129.097  0.00  0.00    +0.016 C 
ENDROOT
BRANCH   1  22
ATOM     21  C   LIG A   1      -5.758  -2.442 123.122  0.00  0.00    +0.009 C 
ATOM     22  C   LIG A   1      -6.859  -1.517 123.628  0.00  0.00    +0.033 C 
ENDBRANCH   1  22
TORSDOF 1
ENDMDL
MODEL 2
REMARK VINA RESULT:      -7.4      2.470      6.163
REMARK  Name = NuBBE_2494
REMARK  6 active torsions:
REMARK  status: ('A' for Active; 'I' for Inactive)
REMARK    1  A    between atoms: C_1  and  C_2
REMARK    2  A    between atoms: C_2  and  C_3
REMARK    3  A    between atoms: C_4  and  C_5
REMARK    4  A    between atoms: C_14  and  C_15
REMARK    5  A    between atoms: C_14  and  C_16
REMARK    6  A    between atoms: C_21  and  C_22
REMARK                            x       y       z     vdW  Elec       q    Type
REMARK                         _______ _______ _______ _____ _____    ______ ____
ROOT
ATOM      1  C   LIG A   1      -7.692  -2.433 127.451  0.00  0.00    -0.034 A 
ATOM      2  C   LIG A   1      -8.796  -3.309 127.304  0.00  0.00    -0.047 A 
ATOM      3  C   LIG A   1      -9.277  -4.203 128.419  0.00  0.00    +0.044 C 
ATOM      4  C   LIG A   1      -9.500  -3.336 126.095  0.00  0.00    +0.004 A 
ATOM      5  C   LIG A   1      -9.139  -2.516 125.027  0.00  0.00    +0.005 A 
ATOM      6  C   LIG A   1      -8.061  -1.630 125.131  0.00  0.00    -0.030 A 
ATOM      7  C   LIG A   1      -7.322  -1.607 126.352  0.00  0.00    +0.025 A 
ATOM      8  C   LIG A   1      -6.136  -0.680 126.429  0.00  0.00    +0.164 C 
ATOM      9  O   LIG A   1      -5.173  -0.918 127.153  0.00  0.00    -0.292 OA
ATOM     10  C   LIG A   1      -6.114   0.560 125.555  0.00  0.00    +0.085 C 
ATOM     11  C   LIG A   1      -7.362   0.675 124.682  0.00  0.00    +0.020 C 
ATOM     12  C   LIG A   1      -7.440   1.948 123.780  0.00  0.00    +0.027 C 
ATOM     13  C   LIG A   1      -7.321   3.220 124.646  0.00  0.00    +0.019 C 
ATOM     14  C   LIG A   1      -6.374   2.018 122.680  0.00  0.00    +0.019 C 
ATOM     15  C   LIG A   1      -8.829   1.976 123.112  0.00  0.00    +0.139 C 
ATOM     16  O   LIG A   1      -9.288   2.996 122.598  0.00  0.00    -0.297 OA
ATOM     17  C   LIG A   1      -9.634   0.691 123.115  0.00  0.00    +0.076 C 
ATOM     18  C   LIG A   1      -8.701  -0.479 122.842  0.00  0.00    +0.019 C 
ATOM     19  C   LIG A   1      -7.647  -0.697 123.971  0.00  0.00    -0.002 C 
ATOM     20  C   LIG A   1      -6.420  -1.368 123.297  0.00  0.00    +0.016 C 
ENDROOT
BRANCH   1  22
ATOM     21  C   LIG A   1      -7.536  -1.385 129.755  0.00  0.00    +0.009 C 
ATOM     22  C   LIG A   1      -6.946  -2.393 128.776  0.00  0.00    +0.033 C 
ENDBRANCH   1  22
TORSDOF 1
ENDMDL
MODEL 3
REMARK VINA RESULT:      -7.3      2.586      5.894
REMARK  Name = NuBBE_2494
REMARK  6 active torsions:
REMARK  status: ('A' for Active; 'I' for Inactive)
REMARK    1  A    between atoms: C_1  and  C_2
REMARK    2  A    between atoms: C_2  and  C_3
REMARK    3  A    between atoms: C_4  and  C_5
REMARK    4  A    between atoms: C_14  and  C_15
REMARK    5  A    between atoms: C_14  and  C_16
REMARK    6  A    between atoms: C_21  and  C_22
REMARK                            x       y       z     vdW  Elec       q    Type
REMARK                         _______ _______ _______ _____ _____    ______ ____
ROOT
ATOM      1  C   LIG A   1      -7.639   0.254 129.308  0.00  0.00    -0.034 A 
ATOM      2  C   LIG A   1      -7.982  -0.710 130.288  0.00  0.00    -0.047 A 
ATOM      3  C   LIG A   1      -8.288  -0.341 131.718  0.00  0.00    +0.044 C 
ATOM      4  C   LIG A   1      -8.077  -2.059 129.927  0.00  0.00    +0.004 A 
ATOM      5  C   LIG A   1      -7.843  -2.478 128.619  0.00  0.00    +0.005 A 
ATOM      6  C   LIG A   1      -7.511  -1.560 127.617  0.00  0.00    -0.030 A 
ATOM      7  C   LIG A   1      -7.390  -0.184 127.975  0.00  0.00    +0.025 A 
ATOM      8  C   LIG A   1      -6.985   0.784 126.894  0.00  0.00    +0.164 C 
ATOM      9  O   LIG A   1      -6.376   1.821 127.145  0.00  0.00    -0.292 OA
ATOM     10  C   LIG A   1      -7.302   0.446 125.449  0.00  0.00    +0.085 C 
ATOM     11  C   LIG A   1      -8.013  -0.899 125.312  0.00  0.00    +0.020 C 
ATOM     12  C   LIG A   1      -8.415  -1.305 123.858  0.00  0.00    +0.027 C 
ATOM     13  C   LIG A   1      -9.299  -0.209 123.225  0.00  0.00    +0.019 C 
ATOM     14  C   LIG A   1      -7.232  -1.565 122.918  0.00  0.00    +0.019 C 
ATOM     15  C   LIG A   1      -9.263  -2.589 123.938  0.00  0.00    +0.139 C 
ATOM     16  O   LIG A   1      -9.967  -2.969 123.001  0.00  0.00    -0.297 OA
ATOM     17  C   LIG A   1      -9.215  -3.382 125.230  0.00  0.00    +0.076 C 
ATOM     18  C   LIG A   1      -7.784  -3.403 125.746  0.00  0.00    +0.019 C 
ATOM     19  C   LIG A   1      -7.261  -1.991 126.154  0.00  0.00    -0.002 C 
ATOM     20  C   LIG A   1      -5.720  -2.030 125.975  0.00  0.00    +0.016 C 
ENDROOT
BRANCH   1  22
ATOM     21  C   LIG A   1      -8.884   2.452 129.524  0.00  0.00    +0.009 C 
ATOM     22  C   LIG A   1      -7.559   1.720 129.703  0.00  0.00    +0.033 C 
ENDBRANCH   1  22
TORSDOF 1
ENDMDL
MODEL 4
REMARK VINA RESULT:      -7.2      3.108      5.450
REMARK  Name = NuBBE_2494
REMARK  6 active torsions:
REMARK  status: ('A' for Active; 'I' for Inactive)
REMARK    1  A    between atoms: C_1  and  C_2
REMARK    2  A    between atoms: C_2  and  C_3
REMARK    3  A    between atoms: C_4  and  C_5
REMARK    4  A    between atoms: C_14  and  C_15
REMARK    5  A    between atoms: C_14  and  C_16
REMARK    6  A    between atoms: C_21  and  C_22
REMARK                            x       y       z     vdW  Elec       q    Type
REMARK                         _______ _______ _______ _____ _____    ______ ____
ROOT
ATOM      1  C   LIG A   1      -8.577   0.974 130.918  0.00  0.00    -0.034 A 
ATOM      2  C   LIG A   1      -8.598   1.779 129.752  0.00  0.00    -0.047 A 
ATOM      3  C   LIG A   1      -9.102   3.201 129.757  0.00  0.00    +0.044 C 
ATOM      4  C   LIG A   1      -8.107   1.265 128.547  0.00  0.00    +0.004 A 
ATOM      5  C   LIG A   1      -7.592  -0.028 128.467  0.00  0.00    +0.005 A 
ATOM      6  C   LIG A   1      -7.544  -0.855 129.594  0.00  0.00    -0.030 A 
ATOM      7  C   LIG A   1      -8.061  -0.350 130.824  0.00  0.00    +0.025 A 
ATOM      8  C   LIG A   1      -8.043  -1.272 132.017  0.00  0.00    +0.164 C 
ATOM      9  O   LIG A   1      -8.866  -1.176 132.924  0.00  0.00    -0.292 OA
ATOM     10  C   LIG A   1      -7.005  -2.377 132.076  0.00  0.00    +0.085 C 
ATOM     11  C   LIG A   1      -6.098  -2.386 130.846  0.00  0.00    +0.020 C 
ATOM     12  C   LIG A   1      -4.972  -3.468 130.846  0.00  0.00    +0.027 C 
ATOM     13  C   LIG A   1      -4.096  -3.323 132.110  0.00  0.00    +0.019 C 
ATOM     14  C   LIG A   1      -5.476  -4.915 130.779  0.00  0.00    +0.019 C 
ATOM     15  C   LIG A   1      -4.065  -3.214 129.627  0.00  0.00    +0.139 C 
ATOM     16  O   LIG A   1      -2.938  -3.703 129.535  0.00  0.00    -0.297 OA
ATOM     17  C   LIG A   1      -4.602  -2.317 128.529  0.00  0.00    +0.076 C 
ATOM     18  C   LIG A   1      -6.074  -2.632 128.307  0.00  0.00    +0.019 C 
ATOM     19  C   LIG A   1      -6.965  -2.288 129.540  0.00  0.00    -0.002 C 
ATOM     20  C   LIG A   1      -8.187  -3.242 129.475  0.00  0.00    +0.016 C 
ENDROOT
BRANCH   1  22
ATOM     21  C   LIG A   1      -7.998   2.219 133.048  0.00  0.00    +0.009 C 
ATOM     22  C   LIG A   1      -9.092   1.548 132.227  0.00  0.00    +0.033 C 
ENDBRANCH   1  22
TORSDOF 1
ENDMDL
MODEL 5
REMARK VINA RESULT:      -7.1      1.503      2.028
REMARK  Name = NuBBE_2494
REMARK  6 active torsions:
REMARK  status: ('A' for Active; 'I' for Inactive)
REMARK    1  A    between atoms: C_1  and  C_2
REMARK    2  A    between atoms: C_2  and  C_3
REMARK    3  A    between atoms: C_4  and  C_5
REMARK    4  A    between atoms: C_14  and  C_15
REMARK    5  A    between atoms: C_14  and  C_16
REMARK    6  A    between atoms: C_21  and  C_22
REMARK                            x       y       z     vdW  Elec       q    Type
REMARK                         _______ _______ _______ _____ _____    ______ ____
ROOT
ATOM      1  C   LIG A   1      -7.743  -1.801 126.848  0.00  0.00    -0.034 A 
ATOM      2  C   LIG A   1      -8.577  -2.924 126.620  0.00  0.00    -0.047 A 
ATOM      3  C   LIG A   1      -9.076  -3.299 125.248  0.00  0.00    +0.044 C 
ATOM      4  C   LIG A   1      -8.936  -3.748 127.693  0.00  0.00    +0.004 A 
ATOM      5  C   LIG A   1      -8.488  -3.489 128.987  0.00  0.00    +0.005 A 
ATOM      6  C   LIG A   1      -7.656  -2.397 129.257  0.00  0.00    -0.030 A 
ATOM      7  C   LIG A   1      -7.300  -1.537 128.175  0.00  0.00    +0.025 A 
ATOM      8  C   LIG A   1      -6.441  -0.339 128.492  0.00  0.00    +0.164 C 
ATOM      9  O   LIG A   1      -6.492   0.691 127.824  0.00  0.00    -0.292 OA
ATOM     10  C   LIG A   1      -5.522  -0.393 129.697  0.00  0.00    +0.085 C 
ATOM     11  C   LIG A   1      -5.622  -1.722 130.444  0.00  0.00    +0.020 C 
ATOM     12  C   LIG A   1      -4.675  -1.878 131.676  0.00  0.00    +0.027 C 
ATOM     13  C   LIG A   1      -3.207  -1.657 131.249  0.00  0.00    +0.019 C 
ATOM     14  C   LIG A   1      -4.980  -0.929 132.841  0.00  0.00    +0.019 C 
ATOM     15  C   LIG A   1      -4.790  -3.327 132.187  0.00  0.00    +0.139 C 
ATOM     16  O   LIG A   1      -3.952  -3.825 132.939  0.00  0.00    -0.297 OA
ATOM     17  C   LIG A   1      -5.982  -4.141 131.722  0.00  0.00    +0.076 C 
ATOM     18  C   LIG A   1      -7.217  -3.254 131.715  0.00  0.00    +0.019 C 
ATOM     19  C   LIG A   1      -7.130  -2.092 130.678  0.00  0.00    -0.002 C 
ATOM     20  C   LIG A   1      -8.022  -0.949 131.230  0.00  0.00    +0.016 C 
ENDROOT
BRANCH   1  22
ATOM     21  C   LIG A   1      -6.044  -1.380 125.015  0.00  0.00    +0.009 C 
ATOM     22  C   LIG A   1      -7.341  -0.924 125.673  0.00  0.00    +0.033 C 
ENDBRANCH   1  22
TORSDOF 1
ENDMDL
MODEL 6
REMARK VINA RESULT:      -6.9      1.642      6.079
REMARK  Name = NuBBE_2494
REMARK  6 active torsions:
REMARK  status: ('A' for Active; 'I' for Inactive)
REMARK    1  A    between atoms: C_1  and  C_2
REMARK    2  A    between atoms: C_2  and  C_3
REMARK    3  A    between atoms: C_4  and  C_5
REMARK    4  A    between atoms: C_14  and  C_15
REMARK    5  A    between atoms: C_14  and  C_16
REMARK    6  A    between atoms: C_21  and  C_22
REMARK                            x       y       z     vdW  Elec       q    Type
REMARK                         _______ _______ _______ _____ _____    ______ ____
ROOT
ATOM      1  C   LIG A   1      -5.818  -2.700 130.408  0.00  0.00    -0.034 A 
ATOM      2  C   LIG A   1      -4.636  -1.992 130.737  0.00  0.00    -0.047 A 
ATOM      3  C   LIG A   1      -3.795  -2.329 131.942  0.00  0.00    +0.044 C 
ATOM      4  C   LIG A   1      -4.197  -0.956 129.904  0.00  0.00    +0.004 A 
ATOM      5  C   LIG A   1      -4.898  -0.604 128.753  0.00  0.00    +0.005 A 
ATOM      6  C   LIG A   1      -6.066  -1.282 128.385  0.00  0.00    -0.030 A 
ATOM      7  C   LIG A   1      -6.536  -2.327 129.236  0.00  0.00    +0.025 A 
ATOM      8  C   LIG A   1      -7.820  -3.015 128.849  0.00  0.00    +0.164 C 
ATOM      9  O   LIG A   1      -8.563  -3.521 129.686  0.00  0.00    -0.292 OA
ATOM     10  C   LIG A   1      -8.226  -3.044 127.388  0.00  0.00    +0.085 C 
ATOM     11  C   LIG A   1      -7.218  -2.326 126.492  0.00  0.00    +0.020 C 
ATOM     12  C   LIG A   1      -7.538  -2.346 124.963  0.00  0.00    +0.027 C 
ATOM     13  C   LIG A   1      -7.692  -3.802 124.472  0.00  0.00    +0.019 C 
ATOM     14  C   LIG A   1      -8.802  -1.574 124.565  0.00  0.00    +0.019 C 
ATOM     15  C   LIG A   1      -6.339  -1.734 124.215  0.00  0.00    +0.139 C 
ATOM     16  O   LIG A   1      -6.171  -1.892 123.006  0.00  0.00    -0.297 OA
ATOM     17  C   LIG A   1      -5.346  -0.925 125.027  0.00  0.00    +0.076 C 
ATOM     18  C   LIG A   1      -6.105  -0.077 126.036  0.00  0.00    +0.019 C 
ATOM     19  C   LIG A   1      -6.857  -0.926 127.106  0.00  0.00    -0.002 C 
ATOM     20  C   LIG A   1      -8.064  -0.070 127.572  0.00  0.00    +0.016 C 
ENDROOT
BRANCH   1  22
ATOM     21  C   LIG A   1      -5.655  -5.177 130.924  0.00  0.00    +0.009 C 
ATOM     22  C   LIG A   1      -6.276  -3.839 131.306  0.00  0.00    +0.033 C 
ENDBRANCH   1  22
TORSDOF 1
ENDMDL
MODEL 7
REMARK VINA RESULT:      -6.9      2.985      5.339
REMARK  Name = NuBBE_2494
REMARK  6 active torsions:
REMARK  status: ('A' for Active; 'I' for Inactive)
REMARK    1  A    between atoms: C_1  and  C_2
REMARK    2  A    between atoms: C_2  and  C_3
REMARK    3  A    between atoms: C_4  and  C_5
REMARK    4  A    between atoms: C_14  and  C_15
REMARK    5  A    between atoms: C_14  and  C_16
REMARK    6  A    between atoms: C_21  and  C_22
REMARK                            x       y       z     vdW  Elec       q    Type
REMARK                         _______ _______ _______ _____ _____    ______ ____
ROOT
ATOM      1  C   LIG A   1      -6.108   2.528 125.184  0.00  0.00    -0.034 A 
ATOM      2  C   LIG A   1      -5.249   2.983 126.215  0.00  0.00    -0.047 A 
ATOM      3  C   LIG A   1      -4.953   4.444 126.439  0.00  0.00    +0.044 C 
ATOM      4  C   LIG A   1      -4.668   2.057 127.089  0.00  0.00    +0.004 A 
ATOM      5  C   LIG A   1      -4.917   0.692 126.970  0.00  0.00    +0.005 A 
ATOM      6  C   LIG A   1      -5.766   0.198 125.973  0.00  0.00    -0.030 A 
ATOM      7  C   LIG A   1      -6.349   1.129 125.062  0.00  0.00    +0.025 A 
ATOM      8  C   LIG A   1      -7.222   0.576 123.965  0.00  0.00    +0.164 C 
ATOM      9  O   LIG A   1      -7.349   1.148 122.886  0.00  0.00    -0.292 OA
ATOM     10  C   LIG A   1      -7.930  -0.747 124.188  0.00  0.00    +0.085 C 
ATOM     11  C   LIG A   1      -7.622  -1.345 125.560  0.00  0.00    +0.020 C 
ATOM     12  C   LIG A   1      -8.346  -2.690 125.888  0.00  0.00    +0.027 C 
ATOM     13  C   LIG A   1      -9.875  -2.517 125.753  0.00  0.00    +0.019 C 
ATOM     14  C   LIG A   1      -7.921  -3.875 125.012  0.00  0.00    +0.019 C 
ATOM     15  C   LIG A   1      -8.053  -3.044 127.358  0.00  0.00    +0.139 C 
ATOM     16  O   LIG A   1      -8.724  -3.869 127.980  0.00  0.00    -0.297 OA
ATOM     17  C   LIG A   1      -6.901  -2.328 128.035  0.00  0.00    +0.076 C 
ATOM     18  C   LIG A   1      -5.745  -2.211 127.054  0.00  0.00    +0.019 C 
ATOM     19  C   LIG A   1      -6.075  -1.309 125.825  0.00  0.00    -0.002 C 
ATOM     20  C   LIG A   1      -5.184  -1.817 124.660  0.00  0.00    +0.016 C 
ENDROOT
BRANCH   1  22
ATOM     21  C   LIG A   1      -5.782   4.085 123.210  0.00  0.00    +0.009 C 
ATOM     22  C   LIG A   1      -6.752   3.541 124.252  0.00  0.00    +0.033 C 
ENDBRANCH   1  22
TORSDOF 1
ENDMDL
MODEL 8
REMARK VINA RESULT:      -6.9      9.235     11.297
REMARK  Name = NuBBE_2494
REMARK  6 active torsions:
REMARK  status: ('A' for Active; 'I' for Inactive)
REMARK    1  A    between atoms: C_1  and  C_2
REMARK    2  A    between atoms: C_2  and  C_3
REMARK    3  A    between atoms: C_4  and  C_5
REMARK    4  A    between atoms: C_14  and  C_15
REMARK    5  A    between atoms: C_14  and  C_16
REMARK    6  A    between atoms: C_21  and  C_22
REMARK                            x       y       z     vdW  Elec       q    Type
REMARK                         _______ _______ _______ _____ _____    ______ ____
ROOT
ATOM      1  C   LIG A   1      -7.461   5.607 133.148  0.00  0.00    -0.034 A 
ATOM      2  C   LIG A   1      -8.203   6.217 132.106  0.00  0.00    -0.047 A 
ATOM      3  C   LIG A   1      -9.710   6.240 132.087  0.00  0.00    +0.044 C 
ATOM      4  C   LIG A   1      -7.527   6.858 131.061  0.00  0.00    +0.004 A 
ATOM      5  C   LIG A   1      -6.136   6.912 131.022  0.00  0.00    +0.005 A 
ATOM      6  C   LIG A   1      -5.363   6.330 132.034  0.00  0.00    -0.030 A 
ATOM      7  C   LIG A   1      -6.039   5.656 133.095  0.00  0.00    +0.025 A 
ATOM      8  C   LIG A   1      -5.191   4.995 134.151  0.00  0.00    +0.164 C 
ATOM      9  O   LIG A   1      -5.582   4.012 134.776  0.00  0.00    -0.292 OA
ATOM     10  C   LIG A   1      -3.798   5.533 134.417  0.00  0.00    +0.085 C 
ATOM     11  C   LIG A   1      -3.454   6.720 133.519  0.00  0.00    +0.020 C 
ATOM     12  C   LIG A   1      -2.051   7.363 133.757  0.00  0.00    +0.027 C 
ATOM     13  C   LIG A   1      -1.911   7.800 135.232  0.00  0.00    +0.019 C 
ATOM     14  C   LIG A   1      -0.864   6.455 133.414  0.00  0.00    +0.019 C 
ATOM     15  C   LIG A   1      -1.955   8.635 132.892  0.00  0.00    +0.139 C 
ATOM     16  O   LIG A   1      -1.106   9.504 133.096  0.00  0.00    -0.297 OA
ATOM     17  C   LIG A   1      -2.960   8.795 131.768  0.00  0.00    +0.076 C 
ATOM     18  C   LIG A   1      -3.165   7.449 131.091  0.00  0.00    +0.019 C 
ATOM     19  C   LIG A   1      -3.819   6.386 132.028  0.00  0.00    -0.002 C 
ATOM     20  C   LIG A   1      -3.341   5.001 131.516  0.00  0.00    +0.016 C 
ENDROOT
BRANCH   1  22
ATOM     21  C   LIG A   1      -8.793   3.583 133.895  0.00  0.00    +0.009 C 
ATOM     22  C   LIG A   1      -8.203   4.932 134.290  0.00  0.00    +0.033 C 
ENDBRANCH   1  22
TORSDOF 1
ENDMDL
MODEL 9
REMARK VINA RESULT:      -6.8      2.261      3.352
REMARK  Name = NuBBE_2494
REMARK  6 active torsions:
REMARK  status: ('A' for Active; 'I' for Inactive)
REMARK    1  A    between atoms: C_1  and  C_2
REMARK    2  A    between atoms: C_2  and  C_3
REMARK    3  A    between atoms: C_4  and  C_5
REMARK    4  A    between atoms: C_14  and  C_15
REMARK    5  A    between atoms: C_14  and  C_16
REMARK    6  A    between atoms: C_21  and  C_22
REMARK                            x       y       z     vdW  Elec       q    Type
REMARK                         _______ _______ _______ _____ _____    ______ ____
ROOT
ATOM      1  C   LIG A   1      -8.494  -0.823 123.838  0.00  0.00    -0.034 A 
ATOM      2  C   LIG A   1      -9.334   0.296 123.615  0.00  0.00    -0.047 A 
ATOM      3  C   LIG A   1     -10.283   0.378 122.447  0.00  0.00    +0.044 C 
ATOM      4  C   LIG A   1      -9.320   1.362 124.522  0.00  0.00    +0.004 A 
ATOM      5  C   LIG A   1      -8.496   1.348 125.645  0.00  0.00    +0.005 A 
ATOM      6  C   LIG A   1      -7.657   0.260 125.910  0.00  0.00    -0.030 A 
ATOM      7  C   LIG A   1      -7.646  -0.825 124.983  0.00  0.00    +0.025 A 
ATOM      8  C   LIG A   1      -6.702  -1.967 125.259  0.00  0.00    +0.164 C 
ATOM      9  O   LIG A   1      -6.235  -2.656 124.355  0.00  0.00    -0.292 OA
ATOM     10  C   LIG A   1      -6.283  -2.244 126.690  0.00  0.00    +0.085 C 
ATOM     11  C   LIG A   1      -6.914  -1.264 127.678  0.00  0.00    +0.020 C 
ATOM     12  C   LIG A   1      -6.568  -1.505 129.182  0.00  0.00    +0.027 C 
ATOM     13  C   LIG A   1      -6.956  -2.942 129.592  0.00  0.00    +0.019 C 
ATOM     14  C   LIG A   1      -5.094  -1.288 129.542  0.00  0.00    +0.019 C 
ATOM     15  C   LIG A   1      -7.421  -0.541 130.029  0.00  0.00    +0.139 C 
ATOM     16  O   LIG A   1      -7.592  -0.706 131.238  0.00  0.00    -0.297 OA
ATOM     17  C   LIG A   1      -8.066   0.633 129.318  0.00  0.00    +0.076 C 
ATOM     18  C   LIG A   1      -7.081   1.203 128.308  0.00  0.00    +0.019 C 
ATOM     19  C   LIG A   1      -6.743   0.208 127.156  0.00  0.00    -0.002 C 
ATOM     20  C   LIG A   1      -5.321   0.581 126.661  0.00  0.00    +0.016 C 
ENDROOT
BRANCH   1  22
ATOM     21  C   LIG A   1      -9.478  -3.097 123.301  0.00  0.00    +0.009 C 
ATOM     22  C   LIG A   1      -8.531  -1.987 122.861  0.00  0.00    +0.033 C 
ENDBRANCH   1  22
TORSDOF 1
ENDMDL
