MODEL 1
REMARK VINA RESULT:      -6.9      0.000      0.000
REMARK  Name = NuBBE_1781
REMARK  7 active torsions:
REMARK  status: ('A' for Active; 'I' for Inactive)
REMARK    1  A    between atoms: C_1  and  C_2
REMARK    2  A    between atoms: C_1  and  C_11
REMARK    3  A    between atoms: C_2  and  C_3
REMARK    4  A    between atoms: C_6  and  O_9
REMARK    5  A    between atoms: O_9  and  C_10
REMARK    6  A    between atoms: C_14  and  O_19
REMARK    7  A    between atoms: O_19  and  C_20
REMARK                            x       y       z     vdW  Elec       q    Type
REMARK                         _______ _______ _______ _____ _____    ______ ____
ROOT
ATOM      1  C   LIG A   1     -11.312   7.135 131.055  0.00  0.00    +0.050 C 
ENDROOT
BRANCH   1   2
ATOM      2  C   LIG A   1     -12.084   6.489 129.887  0.00  0.00    +0.184 C 
ATOM      3  C   LIG A   1     -13.199   7.361 129.312  0.00  0.00    +0.118 C 
ATOM      4  C   LIG A   1     -12.616   8.483 128.506  0.00  0.00    +0.108 C 
ATOM      5  C   LIG A   1     -11.462   8.286 127.850  0.00  0.00    +0.132 C 
ATOM      6  C   LIG A   1     -10.784   6.981 127.887  0.00  0.00    +0.335 C 
ATOM      7  O   LIG A   1      -9.898   6.721 127.074  0.00  0.00    -0.245 OA
ATOM      8  O   LIG A   1     -11.173   6.095 128.835  0.00  0.00    -0.458 OA
BRANCH   4   9
ATOM      9  O   LIG A   1     -13.361   9.638 128.547  0.00  0.00    -0.499 OA
ATOM     10  C   LIG A   1     -13.316  10.424 129.735  0.00  0.00    +0.276 C 
ENDBRANCH   4   9
ENDBRANCH   1   2
BRANCH   1  11
ATOM     11  C   LIG A   1     -10.660   6.079 131.959  0.00  0.00    +0.038 C 
BRANCH  11  12
ATOM     12  C   LIG A   1      -9.154   6.186 131.976  0.00  0.00    -0.047 A 
ATOM     13  C   LIG A   1      -8.496   6.863 130.946  0.00  0.00    +0.007 A 
ATOM     14  C   LIG A   1      -7.106   6.965 130.937  0.00  0.00    +0.046 A 
ATOM     15  C   LIG A   1      -6.344   6.401 131.960  0.00  0.00    +0.120 A 
ATOM     16  C   LIG A   1      -6.994   5.731 132.999  0.00  0.00    +0.046 A 
ATOM     17  C   LIG A   1      -8.391   5.618 133.004  0.00  0.00    +0.007 A 
BRANCH  15  18
ATOM     18  O   LIG A   1      -4.976   6.452 132.034  0.00  0.00    -0.495 OA
ATOM     19  C   LIG A   1      -4.342   7.266 131.049  0.00  0.00    +0.277 C 
ENDBRANCH  15  18
ENDBRANCH  11  12
ENDBRANCH   1  11
TORSDOF 5
ENDMDL
MODEL 2
REMARK VINA RESULT:      -6.5      9.197     11.682
REMARK  Name = NuBBE_1781
REMARK  7 active torsions:
REMARK  status: ('A' for Active; 'I' for Inactive)
REMARK    1  A    between atoms: C_1  and  C_2
REMARK    2  A    between atoms: C_1  and  C_11
REMARK    3  A    between atoms: C_2  and  C_3
REMARK    4  A    between atoms: C_6  and  O_9
REMARK    5  A    between atoms: O_9  and  C_10
REMARK    6  A    between atoms: C_14  and  O_19
REMARK    7  A    between atoms: O_19  and  C_20
REMARK                            x       y       z     vdW  Elec       q    Type
REMARK                         _______ _______ _______ _____ _____    ______ ____
ROOT
ATOM      1  C   LIG A   1      -7.180   1.229 124.220  0.00  0.00    +0.050 C 
ENDROOT
BRANCH   1   2
ATOM      2  C   LIG A   1      -7.718   0.069 123.359  0.00  0.00    +0.184 C 
ATOM      3  C   LIG A   1      -6.680  -1.006 123.035  0.00  0.00    +0.118 C 
ATOM      4  C   LIG A   1      -6.398  -1.837 124.251  0.00  0.00    +0.108 C 
ATOM      5  C   LIG A   1      -7.379  -2.046 125.143  0.00  0.00    +0.132 C 
ATOM      6  C   LIG A   1      -8.728  -1.499 124.926  0.00  0.00    +0.335 C 
ATOM      7  O   LIG A   1      -9.679  -1.920 125.583  0.00  0.00    -0.245 OA
ATOM      8  O   LIG A   1      -8.873  -0.534 123.987  0.00  0.00    -0.458 OA
BRANCH   4   9
ATOM      9  O   LIG A   1      -5.104  -2.297 124.318  0.00  0.00    -0.499 OA
ATOM     10  C   LIG A   1      -4.727  -3.369 123.460  0.00  0.00    +0.276 C 
ENDBRANCH   4   9
ENDBRANCH   1   2
BRANCH   1  11
ATOM     11  C   LIG A   1      -7.914   2.544 123.922  0.00  0.00    +0.038 C 
BRANCH  11  12
ATOM     12  C   LIG A   1      -7.606   3.078 122.544  0.00  0.00    -0.047 A 
ATOM     13  C   LIG A   1      -8.652   3.408 121.679  0.00  0.00    +0.007 A 
ATOM     14  C   LIG A   1      -8.389   3.892 120.398  0.00  0.00    +0.046 A 
ATOM     15  C   LIG A   1      -7.077   4.064 119.957  0.00  0.00    +0.120 A 
ATOM     16  C   LIG A   1      -6.025   3.745 120.819  0.00  0.00    +0.046 A 
ATOM     17  C   LIG A   1      -6.287   3.249 122.103  0.00  0.00    +0.007 A 
BRANCH  15  18
ATOM     18  O   LIG A   1      -6.726   4.534 118.718  0.00  0.00    -0.495 OA
ATOM     19  C   LIG A   1      -5.927   5.715 118.716  0.00  0.00    +0.277 C 
ENDBRANCH  15  18
ENDBRANCH  11  12
ENDBRANCH   1  11
TORSDOF 5
ENDMDL
MODEL 3
REMARK VINA RESULT:      -6.4      2.566      3.327
REMARK  Name = NuBBE_1781
REMARK  7 active torsions:
REMARK  status: ('A' for Active; 'I' for Inactive)
REMARK    1  A    between atoms: C_1  and  C_2
REMARK    2  A    between atoms: C_1  and  C_11
REMARK    3  A    between atoms: C_2  and  C_3
REMARK    4  A    between atoms: C_6  and  O_9
REMARK    5  A    between atoms: O_9  and  C_10
REMARK    6  A    between atoms: C_14  and  O_19
REMARK    7  A    between atoms: O_19  and  C_20
REMARK                            x       y       z     vdW  Elec       q    Type
REMARK                         _______ _______ _______ _____ _____    ______ ____
ROOT
ATOM      1  C   LIG A   1      -9.979   6.864 129.951  0.00  0.00    +0.050 C 
ENDROOT
BRANCH   1   2
ATOM      2  C   LIG A   1     -11.439   6.373 129.991  0.00  0.00    +0.184 C 
ATOM      3  C   LIG A   1     -12.416   7.358 130.634  0.00  0.00    +0.118 C 
ATOM      4  C   LIG A   1     -12.668   8.514 129.713  0.00  0.00    +0.108 C 
ATOM      5  C   LIG A   1     -12.639   8.312 128.386  0.00  0.00    +0.132 C 
ATOM      6  C   LIG A   1     -12.393   6.972 127.831  0.00  0.00    +0.335 C 
ATOM      7  O   LIG A   1     -12.643   6.737 126.649  0.00  0.00    -0.245 OA
ATOM      8  O   LIG A   1     -11.893   6.027 128.662  0.00  0.00    -0.458 OA
BRANCH   4   9
ATOM      9  O   LIG A   1     -12.899   9.701 130.367  0.00  0.00    -0.499 OA
ATOM     10  C   LIG A   1     -13.511  10.761 129.636  0.00  0.00    +0.276 C 
ENDBRANCH   4   9
ENDBRANCH   1   2
BRANCH   1  11
ATOM     11  C   LIG A   1      -9.289   6.705 131.313  0.00  0.00    +0.038 C 
BRANCH  11  12
ATOM     12  C   LIG A   1      -9.112   5.257 131.704  0.00  0.00    -0.047 A 
ATOM     13  C   LIG A   1      -9.383   4.856 133.015  0.00  0.00    +0.007 A 
ATOM     14  C   LIG A   1      -9.218   3.526 133.400  0.00  0.00    +0.046 A 
ATOM     15  C   LIG A   1      -8.785   2.568 132.483  0.00  0.00    +0.120 A 
ATOM     16  C   LIG A   1      -8.520   2.959 131.169  0.00  0.00    +0.046 A 
ATOM     17  C   LIG A   1      -8.677   4.297 130.782  0.00  0.00    +0.007 A 
BRANCH  15  18
ATOM     18  O   LIG A   1      -8.595   1.241 132.772  0.00  0.00    -0.495 OA
ATOM     19  C   LIG A   1      -8.954   0.333 131.734  0.00  0.00    +0.277 C 
ENDBRANCH  15  18
ENDBRANCH  11  12
ENDBRANCH   1  11
TORSDOF 5
ENDMDL
MODEL 4
REMARK VINA RESULT:      -6.4      9.803     10.718
REMARK  Name = NuBBE_1781
REMARK  7 active torsions:
REMARK  status: ('A' for Active; 'I' for Inactive)
REMARK    1  A    between atoms: C_1  and  C_2
REMARK    2  A    between atoms: C_1  and  C_11
REMARK    3  A    between atoms: C_2  and  C_3
REMARK    4  A    between atoms: C_6  and  O_9
REMARK    5  A    between atoms: O_9  and  C_10
REMARK    6  A    between atoms: C_14  and  O_19
REMARK    7  A    between atoms: O_19  and  C_20
REMARK                            x       y       z     vdW  Elec       q    Type
REMARK                         _______ _______ _______ _____ _____    ______ ____
ROOT
ATOM      1  C   LIG A   1      -9.044  -2.779 126.021  0.00  0.00    +0.050 C 
ENDROOT
BRANCH   1   2
ATOM      2  C   LIG A   1      -8.748  -3.559 124.725  0.00  0.00    +0.184 C 
ATOM      3  C   LIG A   1      -9.543  -3.083 123.509  0.00  0.00    +0.118 C 
ATOM      4  C   LIG A   1      -9.009  -1.770 123.022  0.00  0.00    +0.108 C 
ATOM      5  C   LIG A   1      -7.700  -1.504 123.160  0.00  0.00    +0.132 C 
ATOM      6  C   LIG A   1      -6.786  -2.494 123.751  0.00  0.00    +0.335 C 
ATOM      7  O   LIG A   1      -5.569  -2.368 123.619  0.00  0.00    -0.245 OA
ATOM      8  O   LIG A   1      -7.332  -3.531 124.430  0.00  0.00    -0.458 OA
BRANCH   4   9
ATOM      9  O   LIG A   1      -9.969  -0.949 122.479  0.00  0.00    -0.499 OA
ATOM     10  C   LIG A   1      -9.912   0.442 122.782  0.00  0.00    +0.276 C 
ENDBRANCH   4   9
ENDBRANCH   1   2
BRANCH   1  11
ATOM     11  C   LIG A   1      -8.871  -3.660 127.267  0.00  0.00    +0.038 C 
BRANCH  11  12
ATOM     12  C   LIG A   1      -7.852  -3.102 128.230  0.00  0.00    -0.047 A 
ATOM     13  C   LIG A   1      -6.765  -2.372 127.742  0.00  0.00    +0.007 A 
ATOM     14  C   LIG A   1      -5.807  -1.856 128.613  0.00  0.00    +0.046 A 
ATOM     15  C   LIG A   1      -5.916  -2.052 129.990  0.00  0.00    +0.120 A 
ATOM     16  C   LIG A   1      -7.004  -2.774 130.487  0.00  0.00    +0.046 A 
ATOM     17  C   LIG A   1      -7.964  -3.302 129.612  0.00  0.00    +0.007 A 
BRANCH  15  18
ATOM     18  O   LIG A   1      -5.024  -1.583 130.919  0.00  0.00    -0.495 OA
ATOM     19  C   LIG A   1      -3.657  -1.595 130.513  0.00  0.00    +0.277 C 
ENDBRANCH  15  18
ENDBRANCH  11  12
ENDBRANCH   1  11
TORSDOF 5
ENDMDL
MODEL 5
REMARK VINA RESULT:      -6.4      9.371     10.369
REMARK  Name = NuBBE_1781
REMARK  7 active torsions:
REMARK  status: ('A' for Active; 'I' for Inactive)
REMARK    1  A    between atoms: C_1  and  C_2
REMARK    2  A    between atoms: C_1  and  C_11
REMARK    3  A    between atoms: C_2  and  C_3
REMARK    4  A    between atoms: C_6  and  O_9
REMARK    5  A    between atoms: O_9  and  C_10
REMARK    6  A    between atoms: C_14  and  O_19
REMARK    7  A    between atoms: O_19  and  C_20
REMARK                            x       y       z     vdW  Elec       q    Type
REMARK                         _______ _______ _______ _____ _____    ______ ____
ROOT
ATOM      1  C   LIG A   1      -9.338  -3.000 125.879  0.00  0.00    +0.050 C 
ENDROOT
BRANCH   1   2
ATOM      2  C   LIG A   1      -8.735  -3.515 124.557  0.00  0.00    +0.184 C 
ATOM      3  C   LIG A   1      -9.426  -2.983 123.302  0.00  0.00    +0.118 C 
ATOM      4  C   LIG A   1      -9.065  -1.544 123.083  0.00  0.00    +0.108 C 
ATOM      5  C   LIG A   1      -7.854  -1.107 123.463  0.00  0.00    +0.132 C 
ATOM      6  C   LIG A   1      -6.872  -2.026 124.060  0.00  0.00    +0.335 C 
ATOM      7  O   LIG A   1      -5.690  -1.698 124.143  0.00  0.00    -0.245 OA
ATOM      8  O   LIG A   1      -7.319  -3.227 124.500  0.00  0.00    -0.458 OA
BRANCH   4   9
ATOM      9  O   LIG A   1     -10.069  -0.804 122.503  0.00  0.00    -0.499 OA
ATOM     10  C   LIG A   1     -10.053   0.609 122.687  0.00  0.00    +0.276 C 
ENDBRANCH   4   9
ENDBRANCH   1   2
BRANCH   1  11
ATOM     11  C   LIG A   1      -8.790  -3.767 127.091  0.00  0.00    +0.038 C 
BRANCH  11  12
ATOM     12  C   LIG A   1      -8.223  -2.848 128.146  0.00  0.00    -0.047 A 
ATOM     13  C   LIG A   1      -7.766  -1.578 127.785  0.00  0.00    +0.007 A 
ATOM     14  C   LIG A   1      -7.230  -0.717 128.742  0.00  0.00    +0.046 A 
ATOM     15  C   LIG A   1      -7.145  -1.104 130.080  0.00  0.00    +0.120 A 
ATOM     16  C   LIG A   1      -7.608  -2.368 130.450  0.00  0.00    +0.046 A 
ATOM     17  C   LIG A   1      -8.138  -3.239 129.489  0.00  0.00    +0.007 A 
BRANCH  15  18
ATOM     18  O   LIG A   1      -6.635  -0.325 131.086  0.00  0.00    -0.495 OA
ATOM     19  C   LIG A   1      -7.445  -0.231 132.256  0.00  0.00    +0.277 C 
ENDBRANCH  15  18
ENDBRANCH  11  12
ENDBRANCH   1  11
TORSDOF 5
ENDMDL
MODEL 6
REMARK VINA RESULT:      -6.3      9.944     11.126
REMARK  Name = NuBBE_1781
REMARK  7 active torsions:
REMARK  status: ('A' for Active; 'I' for Inactive)
REMARK    1  A    between atoms: C_1  and  C_2
REMARK    2  A    between atoms: C_1  and  C_11
REMARK    3  A    between atoms: C_2  and  C_3
REMARK    4  A    between atoms: C_6  and  O_9
REMARK    5  A    between atoms: O_9  and  C_10
REMARK    6  A    between atoms: C_14  and  O_19
REMARK    7  A    between atoms: O_19  and  C_20
REMARK                            x       y       z     vdW  Elec       q    Type
REMARK                         _______ _______ _______ _____ _____    ______ ____
ROOT
ATOM      1  C   LIG A   1      -8.603  -3.875 127.278  0.00  0.00    +0.050 C 
ENDROOT
BRANCH   1   2
ATOM      2  C   LIG A   1      -8.772  -2.538 126.530  0.00  0.00    +0.184 C 
ATOM      3  C   LIG A   1      -7.462  -1.924 126.036  0.00  0.00    +0.118 C 
ATOM      4  C   LIG A   1      -6.942  -2.692 124.858  0.00  0.00    +0.108 C 
ATOM      5  C   LIG A   1      -7.814  -3.270 124.017  0.00  0.00    +0.132 C 
ATOM      6  C   LIG A   1      -9.264  -3.134 124.220  0.00  0.00    +0.335 C 
ATOM      7  O   LIG A   1     -10.045  -3.416 123.312  0.00  0.00    -0.245 OA
ATOM      8  O   LIG A   1      -9.693  -2.689 125.425  0.00  0.00    -0.458 OA
BRANCH   4   9
ATOM      9  O   LIG A   1      -5.569  -2.725 124.782  0.00  0.00    -0.499 OA
ATOM     10  C   LIG A   1      -4.965  -3.756 124.007  0.00  0.00    +0.276 C 
ENDBRANCH   4   9
ENDBRANCH   1   2
BRANCH   1  11
ATOM     11  C   LIG A   1      -8.947  -3.741 128.768  0.00  0.00    +0.038 C 
BRANCH  11  12
ATOM     12  C   LIG A   1      -7.811  -3.152 129.570  0.00  0.00    -0.047 A 
ATOM     13  C   LIG A   1      -6.673  -3.920 129.826  0.00  0.00    +0.007 A 
ATOM     14  C   LIG A   1      -5.617  -3.400 130.573  0.00  0.00    +0.046 A 
ATOM     15  C   LIG A   1      -5.673  -2.099 131.075  0.00  0.00    +0.120 A 
ATOM     16  C   LIG A   1      -6.803  -1.321 130.816  0.00  0.00    +0.046 A 
ATOM     17  C   LIG A   1      -7.870  -1.846 130.074  0.00  0.00    +0.007 A 
BRANCH  15  18
ATOM     18  O   LIG A   1      -4.684  -1.506 131.817  0.00  0.00    -0.495 OA
ATOM     19  C   LIG A   1      -3.713  -2.397 132.363  0.00  0.00    +0.277 C 
ENDBRANCH  15  18
ENDBRANCH  11  12
ENDBRANCH   1  11
TORSDOF 5
ENDMDL
MODEL 7
REMARK VINA RESULT:      -6.2      1.727      6.556
REMARK  Name = NuBBE_1781
REMARK  7 active torsions:
REMARK  status: ('A' for Active; 'I' for Inactive)
REMARK    1  A    between atoms: C_1  and  C_2
REMARK    2  A    between atoms: C_1  and  C_11
REMARK    3  A    between atoms: C_2  and  C_3
REMARK    4  A    between atoms: C_6  and  O_9
REMARK    5  A    between atoms: O_9  and  C_10
REMARK    6  A    between atoms: C_14  and  O_19
REMARK    7  A    between atoms: O_19  and  C_20
REMARK                            x       y       z     vdW  Elec       q    Type
REMARK                         _______ _______ _______ _____ _____    ______ ____
ROOT
ATOM      1  C   LIG A   1      -9.468   5.432 130.250  0.00  0.00    +0.050 C 
ENDROOT
BRANCH   1   2
ATOM      2  C   LIG A   1      -9.094   6.549 131.244  0.00  0.00    +0.184 C 
ATOM      3  C   LIG A   1      -8.782   6.056 132.657  0.00  0.00    +0.118 C 
ATOM      4  C   LIG A   1      -7.447   5.374 132.685  0.00  0.00    +0.108 C 
ATOM      5  C   LIG A   1      -6.480   5.794 131.852  0.00  0.00    +0.132 C 
ATOM      6  C   LIG A   1      -6.707   6.926 130.941  0.00  0.00    +0.335 C 
ATOM      7  O   LIG A   1      -5.753   7.480 130.395  0.00  0.00    -0.245 OA
ATOM      8  O   LIG A   1      -7.984   7.326 130.737  0.00  0.00    -0.458 OA
BRANCH   4   9
ATOM      9  O   LIG A   1      -7.370   4.345 133.593  0.00  0.00    -0.499 OA
ATOM     10  C   LIG A   1      -7.478   4.663 134.978  0.00  0.00    +0.276 C 
ENDBRANCH   4   9
ENDBRANCH   1   2
BRANCH   1  11
ATOM     11  C   LIG A   1     -10.988   5.323 130.062  0.00  0.00    +0.038 C 
BRANCH  11  12
ATOM     12  C   LIG A   1     -11.631   6.662 129.792  0.00  0.00    -0.047 A 
ATOM     13  C   LIG A   1     -12.405   7.271 130.783  0.00  0.00    +0.007 A 
ATOM     14  C   LIG A   1     -13.017   8.502 130.550  0.00  0.00    +0.046 A 
ATOM     15  C   LIG A   1     -12.863   9.154 129.327  0.00  0.00    +0.120 A 
ATOM     16  C   LIG A   1     -12.084   8.557 128.335  0.00  0.00    +0.046 A 
ATOM     17  C   LIG A   1     -11.476   7.315 128.562  0.00  0.00    +0.007 A 
BRANCH  15  18
ATOM     18  O   LIG A   1     -13.426  10.364 129.012  0.00  0.00    -0.495 OA
ATOM     19  C   LIG A   1     -13.588  11.266 130.105  0.00  0.00    +0.277 C 
ENDBRANCH  15  18
ENDBRANCH  11  12
ENDBRANCH   1  11
TORSDOF 5
ENDMDL
MODEL 8
REMARK VINA RESULT:      -6.1      1.906      7.043
REMARK  Name = NuBBE_1781
REMARK  7 active torsions:
REMARK  status: ('A' for Active; 'I' for Inactive)
REMARK    1  A    between atoms: C_1  and  C_2
REMARK    2  A    between atoms: C_1  and  C_11
REMARK    3  A    between atoms: C_2  and  C_3
REMARK    4  A    between atoms: C_6  and  O_9
REMARK    5  A    between atoms: O_9  and  C_10
REMARK    6  A    between atoms: C_14  and  O_19
REMARK    7  A    between atoms: O_19  and  C_20
REMARK                            x       y       z     vdW  Elec       q    Type
REMARK                         _______ _______ _______ _____ _____    ______ ____
ROOT
ATOM      1  C   LIG A   1      -6.552   6.831 131.301  0.00  0.00    +0.050 C 
ENDROOT
BRANCH   1   2
ATOM      2  C   LIG A   1      -5.229   6.052 131.444  0.00  0.00    +0.184 C 
ATOM      3  C   LIG A   1      -4.621   5.596 130.118  0.00  0.00    +0.118 C 
ATOM      4  C   LIG A   1      -4.031   6.766 129.389  0.00  0.00    +0.108 C 
ATOM      5  C   LIG A   1      -3.508   7.781 130.095  0.00  0.00    +0.132 C 
ATOM      6  C   LIG A   1      -3.480   7.743 131.565  0.00  0.00    +0.335 C 
ATOM      7  O   LIG A   1      -2.762   8.522 132.190  0.00  0.00    -0.245 OA
ATOM      8  O   LIG A   1      -4.262   6.829 132.188  0.00  0.00    -0.458 OA
BRANCH   4   9
ATOM      9  O   LIG A   1      -4.110   6.661 128.020  0.00  0.00    -0.499 OA
ATOM     10  C   LIG A   1      -4.238   5.361 127.453  0.00  0.00    +0.276 C 
ENDBRANCH   4   9
ENDBRANCH   1   2
BRANCH   1  11
ATOM     11  C   LIG A   1      -7.702   6.140 132.047  0.00  0.00    +0.038 C 
BRANCH  11  12
ATOM     12  C   LIG A   1      -9.053   6.486 131.471  0.00  0.00    -0.047 A 
ATOM     13  C   LIG A   1      -9.133   7.188 130.265  0.00  0.00    +0.007 A 
ATOM     14  C   LIG A   1     -10.370   7.527 129.720  0.00  0.00    +0.046 A 
ATOM     15  C   LIG A   1     -11.555   7.166 130.363  0.00  0.00    +0.120 A 
ATOM     16  C   LIG A   1     -11.484   6.456 131.564  0.00  0.00    +0.046 A 
ATOM     17  C   LIG A   1     -10.241   6.123 132.119  0.00  0.00    +0.007 A 
BRANCH  15  18
ATOM     18  O   LIG A   1     -12.813   7.455 129.901  0.00  0.00    -0.495 OA
ATOM     19  C   LIG A   1     -13.220   6.729 128.743  0.00  0.00    +0.277 C 
ENDBRANCH  15  18
ENDBRANCH  11  12
ENDBRANCH   1  11
TORSDOF 5
ENDMDL
MODEL 9
REMARK VINA RESULT:      -6.0      2.320      5.845
REMARK  Name = NuBBE_1781
REMARK  7 active torsions:
REMARK  status: ('A' for Active; 'I' for Inactive)
REMARK    1  A    between atoms: C_1  and  C_2
REMARK    2  A    between atoms: C_1  and  C_11
REMARK    3  A    between atoms: C_2  and  C_3
REMARK    4  A    between atoms: C_6  and  O_9
REMARK    5  A    between atoms: O_9  and  C_10
REMARK    6  A    between atoms: C_14  and  O_19
REMARK    7  A    between atoms: O_19  and  C_20
REMARK                            x       y       z     vdW  Elec       q    Type
REMARK                         _______ _______ _______ _____ _____    ______ ____
ROOT
ATOM      1  C   LIG A   1      -7.420   6.166 131.642  0.00  0.00    +0.050 C 
ENDROOT
BRANCH   1   2
ATOM      2  C   LIG A   1      -6.781   4.780 131.424  0.00  0.00    +0.184 C 
ATOM      3  C   LIG A   1      -7.785   3.663 131.135  0.00  0.00    +0.118 C 
ATOM      4  C   LIG A   1      -8.327   3.802 129.744  0.00  0.00    +0.108 C 
ATOM      5  C   LIG A   1      -7.541   4.314 128.782  0.00  0.00    +0.132 C 
ATOM      6  C   LIG A   1      -6.153   4.708 129.072  0.00  0.00    +0.335 C 
ATOM      7  O   LIG A   1      -5.362   4.905 128.150  0.00  0.00    -0.245 OA
ATOM      8  O   LIG A   1      -5.792   4.838 130.370  0.00  0.00    -0.458 OA
BRANCH   4   9
ATOM      9  O   LIG A   1      -9.629   3.381 129.613  0.00  0.00    -0.499 OA
ATOM     10  C   LIG A   1     -10.336   3.010 130.793  0.00  0.00    +0.276 C 
ENDBRANCH   4   9
ENDBRANCH   1   2
BRANCH   1  11
ATOM     11  C   LIG A   1      -8.794   6.058 132.317  0.00  0.00    +0.038 C 
BRANCH  11  12
ATOM     12  C   LIG A   1      -9.910   6.569 131.438  0.00  0.00    -0.047 A 
ATOM     13  C   LIG A   1      -9.606   7.183 130.220  0.00  0.00    +0.007 A 
ATOM     14  C   LIG A   1     -10.620   7.672 129.397  0.00  0.00    +0.046 A 
ATOM     15  C   LIG A   1     -11.959   7.551 129.769  0.00  0.00    +0.120 A 
ATOM     16  C   LIG A   1     -12.272   6.930 130.980  0.00  0.00    +0.046 A 
ATOM     17  C   LIG A   1     -11.254   6.447 131.814  0.00  0.00    +0.007 A 
BRANCH  15  18
ATOM     18  O   LIG A   1     -13.019   8.000 129.025  0.00  0.00    -0.495 OA
ATOM     19  C   LIG A   1     -13.645   7.019 128.200  0.00  0.00    +0.277 C 
ENDBRANCH  15  18
ENDBRANCH  11  12
ENDBRANCH   1  11
TORSDOF 5
ENDMDL
