MODEL 1
REMARK VINA RESULT:      -4.6      0.000      0.000
REMARK  Name = NuBBE_2111
REMARK  12 active torsions:
REMARK  status: ('A' for Active; 'I' for Inactive)
REMARK    1  A    between atoms: C_2  and  C_3
REMARK    2  A    between atoms: C_3  and  C_4
REMARK    3  A    between atoms: C_4  and  C_5
REMARK    4  A    between atoms: C_5  and  C_6
REMARK    5  A    between atoms: C_6  and  C_7
REMARK    6  A    between atoms: C_7  and  C_8
REMARK    7  A    between atoms: C_8  and  C_9
REMARK    8  A    between atoms: C_9  and  C_10
REMARK    9  A    between atoms: C_10  and  C_11
REMARK   10  A    between atoms: C_11  and  C_12
REMARK   11  A    between atoms: C_12  and  C_13
REMARK   12  A    between atoms: C_13  and  C_14
REMARK                            x       y       z     vdW  Elec       q    Type
REMARK                         _______ _______ _______ _____ _____    ______ ____
ROOT
ATOM      1  C   LIG A   1      -9.183  -3.044 125.928  0.00  0.00    -0.000 C 
ENDROOT
BRANCH   1   2
ATOM      2  C   LIG A   1      -8.014  -2.831 126.892  0.00  0.00    +0.000 C 
BRANCH   2   3
ATOM      3  C   LIG A   1      -7.018  -1.759 126.428  0.00  0.00    +0.000 C 
BRANCH   3   4
ATOM      4  C   LIG A   1      -5.710  -2.383 125.935  0.00  0.00    +0.004 C 
BRANCH   4   5
ATOM      5  C   LIG A   1      -5.348  -1.970 124.504  0.00  0.00    +0.026 C 
BRANCH   5   7
ATOM      6  C   LIG A   1      -4.406  -4.183 123.759  0.00  0.00    +0.004 C 
ATOM      7  C   LIG A   1      -5.256  -3.173 123.595  0.00  0.00    -0.035 C 
ENDBRANCH   5   7
ENDBRANCH   4   5
ENDBRANCH   3   4
ENDBRANCH   2   3
ENDBRANCH   1   2
BRANCH   1   8
ATOM      8  C   LIG A   1      -8.759  -3.701 124.614  0.00  0.00    -0.000 C 
BRANCH   8   9
ATOM      9  C   LIG A   1      -9.449  -3.105 123.392  0.00  0.00    -0.000 C 
BRANCH   9  10
ATOM     10  C   LIG A   1      -8.630  -1.971 122.772  0.00  0.00    -0.000 C 
BRANCH  10  11
ATOM     11  C   LIG A   1      -9.166  -0.585 123.120  0.00  0.00    -0.000 C 
BRANCH  11  12
ATOM     12  C   LIG A   1      -8.071   0.369 123.605  0.00  0.00    -0.000 C 
BRANCH  12  13
ATOM     13  C   LIG A   1      -8.553   1.253 124.753  0.00  0.00    -0.003 C 
ATOM     14  C   LIG A   1      -9.694   0.605 125.525  0.00  0.00    +0.004 C 
ENDBRANCH  12  13
ENDBRANCH  11  12
ENDBRANCH  10  11
ENDBRANCH   9  10
ENDBRANCH   8   9
ENDBRANCH   1   8
TORSDOF 11
ENDMDL
MODEL 2
REMARK VINA RESULT:      -4.6      1.487      3.589
REMARK  Name = NuBBE_2111
REMARK  12 active torsions:
REMARK  status: ('A' for Active; 'I' for Inactive)
REMARK    1  A    between atoms: C_2  and  C_3
REMARK    2  A    between atoms: C_3  and  C_4
REMARK    3  A    between atoms: C_4  and  C_5
REMARK    4  A    between atoms: C_5  and  C_6
REMARK    5  A    between atoms: C_6  and  C_7
REMARK    6  A    between atoms: C_7  and  C_8
REMARK    7  A    between atoms: C_8  and  C_9
REMARK    8  A    between atoms: C_9  and  C_10
REMARK    9  A    between atoms: C_10  and  C_11
REMARK   10  A    between atoms: C_11  and  C_12
REMARK   11  A    between atoms: C_12  and  C_13
REMARK   12  A    between atoms: C_13  and  C_14
REMARK                            x       y       z     vdW  Elec       q    Type
REMARK                         _______ _______ _______ _____ _____    ______ ____
ROOT
ATOM      1  C   LIG A   1      -8.867  -1.565 123.264  0.00  0.00    -0.000 C 
ENDROOT
BRANCH   1   2
ATOM      2  C   LIG A   1      -7.390  -1.225 123.052  0.00  0.00    +0.000 C 
BRANCH   2   3
ATOM      3  C   LIG A   1      -6.642  -0.884 124.348  0.00  0.00    +0.000 C 
BRANCH   3   4
ATOM      4  C   LIG A   1      -5.332  -1.669 124.464  0.00  0.00    +0.004 C 
BRANCH   4   5
ATOM      5  C   LIG A   1      -5.531  -3.101 124.974  0.00  0.00    +0.026 C 
BRANCH   5   7
ATOM      6  C   LIG A   1      -4.019  -4.479 123.508  0.00  0.00    +0.004 C 
ATOM      7  C   LIG A   1      -5.238  -4.112 123.891  0.00  0.00    -0.035 C 
ENDBRANCH   5   7
ENDBRANCH   4   5
ENDBRANCH   3   4
ENDBRANCH   2   3
ENDBRANCH   1   2
BRANCH   1   8
ATOM      8  C   LIG A   1      -9.140  -3.069 123.238  0.00  0.00    -0.000 C 
BRANCH   8   9
ATOM      9  C   LIG A   1      -9.044  -3.723 124.613  0.00  0.00    -0.000 C 
BRANCH   9  10
ATOM     10  C   LIG A   1      -9.589  -2.813 125.715  0.00  0.00    -0.000 C 
BRANCH  10  11
ATOM     11  C   LIG A   1      -8.619  -2.635 126.880  0.00  0.00    -0.000 C 
BRANCH  11  12
ATOM     12  C   LIG A   1      -8.747  -3.742 127.932  0.00  0.00    -0.000 C 
BRANCH  12  13
ATOM     13  C   LIG A   1      -7.889  -3.459 129.163  0.00  0.00    -0.003 C 
ATOM     14  C   LIG A   1      -6.639  -2.663 128.811  0.00  0.00    +0.004 C 
ENDBRANCH  12  13
ENDBRANCH  11  12
ENDBRANCH  10  11
ENDBRANCH   9  10
ENDBRANCH   8   9
ENDBRANCH   1   8
TORSDOF 11
ENDMDL
MODEL 3
REMARK VINA RESULT:      -4.6      1.878      3.734
REMARK  Name = NuBBE_2111
REMARK  12 active torsions:
REMARK  status: ('A' for Active; 'I' for Inactive)
REMARK    1  A    between atoms: C_2  and  C_3
REMARK    2  A    between atoms: C_3  and  C_4
REMARK    3  A    between atoms: C_4  and  C_5
REMARK    4  A    between atoms: C_5  and  C_6
REMARK    5  A    between atoms: C_6  and  C_7
REMARK    6  A    between atoms: C_7  and  C_8
REMARK    7  A    between atoms: C_8  and  C_9
REMARK    8  A    between atoms: C_9  and  C_10
REMARK    9  A    between atoms: C_10  and  C_11
REMARK   10  A    between atoms: C_11  and  C_12
REMARK   11  A    between atoms: C_12  and  C_13
REMARK   12  A    between atoms: C_13  and  C_14
REMARK                            x       y       z     vdW  Elec       q    Type
REMARK                         _______ _______ _______ _____ _____    ______ ____
ROOT
ATOM      1  C   LIG A   1      -9.059  -3.093 126.507  0.00  0.00    -0.000 C 
ENDROOT
BRANCH   1   2
ATOM      2  C   LIG A   1      -8.949  -3.983 127.747  0.00  0.00    +0.000 C 
BRANCH   2   3
ATOM      3  C   LIG A   1      -8.460  -3.239 128.998  0.00  0.00    +0.000 C 
BRANCH   3   4
ATOM      4  C   LIG A   1      -6.936  -3.302 129.130  0.00  0.00    +0.004 C 
BRANCH   4   5
ATOM      5  C   LIG A   1      -6.251  -1.960 128.847  0.00  0.00    +0.026 C 
BRANCH   5   7
ATOM      6  C   LIG A   1      -5.458  -0.882 126.715  0.00  0.00    +0.004 C 
ATOM      7  C   LIG A   1      -5.597  -1.957 127.486  0.00  0.00    -0.035 C 
ENDBRANCH   5   7
ENDBRANCH   4   5
ENDBRANCH   3   4
ENDBRANCH   2   3
ENDBRANCH   1   2
BRANCH   1   8
ATOM      8  C   LIG A   1      -8.208  -3.593 125.339  0.00  0.00    -0.000 C 
BRANCH   8   9
ATOM      9  C   LIG A   1      -8.929  -3.525 123.996  0.00  0.00    -0.000 C 
BRANCH   9  10
ATOM     10  C   LIG A   1      -8.428  -2.361 123.140  0.00  0.00    -0.000 C 
BRANCH  10  11
ATOM     11  C   LIG A   1      -7.054  -1.851 123.566  0.00  0.00    -0.000 C 
BRANCH  11  12
ATOM     12  C   LIG A   1      -5.908  -2.538 122.816  0.00  0.00    -0.000 C 
BRANCH  12  13
ATOM     13  C   LIG A   1      -4.825  -3.039 123.767  0.00  0.00    -0.003 C 
ATOM     14  C   LIG A   1      -4.594  -4.538 123.623  0.00  0.00    +0.004 C 
ENDBRANCH  12  13
ENDBRANCH  11  12
ENDBRANCH  10  11
ENDBRANCH   9  10
ENDBRANCH   8   9
ENDBRANCH   1   8
TORSDOF 11
ENDMDL
MODEL 4
REMARK VINA RESULT:      -4.5      1.875      4.475
REMARK  Name = NuBBE_2111
REMARK  12 active torsions:
REMARK  status: ('A' for Active; 'I' for Inactive)
REMARK    1  A    between atoms: C_2  and  C_3
REMARK    2  A    between atoms: C_3  and  C_4
REMARK    3  A    between atoms: C_4  and  C_5
REMARK    4  A    between atoms: C_5  and  C_6
REMARK    5  A    between atoms: C_6  and  C_7
REMARK    6  A    between atoms: C_7  and  C_8
REMARK    7  A    between atoms: C_8  and  C_9
REMARK    8  A    between atoms: C_9  and  C_10
REMARK    9  A    between atoms: C_10  and  C_11
REMARK   10  A    between atoms: C_11  and  C_12
REMARK   11  A    between atoms: C_12  and  C_13
REMARK   12  A    between atoms: C_13  and  C_14
REMARK                            x       y       z     vdW  Elec       q    Type
REMARK                         _______ _______ _______ _____ _____    ______ ____
ROOT
ATOM      1  C   LIG A   1      -9.567  -3.133 124.495  0.00  0.00    -0.000 C 
ENDROOT
BRANCH   1   2
ATOM      2  C   LIG A   1      -9.350  -2.525 125.883  0.00  0.00    +0.000 C 
BRANCH   2   3
ATOM      3  C   LIG A   1      -8.703  -3.490 126.886  0.00  0.00    +0.000 C 
BRANCH   3   4
ATOM      4  C   LIG A   1      -7.769  -2.755 127.852  0.00  0.00    +0.004 C 
BRANCH   4   5
ATOM      5  C   LIG A   1      -7.778  -3.349 129.265  0.00  0.00    +0.026 C 
BRANCH   5   7
ATOM      6  C   LIG A   1      -5.921  -4.586 130.431  0.00  0.00    +0.004 C 
ATOM      7  C   LIG A   1      -6.373  -3.507 129.798  0.00  0.00    -0.035 C 
ENDBRANCH   5   7
ENDBRANCH   4   5
ENDBRANCH   3   4
ENDBRANCH   2   3
ENDBRANCH   1   2
BRANCH   1   8
ATOM      8  C   LIG A   1      -8.270  -3.270 123.697  0.00  0.00    -0.000 C 
BRANCH   8   9
ATOM      9  C   LIG A   1      -7.996  -2.079 122.784  0.00  0.00    -0.000 C 
BRANCH   9  10
ATOM     10  C   LIG A   1      -6.555  -1.582 122.914  0.00  0.00    -0.000 C 
BRANCH  10  11
ATOM     11  C   LIG A   1      -6.046  -1.590 124.353  0.00  0.00    -0.000 C 
BRANCH  11  12
ATOM     12  C   LIG A   1      -5.218  -2.836 124.682  0.00  0.00    -0.000 C 
BRANCH  12  13
ATOM     13  C   LIG A   1      -4.502  -3.385 123.450  0.00  0.00    -0.003 C 
ATOM     14  C   LIG A   1      -4.319  -4.895 123.528  0.00  0.00    +0.004 C 
ENDBRANCH  12  13
ENDBRANCH  11  12
ENDBRANCH  10  11
ENDBRANCH   9  10
ENDBRANCH   8   9
ENDBRANCH   1   8
TORSDOF 11
ENDMDL
MODEL 5
REMARK VINA RESULT:      -4.5      2.250      4.075
REMARK  Name = NuBBE_2111
REMARK  12 active torsions:
REMARK  status: ('A' for Active; 'I' for Inactive)
REMARK    1  A    between atoms: C_2  and  C_3
REMARK    2  A    between atoms: C_3  and  C_4
REMARK    3  A    between atoms: C_4  and  C_5
REMARK    4  A    between atoms: C_5  and  C_6
REMARK    5  A    between atoms: C_6  and  C_7
REMARK    6  A    between atoms: C_7  and  C_8
REMARK    7  A    between atoms: C_8  and  C_9
REMARK    8  A    between atoms: C_9  and  C_10
REMARK    9  A    between atoms: C_10  and  C_11
REMARK   10  A    between atoms: C_11  and  C_12
REMARK   11  A    between atoms: C_12  and  C_13
REMARK   12  A    between atoms: C_13  and  C_14
REMARK                            x       y       z     vdW  Elec       q    Type
REMARK                         _______ _______ _______ _____ _____    ______ ____
ROOT
ATOM      1  C   LIG A   1      -9.128  -2.968 125.945  0.00  0.00    -0.000 C 
ENDROOT
BRANCH   1   2
ATOM      2  C   LIG A   1      -8.947  -3.745 127.251  0.00  0.00    +0.000 C 
BRANCH   2   3
ATOM      3  C   LIG A   1      -7.805  -3.216 128.131  0.00  0.00    +0.000 C 
BRANCH   3   4
ATOM      4  C   LIG A   1      -8.280  -2.937 129.560  0.00  0.00    +0.004 C 
BRANCH   4   5
ATOM      5  C   LIG A   1      -7.156  -3.036 130.597  0.00  0.00    +0.026 C 
BRANCH   5   7
ATOM      6  C   LIG A   1      -5.615  -5.022 130.751  0.00  0.00    +0.004 C 
ATOM      7  C   LIG A   1      -6.044  -3.937 130.113  0.00  0.00    -0.035 C 
ENDBRANCH   5   7
ENDBRANCH   4   5
ENDBRANCH   3   4
ENDBRANCH   2   3
ENDBRANCH   1   2
BRANCH   1   8
ATOM      8  C   LIG A   1      -8.684  -3.760 124.715  0.00  0.00    -0.000 C 
BRANCH   8   9
ATOM      9  C   LIG A   1      -9.330  -3.275 123.421  0.00  0.00    -0.000 C 
BRANCH   9  10
ATOM     10  C   LIG A   1      -8.796  -1.906 122.997  0.00  0.00    -0.000 C 
BRANCH  10  11
ATOM     11  C   LIG A   1      -7.295  -1.908 122.720  0.00  0.00    -0.000 C 
BRANCH  11  12
ATOM     12  C   LIG A   1      -6.503  -1.078 123.735  0.00  0.00    -0.000 C 
BRANCH  12  13
ATOM     13  C   LIG A   1      -5.426  -1.906 124.432  0.00  0.00    -0.003 C 
ATOM     14  C   LIG A   1      -5.132  -3.198 123.681  0.00  0.00    +0.004 C 
ENDBRANCH  12  13
ENDBRANCH  11  12
ENDBRANCH  10  11
ENDBRANCH   9  10
ENDBRANCH   8   9
ENDBRANCH   1   8
TORSDOF 11
ENDMDL
MODEL 6
REMARK VINA RESULT:      -4.4      1.504      4.628
REMARK  Name = NuBBE_2111
REMARK  12 active torsions:
REMARK  status: ('A' for Active; 'I' for Inactive)
REMARK    1  A    between atoms: C_2  and  C_3
REMARK    2  A    between atoms: C_3  and  C_4
REMARK    3  A    between atoms: C_4  and  C_5
REMARK    4  A    between atoms: C_5  and  C_6
REMARK    5  A    between atoms: C_6  and  C_7
REMARK    6  A    between atoms: C_7  and  C_8
REMARK    7  A    between atoms: C_8  and  C_9
REMARK    8  A    between atoms: C_9  and  C_10
REMARK    9  A    between atoms: C_10  and  C_11
REMARK   10  A    between atoms: C_11  and  C_12
REMARK   11  A    between atoms: C_12  and  C_13
REMARK   12  A    between atoms: C_13  and  C_14
REMARK                            x       y       z     vdW  Elec       q    Type
REMARK                         _______ _______ _______ _____ _____    ______ ____
ROOT
ATOM      1  C   LIG A   1      -8.159  -1.068 127.151  0.00  0.00    -0.000 C 
ENDROOT
BRANCH   1   2
ATOM      2  C   LIG A   1      -8.138  -2.450 127.810  0.00  0.00    +0.000 C 
BRANCH   2   3
ATOM      3  C   LIG A   1      -8.721  -3.563 126.929  0.00  0.00    +0.000 C 
BRANCH   3   4
ATOM      4  C   LIG A   1      -9.321  -3.001 125.636  0.00  0.00    +0.004 C 
BRANCH   4   5
ATOM      5  C   LIG A   1      -8.797  -3.701 124.377  0.00  0.00    +0.026 C 
BRANCH   5   7
ATOM      6  C   LIG A   1      -9.077  -1.530 123.133  0.00  0.00    +0.004 C 
ATOM      7  C   LIG A   1      -9.036  -2.859 123.146  0.00  0.00    -0.035 C 
ENDBRANCH   5   7
ENDBRANCH   4   5
ENDBRANCH   3   4
ENDBRANCH   2   3
ENDBRANCH   1   2
BRANCH   1   8
ATOM      8  C   LIG A   1      -6.933  -0.225 127.498  0.00  0.00    -0.000 C 
BRANCH   8   9
ATOM      9  C   LIG A   1      -5.615  -0.889 127.109  0.00  0.00    -0.000 C 
BRANCH   9  10
ATOM     10  C   LIG A   1      -5.188  -0.516 125.689  0.00  0.00    -0.000 C 
BRANCH  10  11
ATOM     11  C   LIG A   1      -5.793  -1.425 124.622  0.00  0.00    -0.000 C 
BRANCH  11  12
ATOM     12  C   LIG A   1      -5.310  -2.874 124.736  0.00  0.00    -0.000 C 
BRANCH  12  13
ATOM     13  C   LIG A   1      -4.764  -3.398 123.410  0.00  0.00    -0.003 C 
ATOM     14  C   LIG A   1      -4.346  -4.860 123.508  0.00  0.00    +0.004 C 
ENDBRANCH  12  13
ENDBRANCH  11  12
ENDBRANCH  10  11
ENDBRANCH   9  10
ENDBRANCH   8   9
ENDBRANCH   1   8
TORSDOF 11
ENDMDL
MODEL 7
REMARK VINA RESULT:      -4.4      2.497      5.167
REMARK  Name = NuBBE_2111
REMARK  12 active torsions:
REMARK  status: ('A' for Active; 'I' for Inactive)
REMARK    1  A    between atoms: C_2  and  C_3
REMARK    2  A    between atoms: C_3  and  C_4
REMARK    3  A    between atoms: C_4  and  C_5
REMARK    4  A    between atoms: C_5  and  C_6
REMARK    5  A    between atoms: C_6  and  C_7
REMARK    6  A    between atoms: C_7  and  C_8
REMARK    7  A    between atoms: C_8  and  C_9
REMARK    8  A    between atoms: C_9  and  C_10
REMARK    9  A    between atoms: C_10  and  C_11
REMARK   10  A    between atoms: C_11  and  C_12
REMARK   11  A    between atoms: C_12  and  C_13
REMARK   12  A    between atoms: C_13  and  C_14
REMARK                            x       y       z     vdW  Elec       q    Type
REMARK                         _______ _______ _______ _____ _____    ______ ____
ROOT
ATOM      1  C   LIG A   1      -8.619  -2.666 126.579  0.00  0.00    -0.000 C 
ENDROOT
BRANCH   1   2
ATOM      2  C   LIG A   1      -9.041  -2.960 125.138  0.00  0.00    +0.000 C 
BRANCH   2   3
ATOM      3  C   LIG A   1      -7.916  -3.540 124.270  0.00  0.00    +0.000 C 
BRANCH   3   4
ATOM      4  C   LIG A   1      -6.575  -2.860 124.561  0.00  0.00    +0.004 C 
BRANCH   4   5
ATOM      5  C   LIG A   1      -5.700  -2.696 123.313  0.00  0.00    +0.026 C 
BRANCH   5   7
ATOM      6  C   LIG A   1      -4.340  -4.800 123.557  0.00  0.00    +0.004 C 
ATOM      7  C   LIG A   1      -4.414  -3.478 123.441  0.00  0.00    -0.035 C 
ENDBRANCH   5   7
ENDBRANCH   4   5
ENDBRANCH   3   4
ENDBRANCH   2   3
ENDBRANCH   1   2
BRANCH   1   8
ATOM      8  C   LIG A   1      -8.590  -3.916 127.457  0.00  0.00    -0.000 C 
BRANCH   8   9
ATOM      9  C   LIG A   1      -8.793  -3.616 128.939  0.00  0.00    -0.000 C 
BRANCH   9  10
ATOM     10  C   LIG A   1      -7.812  -2.557 129.445  0.00  0.00    -0.000 C 
BRANCH  10  11
ATOM     11  C   LIG A   1      -6.957  -3.041 130.613  0.00  0.00    -0.000 C 
BRANCH  11  12
ATOM     12  C   LIG A   1      -6.092  -4.253 130.251  0.00  0.00    -0.000 C 
BRANCH  12  13
ATOM     13  C   LIG A   1      -4.602  -3.927 130.306  0.00  0.00    -0.003 C 
ATOM     14  C   LIG A   1      -4.099  -3.353 128.988  0.00  0.00    +0.004 C 
ENDBRANCH  12  13
ENDBRANCH  11  12
ENDBRANCH  10  11
ENDBRANCH   9  10
ENDBRANCH   8   9
ENDBRANCH   1   8
TORSDOF 11
ENDMDL
MODEL 8
REMARK VINA RESULT:      -4.3      1.433      3.871
REMARK  Name = NuBBE_2111
REMARK  12 active torsions:
REMARK  status: ('A' for Active; 'I' for Inactive)
REMARK    1  A    between atoms: C_2  and  C_3
REMARK    2  A    between atoms: C_3  and  C_4
REMARK    3  A    between atoms: C_4  and  C_5
REMARK    4  A    between atoms: C_5  and  C_6
REMARK    5  A    between atoms: C_6  and  C_7
REMARK    6  A    between atoms: C_7  and  C_8
REMARK    7  A    between atoms: C_8  and  C_9
REMARK    8  A    between atoms: C_9  and  C_10
REMARK    9  A    between atoms: C_10  and  C_11
REMARK   10  A    between atoms: C_11  and  C_12
REMARK   11  A    between atoms: C_12  and  C_13
REMARK   12  A    between atoms: C_13  and  C_14
REMARK                            x       y       z     vdW  Elec       q    Type
REMARK                         _______ _______ _______ _____ _____    ______ ____
ROOT
ATOM      1  C   LIG A   1      -6.402  -1.292 123.276  0.00  0.00    -0.000 C 
ENDROOT
BRANCH   1   2
ATOM      2  C   LIG A   1      -7.559  -2.223 122.905  0.00  0.00    +0.000 C 
BRANCH   2   3
ATOM      3  C   LIG A   1      -7.841  -3.306 123.955  0.00  0.00    +0.000 C 
BRANCH   3   4
ATOM      4  C   LIG A   1      -9.323  -3.343 124.341  0.00  0.00    +0.004 C 
BRANCH   4   5
ATOM      5  C   LIG A   1      -9.590  -2.811 125.754  0.00  0.00    +0.026 C 
BRANCH   5   7
ATOM      6  C   LIG A   1      -8.021  -2.848 127.722  0.00  0.00    +0.004 C 
ATOM      7  C   LIG A   1      -8.695  -3.483 126.768  0.00  0.00    -0.035 C 
ENDBRANCH   5   7
ENDBRANCH   4   5
ENDBRANCH   3   4
ENDBRANCH   2   3
ENDBRANCH   1   2
BRANCH   1   8
ATOM      8  C   LIG A   1      -5.805  -1.603 124.649  0.00  0.00    -0.000 C 
BRANCH   8   9
ATOM      9  C   LIG A   1      -5.936  -0.450 125.638  0.00  0.00    -0.000 C 
BRANCH   9  10
ATOM     10  C   LIG A   1      -6.980   0.572 125.185  0.00  0.00    -0.000 C 
BRANCH  10  11
ATOM     11  C   LIG A   1      -8.286   0.483 125.971  0.00  0.00    -0.000 C 
BRANCH  11  12
ATOM     12  C   LIG A   1      -9.517   0.782 125.109  0.00  0.00    -0.000 C 
BRANCH  12  13
ATOM     13  C   LIG A   1      -9.135   1.158 123.680  0.00  0.00    -0.003 C 
ATOM     14  C   LIG A   1     -10.095   0.558 122.660  0.00  0.00    +0.004 C 
ENDBRANCH  12  13
ENDBRANCH  11  12
ENDBRANCH  10  11
ENDBRANCH   9  10
ENDBRANCH   8   9
ENDBRANCH   1   8
TORSDOF 11
ENDMDL
MODEL 9
REMARK VINA RESULT:      -4.2      1.633      4.080
REMARK  Name = NuBBE_2111
REMARK  12 active torsions:
REMARK  status: ('A' for Active; 'I' for Inactive)
REMARK    1  A    between atoms: C_2  and  C_3
REMARK    2  A    between atoms: C_3  and  C_4
REMARK    3  A    between atoms: C_4  and  C_5
REMARK    4  A    between atoms: C_5  and  C_6
REMARK    5  A    between atoms: C_6  and  C_7
REMARK    6  A    between atoms: C_7  and  C_8
REMARK    7  A    between atoms: C_8  and  C_9
REMARK    8  A    between atoms: C_9  and  C_10
REMARK    9  A    between atoms: C_10  and  C_11
REMARK   10  A    between atoms: C_11  and  C_12
REMARK   11  A    between atoms: C_12  and  C_13
REMARK   12  A    between atoms: C_13  and  C_14
REMARK                            x       y       z     vdW  Elec       q    Type
REMARK                         _______ _______ _______ _____ _____    ______ ____
ROOT
ATOM      1  C   LIG A   1      -8.877  -1.243 124.978  0.00  0.00    -0.000 C 
ENDROOT
BRANCH   1   2
ATOM      2  C   LIG A   1      -8.767  -2.749 125.230  0.00  0.00    +0.000 C 
BRANCH   2   3
ATOM      3  C   LIG A   1      -7.770  -3.459 124.304  0.00  0.00    +0.000 C 
BRANCH   3   4
ATOM      4  C   LIG A   1      -7.067  -2.469 123.370  0.00  0.00    +0.004 C 
BRANCH   4   5
ATOM      5  C   LIG A   1      -5.540  -2.508 123.492  0.00  0.00    +0.026 C 
BRANCH   5   7
ATOM      6  C   LIG A   1      -4.245  -4.667 123.518  0.00  0.00    +0.004 C 
ATOM      7  C   LIG A   1      -5.074  -3.808 124.104  0.00  0.00    -0.035 C 
ENDBRANCH   5   7
ENDBRANCH   4   5
ENDBRANCH   3   4
ENDBRANCH   2   3
ENDBRANCH   1   2
BRANCH   1   8
ATOM      8  C   LIG A   1      -8.415  -0.405 126.170  0.00  0.00    -0.000 C 
BRANCH   8   9
ATOM      9  C   LIG A   1      -6.897  -0.320 126.294  0.00  0.00    -0.000 C 
BRANCH   9  10
ATOM     10  C   LIG A   1      -6.414  -0.741 127.682  0.00  0.00    -0.000 C 
BRANCH  10  11
ATOM     11  C   LIG A   1      -5.876  -2.169 127.722  0.00  0.00    -0.000 C 
BRANCH  11  12
ATOM     12  C   LIG A   1      -6.453  -2.987 128.883  0.00  0.00    -0.000 C 
BRANCH  12  13
ATOM     13  C   LIG A   1      -7.932  -2.689 129.109  0.00  0.00    -0.003 C 
ATOM     14  C   LIG A   1      -8.825  -3.779 128.530  0.00  0.00    +0.004 C 
ENDBRANCH  12  13
ENDBRANCH  11  12
ENDBRANCH  10  11
ENDBRANCH   9  10
ENDBRANCH   8   9
ENDBRANCH   1   8
TORSDOF 11
ENDMDL
