MODEL 1
REMARK VINA RESULT:      -7.8      0.000      0.000
REMARK  Name = NuBBE_1260
REMARK  24 active torsions:
REMARK  status: ('A' for Active; 'I' for Inactive)
REMARK    1  A    between atoms: C_3  and  C_4
REMARK    2  A    between atoms: C_4  and  C_5
REMARK    3  A    between atoms: C_4  and  C_8
REMARK    4  A    between atoms: C_5  and  C_6
REMARK    5  A    between atoms: C_6  and  C_7
REMARK    6  A    between atoms: C_8  and  C_9
REMARK    7  A    between atoms: C_9  and  O_10
REMARK    8  A    between atoms: O_10  and  C_11
REMARK    9  A    between atoms: C_15  and  C_17
REMARK   10  A    between atoms: C_18  and  C_20
REMARK   11  A    between atoms: C_24  and  O_25
REMARK   12  A    between atoms: O_25  and  C_26
REMARK   13  A    between atoms: C_27  and  C_28
REMARK   14  A    between atoms: C_27  and  C_33
REMARK   15  A    between atoms: C_28  and  C_29
REMARK   16  A    between atoms: C_30  and  C_31
REMARK   17  A    between atoms: C_30  and  C_32
REMARK   18  A    between atoms: C_33  and  C_34
REMARK   19  A    between atoms: C_34  and  C_35
REMARK   20  A    between atoms: C_34  and  C_40
REMARK   21  A    between atoms: C_35  and  C_36
REMARK   22  A    between atoms: C_37  and  C_38
REMARK   23  A    between atoms: C_37  and  C_39
REMARK   24  A    between atoms: C_40  and  C_41
REMARK                            x       y       z     vdW  Elec       q    Type
REMARK                         _______ _______ _______ _____ _____    ______ ____
ROOT
ATOM      1  O   LIG A   1      -8.819   1.309 129.824  0.00  0.00    -0.291 OA
ATOM      2  C   LIG A   1      -8.164   1.972 129.017  0.00  0.00    +0.177 C 
ATOM      3  C   LIG A   1      -7.838   3.399 129.417  0.00  0.00    +0.042 C 
ATOM      4  C   LIG A   1      -6.895   3.986 128.665  0.00  0.00    +0.141 C 
ATOM      5  O   LIG A   1      -6.159   5.101 129.102  0.00  0.00    -0.487 OA
ATOM      6  C   LIG A   1      -4.739   4.874 128.842  0.00  0.00    +0.181 C 
ATOM      7  C   LIG A   1      -3.880   5.881 129.582  0.00  0.00    +0.052 C 
ATOM      8  C   LIG A   1      -4.422   5.000 127.342  0.00  0.00    +0.098 C 
ATOM      9  C   LIG A   1      -3.117   4.228 127.013  0.00  0.00    +0.020 C 
ATOM     10  C   LIG A   1      -5.703   4.548 126.626  0.00  0.00    +0.176 C 
ATOM     11  O   LIG A   1      -6.020   4.916 125.507  0.00  0.00    -0.291 OA
ATOM     12  C   LIG A   1      -6.471   3.491 127.383  0.00  0.00    +0.098 C 
ATOM     13  C   LIG A   1      -6.624   2.210 126.971  0.00  0.00    +0.125 C 
ATOM     14  C   LIG A   1      -7.619   1.249 127.682  0.00  0.00    +0.095 C 
ENDROOT
BRANCH  13  15
ATOM     15  O   LIG A   1      -5.999   1.694 125.834  0.00  0.00    -0.497 OA
ATOM     16  C   LIG A   1      -4.671   1.217 126.019  0.00  0.00    +0.276 C 
ENDBRANCH  13  15
BRANCH   3  17
ATOM     17  C   LIG A   1      -8.410   4.053 130.708  0.00  0.00    +0.037 C 
BRANCH  17  18
ATOM     18  C   LIG A   1      -7.461   3.946 131.946  0.00  0.00    +0.009 C 
BRANCH  18  19
ATOM     19  C   LIG A   1      -7.936   3.126 133.152  0.00  0.00    -0.003 C 
ATOM     20  C   LIG A   1      -8.982   3.813 134.010  0.00  0.00    +0.004 C 
ENDBRANCH  18  19
ENDBRANCH  17  18
BRANCH  17  21
ATOM     21  C   LIG A   1      -9.002   5.478 130.598  0.00  0.00    +0.129 C 
BRANCH  21  22
ATOM     22  C   LIG A   1      -9.938   5.646 129.467  0.00  0.00    +0.307 C 
ATOM     23  O   LIG A   1      -9.650   6.250 128.378  0.00  0.00    -0.251 OA
BRANCH  22  24
ATOM     24  O   LIG A   1     -11.184   5.231 129.770  0.00  0.00    -0.468 OA
ATOM     25  C   LIG A   1     -12.149   6.236 129.543  0.00  0.00    +0.280 C 
ENDBRANCH  22  24
ENDBRANCH  21  22
ENDBRANCH  17  21
ENDBRANCH   3  17
BRANCH  14  26
ATOM     26  C   LIG A   1      -8.911   1.084 126.791  0.00  0.00    +0.049 C 
BRANCH  26  27
ATOM     27  C   LIG A   1      -8.908   0.190 125.560  0.00  0.00    -0.027 C 
ATOM     28  C   LIG A   1      -9.103   0.660 124.306  0.00  0.00    -0.080 C 
ATOM     29  C   LIG A   1      -9.197   2.133 124.001  0.00  0.00    +0.038 C 
ATOM     30  C   LIG A   1      -9.293  -0.241 123.112  0.00  0.00    +0.038 C 
ENDBRANCH  26  27
ENDBRANCH  14  26
BRANCH  14  31
ATOM     31  C   LIG A   1      -7.141  -0.212 128.271  0.00  0.00    +0.031 C 
BRANCH  31  32
ATOM     32  C   LIG A   1      -7.371  -1.652 127.639  0.00  0.00    +0.019 C 
BRANCH  32  33
ATOM     33  C   LIG A   1      -8.022  -2.689 128.648  0.00  0.00    -0.076 C 
ATOM     34  C   LIG A   1      -8.845  -3.857 128.112  0.00  0.00    +0.038 C 
ATOM     35  C   LIG A   1      -7.881  -2.698 129.989  0.00  0.00    +0.007 C 
ENDBRANCH  32  33
BRANCH  32  36
ATOM     36  C   LIG A   1      -6.070  -2.163 126.949  0.00  0.00    +0.035 C 
BRANCH  36  37
ATOM     37  C   LIG A   1      -5.881  -1.893 125.473  0.00  0.00    -0.027 C 
ATOM     38  C   LIG A   1      -6.504  -2.510 124.443  0.00  0.00    -0.080 C 
ATOM     39  C   LIG A   1      -7.577  -3.556 124.590  0.00  0.00    +0.038 C 
ATOM     40  C   LIG A   1      -6.095  -2.220 123.020  0.00  0.00    +0.038 C 
ENDBRANCH  36  37
ENDBRANCH  32  36
ENDBRANCH  31  32
ENDBRANCH  14  31
TORSDOF 14
ENDMDL
MODEL 2
REMARK VINA RESULT:      -7.8      2.126      5.736
REMARK  Name = NuBBE_1260
REMARK  24 active torsions:
REMARK  status: ('A' for Active; 'I' for Inactive)
REMARK    1  A    between atoms: C_3  and  C_4
REMARK    2  A    between atoms: C_4  and  C_5
REMARK    3  A    between atoms: C_4  and  C_8
REMARK    4  A    between atoms: C_5  and  C_6
REMARK    5  A    between atoms: C_6  and  C_7
REMARK    6  A    between atoms: C_8  and  C_9
REMARK    7  A    between atoms: C_9  and  O_10
REMARK    8  A    between atoms: O_10  and  C_11
REMARK    9  A    between atoms: C_15  and  C_17
REMARK   10  A    between atoms: C_18  and  C_20
REMARK   11  A    between atoms: C_24  and  O_25
REMARK   12  A    between atoms: O_25  and  C_26
REMARK   13  A    between atoms: C_27  and  C_28
REMARK   14  A    between atoms: C_27  and  C_33
REMARK   15  A    between atoms: C_28  and  C_29
REMARK   16  A    between atoms: C_30  and  C_31
REMARK   17  A    between atoms: C_30  and  C_32
REMARK   18  A    between atoms: C_33  and  C_34
REMARK   19  A    between atoms: C_34  and  C_35
REMARK   20  A    between atoms: C_34  and  C_40
REMARK   21  A    between atoms: C_35  and  C_36
REMARK   22  A    between atoms: C_37  and  C_38
REMARK   23  A    between atoms: C_37  and  C_39
REMARK   24  A    between atoms: C_40  and  C_41
REMARK                            x       y       z     vdW  Elec       q    Type
REMARK                         _______ _______ _______ _____ _____    ______ ____
ROOT
ATOM      1  O   LIG A   1      -6.023   0.953 126.337  0.00  0.00    -0.291 OA
ATOM      2  C   LIG A   1      -6.203   1.415 127.466  0.00  0.00    +0.177 C 
ATOM      3  C   LIG A   1      -6.203   2.927 127.589  0.00  0.00    +0.042 C 
ATOM      4  C   LIG A   1      -6.683   3.391 128.752  0.00  0.00    +0.141 C 
ATOM      5  O   LIG A   1      -7.160   4.704 128.909  0.00  0.00    -0.487 OA
ATOM      6  C   LIG A   1      -8.449   4.670 129.594  0.00  0.00    +0.181 C 
ATOM      7  C   LIG A   1      -9.156   6.009 129.496  0.00  0.00    +0.052 C 
ATOM      8  C   LIG A   1      -8.277   4.340 131.087  0.00  0.00    +0.098 C 
ATOM      9  C   LIG A   1      -9.600   3.760 131.654  0.00  0.00    +0.020 C 
ATOM     10  C   LIG A   1      -7.033   3.443 131.154  0.00  0.00    +0.176 C 
ATOM     11  O   LIG A   1      -6.320   3.347 132.138  0.00  0.00    -0.291 OA
ATOM     12  C   LIG A   1      -6.850   2.580 129.929  0.00  0.00    +0.098 C 
ATOM     13  C   LIG A   1      -6.962   1.231 129.916  0.00  0.00    +0.125 C 
ATOM     14  C   LIG A   1      -6.531   0.398 128.675  0.00  0.00    +0.095 C 
ENDROOT
BRANCH  13  15
ATOM     15  O   LIG A   1      -7.359   0.487 131.029  0.00  0.00    -0.497 OA
ATOM     16  C   LIG A   1      -8.764   0.351 131.213  0.00  0.00    +0.276 C 
ENDBRANCH  13  15
BRANCH   3  17
ATOM     17  C   LIG A   1      -5.859   3.860 126.391  0.00  0.00    +0.037 C 
BRANCH  17  18
ATOM     18  C   LIG A   1      -4.363   3.791 125.942  0.00  0.00    +0.009 C 
BRANCH  18  19
ATOM     19  C   LIG A   1      -3.285   3.710 127.029  0.00  0.00    -0.003 C 
ATOM     20  C   LIG A   1      -1.963   3.128 126.565  0.00  0.00    +0.004 C 
ENDBRANCH  18  19
ENDBRANCH  17  18
BRANCH  17  21
ATOM     21  C   LIG A   1      -6.797   3.836 125.161  0.00  0.00    +0.129 C 
BRANCH  21  22
ATOM     22  C   LIG A   1      -8.201   4.172 125.479  0.00  0.00    +0.307 C 
ATOM     23  O   LIG A   1      -8.586   5.308 125.922  0.00  0.00    -0.251 OA
BRANCH  22  24
ATOM     24  O   LIG A   1      -9.012   3.099 125.403  0.00  0.00    -0.468 OA
ATOM     25  C   LIG A   1      -8.913   2.445 124.156  0.00  0.00    +0.280 C 
ENDBRANCH  22  24
ENDBRANCH  21  22
ENDBRANCH  17  21
ENDBRANCH   3  17
BRANCH  14  26
ATOM     26  C   LIG A   1      -5.143  -0.295 128.969  0.00  0.00    +0.049 C 
BRANCH  26  27
ATOM     27  C   LIG A   1      -4.568  -0.336 130.376  0.00  0.00    -0.027 C 
ATOM     28  C   LIG A   1      -3.730  -1.308 130.803  0.00  0.00    -0.080 C 
ATOM     29  C   LIG A   1      -3.175  -2.360 129.878  0.00  0.00    +0.038 C 
ATOM     30  C   LIG A   1      -3.314  -1.459 132.245  0.00  0.00    +0.038 C 
ENDBRANCH  26  27
ENDBRANCH  14  26
BRANCH  14  31
ATOM     31  C   LIG A   1      -7.555  -0.662 127.944  0.00  0.00    +0.031 C 
BRANCH  31  32
ATOM     32  C   LIG A   1      -7.321  -2.203 127.633  0.00  0.00    +0.019 C 
BRANCH  32  33
ATOM     33  C   LIG A   1      -7.671  -2.607 126.140  0.00  0.00    -0.076 C 
ATOM     34  C   LIG A   1      -6.612  -2.476 125.048  0.00  0.00    +0.038 C 
ATOM     35  C   LIG A   1      -8.833  -3.136 125.705  0.00  0.00    +0.007 C 
ENDBRANCH  32  33
BRANCH  32  36
ATOM     36  C   LIG A   1      -8.008  -3.092 128.714  0.00  0.00    +0.035 C 
BRANCH  36  37
ATOM     37  C   LIG A   1      -7.686  -2.839 130.169  0.00  0.00    -0.027 C 
ATOM     38  C   LIG A   1      -6.779  -3.492 130.931  0.00  0.00    -0.080 C 
ATOM     39  C   LIG A   1      -5.853  -4.569 130.432  0.00  0.00    +0.038 C 
ATOM     40  C   LIG A   1      -6.680  -3.211 132.410  0.00  0.00    +0.038 C 
ENDBRANCH  36  37
ENDBRANCH  32  36
ENDBRANCH  31  32
ENDBRANCH  14  31
TORSDOF 14
ENDMDL
MODEL 3
REMARK VINA RESULT:      -7.7      2.849      4.920
REMARK  Name = NuBBE_1260
REMARK  24 active torsions:
REMARK  status: ('A' for Active; 'I' for Inactive)
REMARK    1  A    between atoms: C_3  and  C_4
REMARK    2  A    between atoms: C_4  and  C_5
REMARK    3  A    between atoms: C_4  and  C_8
REMARK    4  A    between atoms: C_5  and  C_6
REMARK    5  A    between atoms: C_6  and  C_7
REMARK    6  A    between atoms: C_8  and  C_9
REMARK    7  A    between atoms: C_9  and  O_10
REMARK    8  A    between atoms: O_10  and  C_11
REMARK    9  A    between atoms: C_15  and  C_17
REMARK   10  A    between atoms: C_18  and  C_20
REMARK   11  A    between atoms: C_24  and  O_25
REMARK   12  A    between atoms: O_25  and  C_26
REMARK   13  A    between atoms: C_27  and  C_28
REMARK   14  A    between atoms: C_27  and  C_33
REMARK   15  A    between atoms: C_28  and  C_29
REMARK   16  A    between atoms: C_30  and  C_31
REMARK   17  A    between atoms: C_30  and  C_32
REMARK   18  A    between atoms: C_33  and  C_34
REMARK   19  A    between atoms: C_34  and  C_35
REMARK   20  A    between atoms: C_34  and  C_40
REMARK   21  A    between atoms: C_35  and  C_36
REMARK   22  A    between atoms: C_37  and  C_38
REMARK   23  A    between atoms: C_37  and  C_39
REMARK   24  A    between atoms: C_40  and  C_41
REMARK                            x       y       z     vdW  Elec       q    Type
REMARK                         _______ _______ _______ _____ _____    ______ ____
ROOT
ATOM      1  O   LIG A   1      -9.667   2.895 129.072  0.00  0.00    -0.291 OA
ATOM      2  C   LIG A   1      -8.479   3.184 129.235  0.00  0.00    +0.177 C 
ATOM      3  C   LIG A   1      -8.189   4.527 129.879  0.00  0.00    +0.042 C 
ATOM      4  C   LIG A   1      -6.926   4.680 130.303  0.00  0.00    +0.141 C 
ATOM      5  O   LIG A   1      -6.558   5.627 131.272  0.00  0.00    -0.487 OA
ATOM      6  C   LIG A   1      -5.707   4.989 132.273  0.00  0.00    +0.181 C 
ATOM      7  C   LIG A   1      -5.555   5.866 133.501  0.00  0.00    +0.052 C 
ATOM      8  C   LIG A   1      -4.299   4.717 131.714  0.00  0.00    +0.098 C 
ATOM      9  C   LIG A   1      -3.622   3.581 132.525  0.00  0.00    +0.020 C 
ATOM     10  C   LIG A   1      -4.508   4.479 130.212  0.00  0.00    +0.176 C 
ATOM     11  O   LIG A   1      -3.650   4.679 129.369  0.00  0.00    -0.291 OA
ATOM     12  C   LIG A   1      -5.836   3.838 129.886  0.00  0.00    +0.098 C 
ATOM     13  C   LIG A   1      -5.984   2.586 129.393  0.00  0.00    +0.125 C 
ATOM     14  C   LIG A   1      -7.358   2.085 128.865  0.00  0.00    +0.095 C 
ENDROOT
BRANCH  13  15
ATOM     15  O   LIG A   1      -4.916   1.702 129.221  0.00  0.00    -0.497 OA
ATOM     16  C   LIG A   1      -4.563   0.928 130.361  0.00  0.00    +0.276 C 
ENDBRANCH  13  15
BRANCH   3  17
ATOM     17  C   LIG A   1      -9.311   5.557 130.196  0.00  0.00    +0.037 C 
BRANCH  17  18
ATOM     18  C   LIG A   1      -9.800   6.367 128.952  0.00  0.00    +0.009 C 
BRANCH  18  19
ATOM     19  C   LIG A   1      -9.986   7.882 129.102  0.00  0.00    -0.003 C 
ATOM     20  C   LIG A   1     -10.940   8.503 128.100  0.00  0.00    +0.004 C 
ENDBRANCH  18  19
ENDBRANCH  17  18
BRANCH  17  21
ATOM     21  C   LIG A   1     -10.516   5.080 131.042  0.00  0.00    +0.129 C 
BRANCH  21  22
ATOM     22  C   LIG A   1     -11.131   6.149 131.856  0.00  0.00    +0.307 C 
ATOM     23  O   LIG A   1     -10.540   6.750 132.818  0.00  0.00    -0.251 OA
BRANCH  22  24
ATOM     24  O   LIG A   1     -12.439   6.313 131.579  0.00  0.00    -0.468 OA
ATOM     25  C   LIG A   1     -12.796   7.676 131.492  0.00  0.00    +0.280 C 
ENDBRANCH  22  24
ENDBRANCH  21  22
ENDBRANCH  17  21
ENDBRANCH   3  17
BRANCH  14  26
ATOM     26  C   LIG A   1      -7.341   2.084 127.286  0.00  0.00    +0.049 C 
BRANCH  26  27
ATOM     27  C   LIG A   1      -6.373   2.965 126.511  0.00  0.00    -0.027 C 
ATOM     28  C   LIG A   1      -6.751   4.101 125.882  0.00  0.00    -0.080 C 
ATOM     29  C   LIG A   1      -8.138   4.675 126.013  0.00  0.00    +0.038 C 
ATOM     30  C   LIG A   1      -5.841   4.869 124.956  0.00  0.00    +0.038 C 
ENDBRANCH  26  27
ENDBRANCH  14  26
BRANCH  14  31
ATOM     31  C   LIG A   1      -8.052   0.704 129.429  0.00  0.00    +0.031 C 
BRANCH  31  32
ATOM     32  C   LIG A   1      -7.943   0.069 130.882  0.00  0.00    +0.019 C 
BRANCH  32  33
ATOM     33  C   LIG A   1      -7.557  -1.470 130.872  0.00  0.00    -0.076 C 
ATOM     34  C   LIG A   1      -6.847  -2.084 132.076  0.00  0.00    +0.038 C 
ATOM     35  C   LIG A   1      -7.846  -2.362 129.903  0.00  0.00    +0.007 C 
ENDBRANCH  32  33
BRANCH  32  36
ATOM     36  C   LIG A   1      -9.210   0.404 131.726  0.00  0.00    +0.035 C 
BRANCH  36  37
ATOM     37  C   LIG A   1      -9.317   1.774 132.356  0.00  0.00    -0.027 C 
ATOM     38  C   LIG A   1      -8.394   2.393 133.128  0.00  0.00    -0.080 C 
ATOM     39  C   LIG A   1      -7.030   1.839 133.447  0.00  0.00    +0.038 C 
ATOM     40  C   LIG A   1      -8.716   3.705 133.799  0.00  0.00    +0.038 C 
ENDBRANCH  36  37
ENDBRANCH  32  36
ENDBRANCH  31  32
ENDBRANCH  14  31
TORSDOF 14
ENDMDL
MODEL 4
REMARK VINA RESULT:      -7.5      1.870      3.332
REMARK  Name = NuBBE_1260
REMARK  24 active torsions:
REMARK  status: ('A' for Active; 'I' for Inactive)
REMARK    1  A    between atoms: C_3  and  C_4
REMARK    2  A    between atoms: C_4  and  C_5
REMARK    3  A    between atoms: C_4  and  C_8
REMARK    4  A    between atoms: C_5  and  C_6
REMARK    5  A    between atoms: C_6  and  C_7
REMARK    6  A    between atoms: C_8  and  C_9
REMARK    7  A    between atoms: C_9  and  O_10
REMARK    8  A    between atoms: O_10  and  C_11
REMARK    9  A    between atoms: C_15  and  C_17
REMARK   10  A    between atoms: C_18  and  C_20
REMARK   11  A    between atoms: C_24  and  O_25
REMARK   12  A    between atoms: O_25  and  C_26
REMARK   13  A    between atoms: C_27  and  C_28
REMARK   14  A    between atoms: C_27  and  C_33
REMARK   15  A    between atoms: C_28  and  C_29
REMARK   16  A    between atoms: C_30  and  C_31
REMARK   17  A    between atoms: C_30  and  C_32
REMARK   18  A    between atoms: C_33  and  C_34
REMARK   19  A    between atoms: C_34  and  C_35
REMARK   20  A    between atoms: C_34  and  C_40
REMARK   21  A    between atoms: C_35  and  C_36
REMARK   22  A    between atoms: C_37  and  C_38
REMARK   23  A    between atoms: C_37  and  C_39
REMARK   24  A    between atoms: C_40  and  C_41
REMARK                            x       y       z     vdW  Elec       q    Type
REMARK                         _______ _______ _______ _____ _____    ______ ____
ROOT
ATOM      1  O   LIG A   1      -9.228   2.753 130.119  0.00  0.00    -0.291 OA
ATOM      2  C   LIG A   1      -8.219   3.309 129.677  0.00  0.00    +0.177 C 
ATOM      3  C   LIG A   1      -7.959   4.725 130.157  0.00  0.00    +0.042 C 
ATOM      4  C   LIG A   1      -6.726   5.183 129.894  0.00  0.00    +0.141 C 
ATOM      5  O   LIG A   1      -6.148   6.255 130.595  0.00  0.00    -0.487 OA
ATOM      6  C   LIG A   1      -4.791   5.894 130.997  0.00  0.00    +0.181 C 
ATOM      7  C   LIG A   1      -4.248   6.867 132.026  0.00  0.00    +0.052 C 
ATOM      8  C   LIG A   1      -3.834   5.902 129.792  0.00  0.00    +0.098 C 
ATOM      9  C   LIG A   1      -2.604   5.004 130.091  0.00  0.00    +0.020 C 
ATOM     10  C   LIG A   1      -4.706   5.518 128.589  0.00  0.00    +0.176 C 
ATOM     11  O   LIG A   1      -4.458   5.844 127.441  0.00  0.00    -0.291 OA
ATOM     12  C   LIG A   1      -5.833   4.578 128.943  0.00  0.00    +0.098 C 
ATOM     13  C   LIG A   1      -5.920   3.292 128.527  0.00  0.00    +0.125 C 
ATOM     14  C   LIG A   1      -7.219   2.463 128.736  0.00  0.00    +0.095 C 
ENDROOT
BRANCH  13  15
ATOM     15  O   LIG A   1      -4.914   2.657 127.794  0.00  0.00    -0.497 OA
ATOM     16  C   LIG A   1      -3.861   2.083 128.558  0.00  0.00    +0.276 C 
ENDBRANCH  13  15
BRANCH   3  17
ATOM     17  C   LIG A   1      -8.971   5.500 131.049  0.00  0.00    +0.037 C 
BRANCH  17  18
ATOM     18  C   LIG A   1      -8.664   5.415 132.580  0.00  0.00    +0.009 C 
BRANCH  18  19
ATOM     19  C   LIG A   1      -9.250   4.239 133.370  0.00  0.00    -0.003 C 
ATOM     20  C   LIG A   1      -8.282   3.097 133.615  0.00  0.00    +0.004 C 
ENDBRANCH  18  19
ENDBRANCH  17  18
BRANCH  17  21
ATOM     21  C   LIG A   1      -9.327   6.952 130.647  0.00  0.00    +0.129 C 
BRANCH  21  22
ATOM     22  C   LIG A   1     -10.191   7.040 129.451  0.00  0.00    +0.307 C 
ATOM     23  O   LIG A   1     -10.969   6.106 129.054  0.00  0.00    -0.251 OA
BRANCH  22  24
ATOM     24  O   LIG A   1      -9.954   8.154 128.732  0.00  0.00    -0.468 OA
ATOM     25  C   LIG A   1     -10.780   8.236 127.590  0.00  0.00    +0.280 C 
ENDBRANCH  22  24
ENDBRANCH  21  22
ENDBRANCH  17  21
ENDBRANCH   3  17
BRANCH  14  26
ATOM     26  C   LIG A   1      -7.996   2.355 127.366  0.00  0.00    +0.049 C 
BRANCH  26  27
ATOM     27  C   LIG A   1      -8.761   1.094 126.994  0.00  0.00    -0.027 C 
ATOM     28  C   LIG A   1      -8.214   0.082 126.282  0.00  0.00    -0.080 C 
ATOM     29  C   LIG A   1      -6.753   0.049 125.916  0.00  0.00    +0.038 C 
ATOM     30  C   LIG A   1      -9.020  -1.075 125.747  0.00  0.00    +0.038 C 
ENDBRANCH  26  27
ENDBRANCH  14  26
BRANCH  14  31
ATOM     31  C   LIG A   1      -7.203   1.005 129.500  0.00  0.00    +0.031 C 
BRANCH  31  32
ATOM     32  C   LIG A   1      -6.988   0.706 131.046  0.00  0.00    +0.019 C 
BRANCH  32  33
ATOM     33  C   LIG A   1      -5.499   0.949 131.536  0.00  0.00    -0.076 C 
ATOM     34  C   LIG A   1      -5.076   2.330 132.029  0.00  0.00    +0.038 C 
ATOM     35  C   LIG A   1      -4.525   0.021 131.630  0.00  0.00    +0.007 C 
ENDBRANCH  32  33
BRANCH  32  36
ATOM     36  C   LIG A   1      -7.564  -0.693 131.421  0.00  0.00    +0.035 C 
BRANCH  36  37
ATOM     37  C   LIG A   1      -8.147  -1.553 130.322  0.00  0.00    -0.027 C 
ATOM     38  C   LIG A   1      -7.631  -2.698 129.820  0.00  0.00    -0.080 C 
ATOM     39  C   LIG A   1      -6.387  -3.376 130.329  0.00  0.00    +0.038 C 
ATOM     40  C   LIG A   1      -8.267  -3.361 128.622  0.00  0.00    +0.038 C 
ENDBRANCH  36  37
ENDBRANCH  32  36
ENDBRANCH  31  32
ENDBRANCH  14  31
TORSDOF 14
ENDMDL
MODEL 5
REMARK VINA RESULT:      -7.5      2.190      5.483
REMARK  Name = NuBBE_1260
REMARK  24 active torsions:
REMARK  status: ('A' for Active; 'I' for Inactive)
REMARK    1  A    between atoms: C_3  and  C_4
REMARK    2  A    between atoms: C_4  and  C_5
REMARK    3  A    between atoms: C_4  and  C_8
REMARK    4  A    between atoms: C_5  and  C_6
REMARK    5  A    between atoms: C_6  and  C_7
REMARK    6  A    between atoms: C_8  and  C_9
REMARK    7  A    between atoms: C_9  and  O_10
REMARK    8  A    between atoms: O_10  and  C_11
REMARK    9  A    between atoms: C_15  and  C_17
REMARK   10  A    between atoms: C_18  and  C_20
REMARK   11  A    between atoms: C_24  and  O_25
REMARK   12  A    between atoms: O_25  and  C_26
REMARK   13  A    between atoms: C_27  and  C_28
REMARK   14  A    between atoms: C_27  and  C_33
REMARK   15  A    between atoms: C_28  and  C_29
REMARK   16  A    between atoms: C_30  and  C_31
REMARK   17  A    between atoms: C_30  and  C_32
REMARK   18  A    between atoms: C_33  and  C_34
REMARK   19  A    between atoms: C_34  and  C_35
REMARK   20  A    between atoms: C_34  and  C_40
REMARK   21  A    between atoms: C_35  and  C_36
REMARK   22  A    between atoms: C_37  and  C_38
REMARK   23  A    between atoms: C_37  and  C_39
REMARK   24  A    between atoms: C_40  and  C_41
REMARK                            x       y       z     vdW  Elec       q    Type
REMARK                         _______ _______ _______ _____ _____    ______ ____
ROOT
ATOM      1  O   LIG A   1      -4.871   0.972 127.282  0.00  0.00    -0.291 OA
ATOM      2  C   LIG A   1      -5.383   1.211 128.378  0.00  0.00    +0.177 C 
ATOM      3  C   LIG A   1      -5.819   2.644 128.626  0.00  0.00    +0.042 C 
ATOM      4  C   LIG A   1      -6.622   2.805 129.688  0.00  0.00    +0.141 C 
ATOM      5  O   LIG A   1      -7.459   3.922 129.846  0.00  0.00    -0.487 OA
ATOM      6  C   LIG A   1      -8.797   3.473 130.222  0.00  0.00    +0.181 C 
ATOM      7  C   LIG A   1      -9.809   4.595 130.083  0.00  0.00    +0.052 C 
ATOM      8  C   LIG A   1      -8.831   2.989 131.682  0.00  0.00    +0.098 C 
ATOM      9  C   LIG A   1     -10.029   2.025 131.889  0.00  0.00    +0.020 C 
ATOM     10  C   LIG A   1      -7.427   2.430 131.948  0.00  0.00    +0.176 C 
ATOM     11  O   LIG A   1      -6.917   2.376 133.054  0.00  0.00    -0.291 OA
ATOM     12  C   LIG A   1      -6.784   1.821 130.725  0.00  0.00    +0.098 C 
ATOM     13  C   LIG A   1      -6.518   0.501 130.573  0.00  0.00    +0.125 C 
ATOM     14  C   LIG A   1      -5.647  -0.015 129.393  0.00  0.00    +0.095 C 
ENDROOT
BRANCH  13  15
ATOM     15  O   LIG A   1      -6.904  -0.467 131.503  0.00  0.00    -0.497 OA
ATOM     16  C   LIG A   1      -8.280  -0.830 131.484  0.00  0.00    +0.276 C 
ENDBRANCH  13  15
BRANCH   3  17
ATOM     17  C   LIG A   1      -5.519   3.791 127.618  0.00  0.00    +0.037 C 
BRANCH  17  18
ATOM     18  C   LIG A   1      -4.010   4.192 127.543  0.00  0.00    +0.009 C 
BRANCH  18  19
ATOM     19  C   LIG A   1      -3.202   3.741 126.321  0.00  0.00    -0.003 C 
ATOM     20  C   LIG A   1      -1.898   3.040 126.649  0.00  0.00    +0.004 C 
ENDBRANCH  18  19
ENDBRANCH  17  18
BRANCH  17  21
ATOM     21  C   LIG A   1      -6.125   3.686 126.198  0.00  0.00    +0.129 C 
BRANCH  21  22
ATOM     22  C   LIG A   1      -7.545   4.085 126.128  0.00  0.00    +0.307 C 
ATOM     23  O   LIG A   1      -7.948   5.293 126.008  0.00  0.00    -0.251 OA
BRANCH  22  24
ATOM     24  O   LIG A   1      -8.378   3.053 126.363  0.00  0.00    -0.468 OA
ATOM     25  C   LIG A   1      -8.515   2.213 125.237  0.00  0.00    +0.280 C 
ENDBRANCH  22  24
ENDBRANCH  21  22
ENDBRANCH  17  21
ENDBRANCH   3  17
BRANCH  14  26
ATOM     26  C   LIG A   1      -4.206  -0.375 129.928  0.00  0.00    +0.049 C 
BRANCH  26  27
ATOM     27  C   LIG A   1      -4.011  -1.414 131.022  0.00  0.00    -0.027 C 
ATOM     28  C   LIG A   1      -3.688  -2.702 130.767  0.00  0.00    -0.080 C 
ATOM     29  C   LIG A   1      -3.349  -3.192 129.383  0.00  0.00    +0.038 C 
ATOM     30  C   LIG A   1      -3.685  -3.773 131.829  0.00  0.00    +0.038 C 
ENDBRANCH  26  27
ENDBRANCH  14  26
BRANCH  14  31
ATOM     31  C   LIG A   1      -6.183  -1.182 128.365  0.00  0.00    +0.031 C 
BRANCH  31  32
ATOM     32  C   LIG A   1      -7.681  -1.630 128.079  0.00  0.00    +0.019 C 
BRANCH  32  33
ATOM     33  C   LIG A   1      -7.995  -3.116 128.539  0.00  0.00    -0.076 C 
ATOM     34  C   LIG A   1      -7.155  -3.766 129.635  0.00  0.00    +0.038 C 
ATOM     35  C   LIG A   1      -9.003  -3.895 128.097  0.00  0.00    +0.007 C 
ENDBRANCH  32  33
BRANCH  32  36
ATOM     36  C   LIG A   1      -8.076  -1.321 126.603  0.00  0.00    +0.035 C 
BRANCH  36  37
ATOM     37  C   LIG A   1      -7.016  -1.445 125.531  0.00  0.00    -0.027 C 
ATOM     38  C   LIG A   1      -6.834  -2.478 124.677  0.00  0.00    -0.080 C 
ATOM     39  C   LIG A   1      -7.722  -3.691 124.594  0.00  0.00    +0.038 C 
ATOM     40  C   LIG A   1      -5.637  -2.507 123.759  0.00  0.00    +0.038 C 
ENDBRANCH  36  37
ENDBRANCH  32  36
ENDBRANCH  31  32
ENDBRANCH  14  31
TORSDOF 14
ENDMDL
MODEL 6
REMARK VINA RESULT:      -7.5      2.364      7.383
REMARK  Name = NuBBE_1260
REMARK  24 active torsions:
REMARK  status: ('A' for Active; 'I' for Inactive)
REMARK    1  A    between atoms: C_3  and  C_4
REMARK    2  A    between atoms: C_4  and  C_5
REMARK    3  A    between atoms: C_4  and  C_8
REMARK    4  A    between atoms: C_5  and  C_6
REMARK    5  A    between atoms: C_6  and  C_7
REMARK    6  A    between atoms: C_8  and  C_9
REMARK    7  A    between atoms: C_9  and  O_10
REMARK    8  A    between atoms: O_10  and  C_11
REMARK    9  A    between atoms: C_15  and  C_17
REMARK   10  A    between atoms: C_18  and  C_20
REMARK   11  A    between atoms: C_24  and  O_25
REMARK   12  A    between atoms: O_25  and  C_26
REMARK   13  A    between atoms: C_27  and  C_28
REMARK   14  A    between atoms: C_27  and  C_33
REMARK   15  A    between atoms: C_28  and  C_29
REMARK   16  A    between atoms: C_30  and  C_31
REMARK   17  A    between atoms: C_30  and  C_32
REMARK   18  A    between atoms: C_33  and  C_34
REMARK   19  A    between atoms: C_34  and  C_35
REMARK   20  A    between atoms: C_34  and  C_40
REMARK   21  A    between atoms: C_35  and  C_36
REMARK   22  A    between atoms: C_37  and  C_38
REMARK   23  A    between atoms: C_37  and  C_39
REMARK   24  A    between atoms: C_40  and  C_41
REMARK                            x       y       z     vdW  Elec       q    Type
REMARK                         _______ _______ _______ _____ _____    ______ ____
ROOT
ATOM      1  O   LIG A   1      -6.864   4.545 127.945  0.00  0.00    -0.291 OA
ATOM      2  C   LIG A   1      -6.862   3.965 129.033  0.00  0.00    +0.177 C 
ATOM      3  C   LIG A   1      -5.503   3.638 129.625  0.00  0.00    +0.042 C 
ATOM      4  C   LIG A   1      -5.531   3.280 130.918  0.00  0.00    +0.141 C 
ATOM      5  O   LIG A   1      -4.401   3.350 131.751  0.00  0.00    -0.487 OA
ATOM      6  C   LIG A   1      -4.767   3.998 133.007  0.00  0.00    +0.181 C 
ATOM      7  C   LIG A   1      -3.534   4.394 133.797  0.00  0.00    +0.052 C 
ATOM      8  C   LIG A   1      -5.610   3.063 133.891  0.00  0.00    +0.098 C 
ATOM      9  C   LIG A   1      -6.443   3.899 134.898  0.00  0.00    +0.020 C 
ATOM     10  C   LIG A   1      -6.386   2.178 132.905  0.00  0.00    +0.176 C 
ATOM     11  O   LIG A   1      -6.790   1.059 133.172  0.00  0.00    -0.291 OA
ATOM     12  C   LIG A   1      -6.725   2.878 131.611  0.00  0.00    +0.098 C 
ATOM     13  C   LIG A   1      -7.980   3.205 131.220  0.00  0.00    +0.125 C 
ATOM     14  C   LIG A   1      -8.270   3.709 129.778  0.00  0.00    +0.095 C 
ENDROOT
BRANCH  13  15
ATOM     15  O   LIG A   1      -9.105   3.013 132.026  0.00  0.00    -0.497 OA
ATOM     16  C   LIG A   1      -9.756   1.755 131.891  0.00  0.00    +0.276 C 
ENDBRANCH  13  15
BRANCH   3  17
ATOM     17  C   LIG A   1      -4.176   3.888 128.852  0.00  0.00    +0.037 C 
BRANCH  17  18
ATOM     18  C   LIG A   1      -3.773   2.725 127.888  0.00  0.00    +0.009 C 
BRANCH  18  19
ATOM     19  C   LIG A   1      -3.056   3.084 126.582  0.00  0.00    -0.003 C 
ATOM     20  C   LIG A   1      -1.546   2.953 126.634  0.00  0.00    +0.004 C 
ENDBRANCH  18  19
ENDBRANCH  17  18
BRANCH  17  21
ATOM     21  C   LIG A   1      -3.989   5.258 128.157  0.00  0.00    +0.129 C 
BRANCH  21  22
ATOM     22  C   LIG A   1      -3.742   6.371 129.097  0.00  0.00    +0.307 C 
ATOM     23  O   LIG A   1      -4.138   7.573 128.910  0.00  0.00    -0.251 OA
BRANCH  22  24
ATOM     24  O   LIG A   1      -2.916   6.018 130.100  0.00  0.00    -0.468 OA
ATOM     25  C   LIG A   1      -2.943   6.947 131.163  0.00  0.00    +0.280 C 
ENDBRANCH  22  24
ENDBRANCH  21  22
ENDBRANCH  17  21
ENDBRANCH   3  17
BRANCH  14  26
ATOM     26  C   LIG A   1      -8.930   2.545 128.941  0.00  0.00    +0.049 C 
BRANCH  26  27
ATOM     27  C   LIG A   1      -8.149   1.288 128.591  0.00  0.00    -0.027 C 
ATOM     28  C   LIG A   1      -7.917   0.894 127.318  0.00  0.00    -0.080 C 
ATOM     29  C   LIG A   1      -8.288   1.741 126.129  0.00  0.00    +0.038 C 
ATOM     30  C   LIG A   1      -7.315  -0.445 126.970  0.00  0.00    +0.038 C 
ENDBRANCH  26  27
ENDBRANCH  14  26
BRANCH  14  31
ATOM     31  C   LIG A   1      -9.052   5.130 129.497  0.00  0.00    +0.031 C 
BRANCH  31  32
ATOM     32  C   LIG A   1      -9.168   6.396 130.452  0.00  0.00    +0.019 C 
BRANCH  32  33
ATOM     33  C   LIG A   1      -8.008   6.481 131.531  0.00  0.00    -0.076 C 
ATOM     34  C   LIG A   1      -8.294   6.112 132.985  0.00  0.00    +0.038 C 
ATOM     35  C   LIG A   1      -6.720   6.801 131.299  0.00  0.00    +0.007 C 
ENDBRANCH  32  33
BRANCH  32  36
ATOM     36  C   LIG A   1     -10.605   6.505 131.047  0.00  0.00    +0.035 C 
BRANCH  36  37
ATOM     37  C   LIG A   1     -11.786   6.305 130.126  0.00  0.00    -0.027 C 
ATOM     38  C   LIG A   1     -12.233   7.155 129.174  0.00  0.00    -0.080 C 
ATOM     39  C   LIG A   1     -11.573   8.458 128.807  0.00  0.00    +0.038 C 
ATOM     40  C   LIG A   1     -13.516   6.867 128.434  0.00  0.00    +0.038 C 
ENDBRANCH  36  37
ENDBRANCH  32  36
ENDBRANCH  31  32
ENDBRANCH  14  31
TORSDOF 14
ENDMDL
MODEL 7
REMARK VINA RESULT:      -7.4      2.634      7.898
REMARK  Name = NuBBE_1260
REMARK  24 active torsions:
REMARK  status: ('A' for Active; 'I' for Inactive)
REMARK    1  A    between atoms: C_3  and  C_4
REMARK    2  A    between atoms: C_4  and  C_5
REMARK    3  A    between atoms: C_4  and  C_8
REMARK    4  A    between atoms: C_5  and  C_6
REMARK    5  A    between atoms: C_6  and  C_7
REMARK    6  A    between atoms: C_8  and  C_9
REMARK    7  A    between atoms: C_9  and  O_10
REMARK    8  A    between atoms: O_10  and  C_11
REMARK    9  A    between atoms: C_15  and  C_17
REMARK   10  A    between atoms: C_18  and  C_20
REMARK   11  A    between atoms: C_24  and  O_25
REMARK   12  A    between atoms: O_25  and  C_26
REMARK   13  A    between atoms: C_27  and  C_28
REMARK   14  A    between atoms: C_27  and  C_33
REMARK   15  A    between atoms: C_28  and  C_29
REMARK   16  A    between atoms: C_30  and  C_31
REMARK   17  A    between atoms: C_30  and  C_32
REMARK   18  A    between atoms: C_33  and  C_34
REMARK   19  A    between atoms: C_34  and  C_35
REMARK   20  A    between atoms: C_34  and  C_40
REMARK   21  A    between atoms: C_35  and  C_36
REMARK   22  A    between atoms: C_37  and  C_38
REMARK   23  A    between atoms: C_37  and  C_39
REMARK   24  A    between atoms: C_40  and  C_41
REMARK                            x       y       z     vdW  Elec       q    Type
REMARK                         _______ _______ _______ _____ _____    ______ ____
ROOT
ATOM      1  O   LIG A   1      -5.351   5.681 129.331  0.00  0.00    -0.291 OA
ATOM      2  C   LIG A   1      -6.152   4.949 129.918  0.00  0.00    +0.177 C 
ATOM      3  C   LIG A   1      -6.850   3.895 129.078  0.00  0.00    +0.042 C 
ATOM      4  C   LIG A   1      -7.478   2.945 129.787  0.00  0.00    +0.141 C 
ATOM      5  O   LIG A   1      -7.808   1.689 129.251  0.00  0.00    -0.487 OA
ATOM      6  C   LIG A   1      -7.402   0.643 130.187  0.00  0.00    +0.181 C 
ATOM      7  C   LIG A   1      -7.430  -0.722 129.526  0.00  0.00    +0.052 C 
ATOM      8  C   LIG A   1      -8.340   0.593 131.405  0.00  0.00    +0.098 C 
ATOM      9  C   LIG A   1      -7.612  -0.075 132.602  0.00  0.00    +0.020 C 
ATOM     10  C   LIG A   1      -8.821   2.039 131.596  0.00  0.00    +0.176 C 
ATOM     11  O   LIG A   1      -9.876   2.337 132.128  0.00  0.00    -0.291 OA
ATOM     12  C   LIG A   1      -7.796   3.069 131.184  0.00  0.00    +0.098 C 
ATOM     13  C   LIG A   1      -7.164   3.908 132.039  0.00  0.00    +0.125 C 
ATOM     14  C   LIG A   1      -6.303   5.092 131.518  0.00  0.00    +0.095 C 
ENDROOT
BRANCH  13  15
ATOM     15  O   LIG A   1      -7.320   3.844 133.426  0.00  0.00    -0.497 OA
ATOM     16  C   LIG A   1      -6.421   2.979 134.111  0.00  0.00    +0.276 C 
ENDBRANCH  13  15
BRANCH   3  17
ATOM     17  C   LIG A   1      -6.682   3.816 127.533  0.00  0.00    +0.037 C 
BRANCH  17  18
ATOM     18  C   LIG A   1      -5.435   2.995 127.071  0.00  0.00    +0.009 C 
BRANCH  18  19
ATOM     19  C   LIG A   1      -4.121   3.748 126.834  0.00  0.00    -0.003 C 
ATOM     20  C   LIG A   1      -3.041   3.473 127.864  0.00  0.00    +0.004 C 
ENDBRANCH  18  19
ENDBRANCH  17  18
BRANCH  17  21
ATOM     21  C   LIG A   1      -7.923   3.442 126.688  0.00  0.00    +0.129 C 
BRANCH  21  22
ATOM     22  C   LIG A   1      -8.301   4.474 125.700  0.00  0.00    +0.307 C 
ATOM     23  O   LIG A   1      -8.779   5.621 126.004  0.00  0.00    -0.251 OA
BRANCH  22  24
ATOM     24  O   LIG A   1      -8.237   4.017 124.434  0.00  0.00    -0.468 OA
ATOM     25  C   LIG A   1      -8.727   2.699 124.320  0.00  0.00    +0.280 C 
ENDBRANCH  22  24
ENDBRANCH  21  22
ENDBRANCH  17  21
ENDBRANCH   3  17
BRANCH  14  26
ATOM     26  C   LIG A   1      -7.105   6.440 131.699  0.00  0.00    +0.049 C 
BRANCH  26  27
ATOM     27  C   LIG A   1      -8.257   6.798 130.772  0.00  0.00    -0.027 C 
ATOM     28  C   LIG A   1      -9.553   6.570 131.084  0.00  0.00    -0.080 C 
ATOM     29  C   LIG A   1      -9.983   6.073 132.440  0.00  0.00    +0.038 C 
ATOM     30  C   LIG A   1     -10.679   6.744 130.095  0.00  0.00    +0.038 C 
ENDBRANCH  26  27
ENDBRANCH  14  26
BRANCH  14  31
ATOM     31  C   LIG A   1      -4.736   5.295 131.978  0.00  0.00    +0.031 C 
BRANCH  31  32
ATOM     32  C   LIG A   1      -3.460   4.466 131.518  0.00  0.00    +0.019 C 
BRANCH  32  33
ATOM     33  C   LIG A   1      -3.421   2.990 132.098  0.00  0.00    -0.076 C 
ATOM     34  C   LIG A   1      -4.127   1.861 131.351  0.00  0.00    +0.038 C 
ATOM     35  C   LIG A   1      -2.757   2.578 133.196  0.00  0.00    +0.007 C 
ENDBRANCH  32  33
BRANCH  32  36
ATOM     36  C   LIG A   1      -2.155   5.284 131.765  0.00  0.00    +0.035 C 
BRANCH  36  37
ATOM     37  C   LIG A   1      -2.244   6.793 131.801  0.00  0.00    -0.027 C 
ATOM     38  C   LIG A   1      -2.034   7.599 132.867  0.00  0.00    -0.080 C 
ATOM     39  C   LIG A   1      -1.595   7.127 134.227  0.00  0.00    +0.038 C 
ATOM     40  C   LIG A   1      -2.303   9.080 132.769  0.00  0.00    +0.038 C 
ENDBRANCH  36  37
ENDBRANCH  32  36
ENDBRANCH  31  32
ENDBRANCH  14  31
TORSDOF 14
ENDMDL
MODEL 8
REMARK VINA RESULT:      -7.4      1.719      2.459
REMARK  Name = NuBBE_1260
REMARK  24 active torsions:
REMARK  status: ('A' for Active; 'I' for Inactive)
REMARK    1  A    between atoms: C_3  and  C_4
REMARK    2  A    between atoms: C_4  and  C_5
REMARK    3  A    between atoms: C_4  and  C_8
REMARK    4  A    between atoms: C_5  and  C_6
REMARK    5  A    between atoms: C_6  and  C_7
REMARK    6  A    between atoms: C_8  and  C_9
REMARK    7  A    between atoms: C_9  and  O_10
REMARK    8  A    between atoms: O_10  and  C_11
REMARK    9  A    between atoms: C_15  and  C_17
REMARK   10  A    between atoms: C_18  and  C_20
REMARK   11  A    between atoms: C_24  and  O_25
REMARK   12  A    between atoms: O_25  and  C_26
REMARK   13  A    between atoms: C_27  and  C_28
REMARK   14  A    between atoms: C_27  and  C_33
REMARK   15  A    between atoms: C_28  and  C_29
REMARK   16  A    between atoms: C_30  and  C_31
REMARK   17  A    between atoms: C_30  and  C_32
REMARK   18  A    between atoms: C_33  and  C_34
REMARK   19  A    between atoms: C_34  and  C_35
REMARK   20  A    between atoms: C_34  and  C_40
REMARK   21  A    between atoms: C_35  and  C_36
REMARK   22  A    between atoms: C_37  and  C_38
REMARK   23  A    between atoms: C_37  and  C_39
REMARK   24  A    between atoms: C_40  and  C_41
REMARK                            x       y       z     vdW  Elec       q    Type
REMARK                         _______ _______ _______ _____ _____    ______ ____
ROOT
ATOM      1  O   LIG A   1      -9.037   2.494 128.083  0.00  0.00    -0.291 OA
ATOM      2  C   LIG A   1      -8.032   3.209 128.087  0.00  0.00    +0.177 C 
ATOM      3  C   LIG A   1      -7.938   4.242 129.196  0.00  0.00    +0.042 C 
ATOM      4  C   LIG A   1      -6.723   4.792 129.343  0.00  0.00    +0.141 C 
ATOM      5  O   LIG A   1      -6.312   5.422 130.529  0.00  0.00    -0.487 OA
ATOM      6  C   LIG A   1      -4.984   4.938 130.897  0.00  0.00    +0.181 C 
ATOM      7  C   LIG A   1      -4.636   5.327 132.321  0.00  0.00    +0.052 C 
ATOM      8  C   LIG A   1      -3.903   5.525 129.973  0.00  0.00    +0.098 C 
ATOM      9  C   LIG A   1      -2.647   4.614 129.986  0.00  0.00    +0.020 C 
ATOM     10  C   LIG A   1      -4.604   5.733 128.624  0.00  0.00    +0.176 C 
ATOM     11  O   LIG A   1      -4.256   6.562 127.799  0.00  0.00    -0.291 OA
ATOM     12  C   LIG A   1      -5.686   4.716 128.349  0.00  0.00    +0.098 C 
ATOM     13  C   LIG A   1      -5.626   3.772 127.379  0.00  0.00    +0.125 C 
ATOM     14  C   LIG A   1      -6.870   2.919 127.006  0.00  0.00    +0.095 C 
ENDROOT
BRANCH  13  15
ATOM     15  O   LIG A   1      -4.498   3.571 126.579  0.00  0.00    -0.497 OA
ATOM     16  C   LIG A   1      -3.539   2.649 127.083  0.00  0.00    +0.276 C 
ENDBRANCH  13  15
BRANCH   3  17
ATOM     17  C   LIG A   1      -9.100   4.493 130.200  0.00  0.00    +0.037 C 
BRANCH  17  18
ATOM     18  C   LIG A   1      -8.993   3.657 131.517  0.00  0.00    +0.009 C 
BRANCH  18  19
ATOM     19  C   LIG A   1      -8.573   4.381 132.801  0.00  0.00    -0.003 C 
ATOM     20  C   LIG A   1      -9.097   3.755 134.080  0.00  0.00    +0.004 C 
ENDBRANCH  18  19
ENDBRANCH  17  18
BRANCH  17  21
ATOM     21  C   LIG A   1      -9.480   5.960 130.517  0.00  0.00    +0.129 C 
BRANCH  21  22
ATOM     22  C   LIG A   1     -10.282   6.606 129.458  0.00  0.00    +0.307 C 
ATOM     23  O   LIG A   1     -11.291   6.065 128.888  0.00  0.00    -0.251 OA
BRANCH  22  24
ATOM     24  O   LIG A   1      -9.741   7.768 129.045  0.00  0.00    -0.468 OA
ATOM     25  C   LIG A   1     -10.539   8.411 128.074  0.00  0.00    +0.280 C 
ENDBRANCH  22  24
ENDBRANCH  21  22
ENDBRANCH  17  21
ENDBRANCH   3  17
BRANCH  14  26
ATOM     26  C   LIG A   1      -7.480   3.450 125.650  0.00  0.00    +0.049 C 
BRANCH  26  27
ATOM     27  C   LIG A   1      -6.611   3.624 124.414  0.00  0.00    -0.027 C 
ATOM     28  C   LIG A   1      -7.015   3.268 123.173  0.00  0.00    -0.080 C 
ATOM     29  C   LIG A   1      -8.417   2.800 122.882  0.00  0.00    +0.038 C 
ATOM     30  C   LIG A   1      -6.091   3.258 121.980  0.00  0.00    +0.038 C 
ENDBRANCH  26  27
ENDBRANCH  14  26
BRANCH  14  31
ATOM     31  C   LIG A   1      -6.826   1.274 127.007  0.00  0.00    +0.031 C 
BRANCH  31  32
ATOM     32  C   LIG A   1      -7.332   0.275 125.879  0.00  0.00    +0.019 C 
BRANCH  32  33
ATOM     33  C   LIG A   1      -8.040  -1.023 126.456  0.00  0.00    -0.076 C 
ATOM     34  C   LIG A   1      -7.706  -1.508 127.864  0.00  0.00    +0.038 C 
ATOM     35  C   LIG A   1      -8.993  -1.754 125.844  0.00  0.00    +0.007 C 
ENDBRANCH  32  33
BRANCH  32  36
ATOM     36  C   LIG A   1      -6.195  -0.020 124.854  0.00  0.00    +0.035 C 
BRANCH  36  37
ATOM     37  C   LIG A   1      -5.574  -1.398 124.840  0.00  0.00    -0.027 C 
ATOM     38  C   LIG A   1      -5.613  -2.302 123.835  0.00  0.00    -0.080 C 
ATOM     39  C   LIG A   1      -6.241  -2.062 122.487  0.00  0.00    +0.038 C 
ATOM     40  C   LIG A   1      -5.061  -3.692 124.036  0.00  0.00    +0.038 C 
ENDBRANCH  36  37
ENDBRANCH  32  36
ENDBRANCH  31  32
ENDBRANCH  14  31
TORSDOF 14
ENDMDL
MODEL 9
REMARK VINA RESULT:      -7.4      2.288      7.409
REMARK  Name = NuBBE_1260
REMARK  24 active torsions:
REMARK  status: ('A' for Active; 'I' for Inactive)
REMARK    1  A    between atoms: C_3  and  C_4
REMARK    2  A    between atoms: C_4  and  C_5
REMARK    3  A    between atoms: C_4  and  C_8
REMARK    4  A    between atoms: C_5  and  C_6
REMARK    5  A    between atoms: C_6  and  C_7
REMARK    6  A    between atoms: C_8  and  C_9
REMARK    7  A    between atoms: C_9  and  O_10
REMARK    8  A    between atoms: O_10  and  C_11
REMARK    9  A    between atoms: C_15  and  C_17
REMARK   10  A    between atoms: C_18  and  C_20
REMARK   11  A    between atoms: C_24  and  O_25
REMARK   12  A    between atoms: O_25  and  C_26
REMARK   13  A    between atoms: C_27  and  C_28
REMARK   14  A    between atoms: C_27  and  C_33
REMARK   15  A    between atoms: C_28  and  C_29
REMARK   16  A    between atoms: C_30  and  C_31
REMARK   17  A    between atoms: C_30  and  C_32
REMARK   18  A    between atoms: C_33  and  C_34
REMARK   19  A    between atoms: C_34  and  C_35
REMARK   20  A    between atoms: C_34  and  C_40
REMARK   21  A    between atoms: C_35  and  C_36
REMARK   22  A    between atoms: C_37  and  C_38
REMARK   23  A    between atoms: C_37  and  C_39
REMARK   24  A    between atoms: C_40  and  C_41
REMARK                            x       y       z     vdW  Elec       q    Type
REMARK                         _______ _______ _______ _____ _____    ______ ____
ROOT
ATOM      1  O   LIG A   1      -6.849   4.480 128.116  0.00  0.00    -0.291 OA
ATOM      2  C   LIG A   1      -6.846   3.910 129.210  0.00  0.00    +0.177 C 
ATOM      3  C   LIG A   1      -5.488   3.656 129.839  0.00  0.00    +0.042 C 
ATOM      4  C   LIG A   1      -5.531   3.309 131.134  0.00  0.00    +0.141 C 
ATOM      5  O   LIG A   1      -4.429   3.442 131.995  0.00  0.00    -0.487 OA
ATOM      6  C   LIG A   1      -4.859   4.083 133.235  0.00  0.00    +0.181 C 
ATOM      7  C   LIG A   1      -3.668   4.546 134.052  0.00  0.00    +0.052 C 
ATOM      8  C   LIG A   1      -5.677   3.114 134.106  0.00  0.00    +0.098 C 
ATOM      9  C   LIG A   1      -6.576   3.917 135.084  0.00  0.00    +0.020 C 
ATOM     10  C   LIG A   1      -6.383   2.184 133.110  0.00  0.00    +0.176 C 
ATOM     11  O   LIG A   1      -6.738   1.049 133.378  0.00  0.00    -0.291 OA
ATOM     12  C   LIG A   1      -6.723   2.855 131.801  0.00  0.00    +0.098 C 
ATOM     13  C   LIG A   1      -7.982   3.115 131.375  0.00  0.00    +0.125 C 
ATOM     14  C   LIG A   1      -8.258   3.592 129.921  0.00  0.00    +0.095 C 
ENDROOT
BRANCH  13  15
ATOM     15  O   LIG A   1      -9.116   2.875 132.154  0.00  0.00    -0.497 OA
ATOM     16  C   LIG A   1      -9.737   1.609 131.968  0.00  0.00    +0.276 C 
ENDBRANCH  13  15
BRANCH   3  17
ATOM     17  C   LIG A   1      -4.156   3.965 129.097  0.00  0.00    +0.037 C 
BRANCH  17  18
ATOM     18  C   LIG A   1      -3.207   4.936 129.873  0.00  0.00    +0.009 C 
BRANCH  18  19
ATOM     19  C   LIG A   1      -2.467   6.015 129.073  0.00  0.00    -0.003 C 
ATOM     20  C   LIG A   1      -3.328   6.762 128.073  0.00  0.00    +0.004 C 
ENDBRANCH  18  19
ENDBRANCH  17  18
BRANCH  17  21
ATOM     21  C   LIG A   1      -3.357   2.774 128.516  0.00  0.00    +0.129 C 
BRANCH  21  22
ATOM     22  C   LIG A   1      -2.950   2.963 127.108  0.00  0.00    +0.307 C 
ATOM     23  O   LIG A   1      -1.740   3.120 126.724  0.00  0.00    -0.251 OA
BRANCH  22  24
ATOM     24  O   LIG A   1      -4.006   3.111 126.286  0.00  0.00    -0.468 OA
ATOM     25  C   LIG A   1      -4.789   1.939 126.210  0.00  0.00    +0.280 C 
ENDBRANCH  22  24
ENDBRANCH  21  22
ENDBRANCH  17  21
ENDBRANCH   3  17
BRANCH  14  26
ATOM     26  C   LIG A   1      -8.839   2.389 129.079  0.00  0.00    +0.049 C 
BRANCH  26  27
ATOM     27  C   LIG A   1      -7.973   1.191 128.722  0.00  0.00    -0.027 C 
ATOM     28  C   LIG A   1      -8.037   0.565 127.525  0.00  0.00    -0.080 C 
ATOM     29  C   LIG A   1      -8.869   1.088 126.383  0.00  0.00    +0.038 C 
ATOM     30  C   LIG A   1      -7.326  -0.734 127.238  0.00  0.00    +0.038 C 
ENDBRANCH  26  27
ENDBRANCH  14  26
BRANCH  14  31
ATOM     31  C   LIG A   1      -9.102   4.970 129.606  0.00  0.00    +0.031 C 
BRANCH  31  32
ATOM     32  C   LIG A   1      -8.943   6.398 130.285  0.00  0.00    +0.019 C 
BRANCH  32  33
ATOM     33  C   LIG A   1      -7.884   6.423 131.466  0.00  0.00    -0.076 C 
ATOM     34  C   LIG A   1      -6.452   6.876 131.194  0.00  0.00    +0.038 C 
ATOM     35  C   LIG A   1      -8.122   6.134 132.761  0.00  0.00    +0.007 C 
ENDBRANCH  32  33
BRANCH  32  36
ATOM     36  C   LIG A   1     -10.338   6.984 130.665  0.00  0.00    +0.035 C 
BRANCH  36  37
ATOM     37  C   LIG A   1     -11.493   6.773 129.713  0.00  0.00    -0.027 C 
ATOM     38  C   LIG A   1     -11.708   7.405 128.536  0.00  0.00    -0.080 C 
ATOM     39  C   LIG A   1     -10.771   8.407 127.915  0.00  0.00    +0.038 C 
ATOM     40  C   LIG A   1     -12.990   7.180 127.772  0.00  0.00    +0.038 C 
ENDBRANCH  36  37
ENDBRANCH  32  36
ENDBRANCH  31  32
ENDBRANCH  14  31
TORSDOF 14
ENDMDL
