MODEL 1
REMARK VINA RESULT:      -9.1      0.000      0.000
REMARK  Name = NuBBE_1053
REMARK  6 active torsions:
REMARK  status: ('A' for Active; 'I' for Inactive)
REMARK    1  A    between atoms: C_5  and  C_6
REMARK    2  A    between atoms: C_10  and  C_11
REMARK    3  A    between atoms: C_16  and  C_17
REMARK    4  A    between atoms: C_24  and  C_26
REMARK    5  A    between atoms: C_34  and  C_35
REMARK    6  A    between atoms: C_34  and  C_36
REMARK                            x       y       z     vdW  Elec       q    Type
REMARK                         _______ _______ _______ _____ _____    ______ ____
ROOT
ATOM      1  O   LIG A   1     -10.047  -0.658 122.747  0.00  0.00    -0.292 OA
ATOM      2  C   LIG A   1      -9.370  -0.530 123.766  0.00  0.00    +0.162 C 
ATOM      3  C   LIG A   1      -9.401   0.778 124.455  0.00  0.00    +0.043 C 
ATOM      4  C   LIG A   1      -8.632   1.051 125.516  0.00  0.00    -0.016 C 
ATOM      5  C   LIG A   1      -7.660   0.081 126.179  0.00  0.00    -0.006 C 
ATOM      6  C   LIG A   1      -6.265   0.464 125.646  0.00  0.00    +0.016 C 
ATOM      7  C   LIG A   1      -8.134  -1.371 125.815  0.00  0.00    +0.019 C 
ATOM      8  C   LIG A   1      -7.222  -2.421 126.448  0.00  0.00    +0.080 C 
ATOM      9  C   LIG A   1      -7.156  -2.289 127.958  0.00  0.00    +0.143 C 
ATOM     10  C   LIG A   1      -6.888  -0.885 128.566  0.00  0.00    +0.062 C 
ATOM     11  C   LIG A   1      -5.352  -0.737 128.459  0.00  0.00    +0.022 C 
ATOM     12  C   LIG A   1      -7.732   0.181 127.760  0.00  0.00    +0.015 C 
ATOM     13  C   LIG A   1      -7.494   1.598 128.338  0.00  0.00    +0.006 C 
ATOM     14  C   LIG A   1      -7.974   1.679 129.786  0.00  0.00    +0.014 C 
ATOM     15  C   LIG A   1      -7.304   0.662 130.732  0.00  0.00    +0.042 C 
ATOM     16  C   LIG A   1      -5.857   1.104 131.056  0.00  0.00    +0.018 C 
ATOM     17  C   LIG A   1      -7.304  -0.739 130.074  0.00  0.00    +0.128 C 
ATOM     18  O   LIG A   1      -8.483  -1.511 130.381  0.00  0.00    -0.351 OA
ATOM     19  C   LIG A   1      -7.272  -1.895 131.060  0.00  0.00    +0.260 C 
ATOM     20  C   LIG A   1      -7.255  -1.662 132.525  0.00  0.00    +0.340 C 
ATOM     21  O   LIG A   1      -7.535  -0.405 132.968  0.00  0.00    -0.454 OA
ATOM     22  C   LIG A   1      -8.131   0.561 132.075  0.00  0.00    +0.218 C 
ATOM     23  O   LIG A   1      -6.913  -2.553 133.290  0.00  0.00    -0.248 OA
ATOM     24  O   LIG A   1      -7.118  -3.326 128.623  0.00  0.00    -0.297 OA
ATOM     25  C   LIG A   1      -8.458  -1.639 124.305  0.00  0.00    +0.031 C 
ATOM     26  C   LIG A   1      -9.243  -2.968 124.165  0.00  0.00    +0.019 C 
ATOM     27  C   LIG A   1      -7.231  -1.729 123.386  0.00  0.00    +0.019 C 
ENDROOT
BRANCH  22  28
ATOM     28  C   LIG A   1      -8.312   1.866 132.809  0.00  0.00    +0.031 A 
ATOM     29  C   LIG A   1      -7.396   2.518 133.614  0.00  0.00    +0.202 A 
ATOM     30  O   LIG A   1      -7.917   3.664 134.116  0.00  0.00    -0.471 OA
ATOM     31  C   LIG A   1      -9.191   3.751 133.664  0.00  0.00    +0.195 A 
ATOM     32  C   LIG A   1      -9.490   2.671 132.868  0.00  0.00    +0.048 A 
ENDBRANCH  22  28
TORSDOF 1
ENDMDL
MODEL 2
REMARK VINA RESULT:      -8.8      2.503      8.210
REMARK  Name = NuBBE_1053
REMARK  6 active torsions:
REMARK  status: ('A' for Active; 'I' for Inactive)
REMARK    1  A    between atoms: C_5  and  C_6
REMARK    2  A    between atoms: C_10  and  C_11
REMARK    3  A    between atoms: C_16  and  C_17
REMARK    4  A    between atoms: C_24  and  C_26
REMARK    5  A    between atoms: C_34  and  C_35
REMARK    6  A    between atoms: C_34  and  C_36
REMARK                            x       y       z     vdW  Elec       q    Type
REMARK                         _______ _______ _______ _____ _____    ______ ____
ROOT
ATOM      1  O   LIG A   1      -9.669   3.102 133.521  0.00  0.00    -0.292 OA
ATOM      2  C   LIG A   1      -9.118   2.861 132.448  0.00  0.00    +0.162 C 
ATOM      3  C   LIG A   1      -8.995   1.445 132.038  0.00  0.00    +0.043 C 
ATOM      4  C   LIG A   1      -8.334   1.070 130.936  0.00  0.00    -0.016 C 
ATOM      5  C   LIG A   1      -7.654   2.010 129.947  0.00  0.00    -0.006 C 
ATOM      6  C   LIG A   1      -6.155   1.973 130.305  0.00  0.00    +0.016 C 
ATOM      7  C   LIG A   1      -8.338   3.416 130.099  0.00  0.00    +0.019 C 
ATOM      8  C   LIG A   1      -7.727   4.430 129.134  0.00  0.00    +0.080 C 
ATOM      9  C   LIG A   1      -7.835   3.983 127.688  0.00  0.00    +0.143 C 
ATOM     10  C   LIG A   1      -7.393   2.539 127.325  0.00  0.00    +0.062 C 
ATOM     11  C   LIG A   1      -5.855   2.658 127.202  0.00  0.00    +0.022 C 
ATOM     12  C   LIG A   1      -7.912   1.557 128.449  0.00  0.00    +0.015 C 
ATOM     13  C   LIG A   1      -7.492   0.103 128.123  0.00  0.00    +0.006 C 
ATOM     14  C   LIG A   1      -8.133  -0.365 126.818  0.00  0.00    +0.014 C 
ATOM     15  C   LIG A   1      -7.793   0.513 125.596  0.00  0.00    +0.042 C 
ATOM     16  C   LIG A   1      -6.344   0.240 125.127  0.00  0.00    +0.018 C 
ATOM     17  C   LIG A   1      -7.967   2.006 125.963  0.00  0.00    +0.128 C 
ATOM     18  O   LIG A   1      -9.298   2.501 125.715  0.00  0.00    -0.351 OA
ATOM     19  C   LIG A   1      -8.279   2.911 124.782  0.00  0.00    +0.260 C 
ATOM     20  C   LIG A   1      -8.410   2.369 123.407  0.00  0.00    +0.340 C 
ATOM     21  O   LIG A   1      -8.507   1.018 123.268  0.00  0.00    -0.454 OA
ATOM     22  C   LIG A   1      -8.792   0.190 124.416  0.00  0.00    +0.218 C 
ATOM     23  O   LIG A   1      -8.342   3.114 122.440  0.00  0.00    -0.248 OA
ATOM     24  O   LIG A   1      -8.077   4.844 126.839  0.00  0.00    -0.297 OA
ATOM     25  C   LIG A   1      -8.506   3.953 131.562  0.00  0.00    +0.031 C 
ATOM     26  C   LIG A   1      -9.499   5.143 131.573  0.00  0.00    +0.019 C 
ATOM     27  C   LIG A   1      -7.208   4.429 132.230  0.00  0.00    +0.019 C 
ENDROOT
BRANCH  22  28
ATOM     28  C   LIG A   1      -8.822  -1.256 123.986  0.00  0.00    +0.031 A 
ATOM     29  C   LIG A   1      -8.480  -1.779 122.753  0.00  0.00    +0.202 A 
ATOM     30  O   LIG A   1      -8.643  -3.124 122.731  0.00  0.00    -0.471 OA
ATOM     31  C   LIG A   1      -9.125  -3.484 123.946  0.00  0.00    +0.195 A 
ATOM     32  C   LIG A   1      -9.265  -2.378 124.750  0.00  0.00    +0.048 A 
ENDBRANCH  22  28
TORSDOF 1
ENDMDL
MODEL 3
REMARK VINA RESULT:      -8.7      3.034      8.376
REMARK  Name = NuBBE_1053
REMARK  6 active torsions:
REMARK  status: ('A' for Active; 'I' for Inactive)
REMARK    1  A    between atoms: C_5  and  C_6
REMARK    2  A    between atoms: C_10  and  C_11
REMARK    3  A    between atoms: C_16  and  C_17
REMARK    4  A    between atoms: C_24  and  C_26
REMARK    5  A    between atoms: C_34  and  C_35
REMARK    6  A    between atoms: C_34  and  C_36
REMARK                            x       y       z     vdW  Elec       q    Type
REMARK                         _______ _______ _______ _____ _____    ______ ____
ROOT
ATOM      1  O   LIG A   1      -9.342   3.828 134.339  0.00  0.00    -0.292 OA
ATOM      2  C   LIG A   1      -8.799   3.489 133.288  0.00  0.00    +0.162 C 
ATOM      3  C   LIG A   1      -9.419   2.389 132.516  0.00  0.00    +0.043 C 
ATOM      4  C   LIG A   1      -8.859   1.884 131.410  0.00  0.00    -0.016 C 
ATOM      5  C   LIG A   1      -7.559   2.364 130.775  0.00  0.00    -0.006 C 
ATOM      6  C   LIG A   1      -6.482   1.357 131.228  0.00  0.00    +0.016 C 
ATOM      7  C   LIG A   1      -7.327   3.842 131.253  0.00  0.00    +0.019 C 
ATOM      8  C   LIG A   1      -6.045   4.417 130.656  0.00  0.00    +0.080 C 
ATOM      9  C   LIG A   1      -6.053   4.385 129.139  0.00  0.00    +0.143 C 
ATOM     10  C   LIG A   1      -6.448   3.061 128.429  0.00  0.00    +0.062 C 
ATOM     11  C   LIG A   1      -5.141   2.233 128.467  0.00  0.00    +0.022 C 
ATOM     12  C   LIG A   1      -7.676   2.427 129.195  0.00  0.00    +0.015 C 
ATOM     13  C   LIG A   1      -8.103   1.103 128.516  0.00  0.00    +0.006 C 
ATOM     14  C   LIG A   1      -8.576   1.356 127.086  0.00  0.00    +0.014 C 
ATOM     15  C   LIG A   1      -7.525   2.035 126.183  0.00  0.00    +0.042 C 
ATOM     16  C   LIG A   1      -6.433   1.019 125.775  0.00  0.00    +0.018 C 
ATOM     17  C   LIG A   1      -6.892   3.233 126.932  0.00  0.00    +0.128 C 
ATOM     18  O   LIG A   1      -7.600   4.471 126.724  0.00  0.00    -0.351 OA
ATOM     19  C   LIG A   1      -6.349   4.324 126.025  0.00  0.00    +0.260 C 
ATOM     20  C   LIG A   1      -6.446   4.221 124.548  0.00  0.00    +0.340 C 
ATOM     21  O   LIG A   1      -7.264   3.260 124.034  0.00  0.00    -0.454 OA
ATOM     22  C   LIG A   1      -8.225   2.598 124.884  0.00  0.00    +0.218 C 
ATOM     23  O   LIG A   1      -5.744   4.920 123.831  0.00  0.00    -0.248 OA
ATOM     24  O   LIG A   1      -5.556   5.343 128.543  0.00  0.00    -0.297 OA
ATOM     25  C   LIG A   1      -7.489   4.109 132.789  0.00  0.00    +0.031 C 
ATOM     26  C   LIG A   1      -7.593   5.634 133.047  0.00  0.00    +0.019 C 
ATOM     27  C   LIG A   1      -6.348   3.569 133.664  0.00  0.00    +0.019 C 
ENDROOT
BRANCH  22  28
ATOM     28  C   LIG A   1      -8.977   1.573 124.072  0.00  0.00    +0.031 A 
ATOM     29  C   LIG A   1     -10.342   1.495 123.864  0.00  0.00    +0.202 A 
ATOM     30  O   LIG A   1     -10.657   0.430 123.086  0.00  0.00    -0.471 OA
ATOM     31  C   LIG A   1      -9.496  -0.213 122.807  0.00  0.00    +0.195 A 
ATOM     32  C   LIG A   1      -8.437   0.438 123.395  0.00  0.00    +0.048 A 
ENDBRANCH  22  28
TORSDOF 1
ENDMDL
MODEL 4
REMARK VINA RESULT:      -8.6      1.668      2.082
REMARK  Name = NuBBE_1053
REMARK  6 active torsions:
REMARK  status: ('A' for Active; 'I' for Inactive)
REMARK    1  A    between atoms: C_5  and  C_6
REMARK    2  A    between atoms: C_10  and  C_11
REMARK    3  A    between atoms: C_16  and  C_17
REMARK    4  A    between atoms: C_24  and  C_26
REMARK    5  A    between atoms: C_34  and  C_35
REMARK    6  A    between atoms: C_34  and  C_36
REMARK                            x       y       z     vdW  Elec       q    Type
REMARK                         _______ _______ _______ _____ _____    ______ ____
ROOT
ATOM      1  O   LIG A   1      -9.571  -2.217 123.239  0.00  0.00    -0.292 OA
ATOM      2  C   LIG A   1      -9.013  -1.586 124.136  0.00  0.00    +0.162 C 
ATOM      3  C   LIG A   1      -9.299  -0.139 124.241  0.00  0.00    +0.043 C 
ATOM      4  C   LIG A   1      -8.676   0.655 125.121  0.00  0.00    -0.016 C 
ATOM      5  C   LIG A   1      -7.634   0.205 126.138  0.00  0.00    -0.006 C 
ATOM      6  C   LIG A   1      -6.269   0.582 125.527  0.00  0.00    +0.016 C 
ATOM      7  C   LIG A   1      -7.852  -1.332 126.377  0.00  0.00    +0.019 C 
ATOM      8  C   LIG A   1      -6.855  -1.876 127.397  0.00  0.00    +0.080 C 
ATOM      9  C   LIG A   1      -6.943  -1.153 128.729  0.00  0.00    +0.143 C 
ATOM     10  C   LIG A   1      -6.942   0.400 128.728  0.00  0.00    +0.062 C 
ATOM     11  C   LIG A   1      -5.442   0.755 128.604  0.00  0.00    +0.022 C 
ATOM     12  C   LIG A   1      -7.860   0.903 127.544  0.00  0.00    +0.015 C 
ATOM     13  C   LIG A   1      -7.888   2.450 127.511  0.00  0.00    +0.006 C 
ATOM     14  C   LIG A   1      -8.500   3.009 128.794  0.00  0.00    +0.014 C 
ATOM     15  C   LIG A   1      -7.774   2.575 130.083  0.00  0.00    +0.042 C 
ATOM     16  C   LIG A   1      -6.443   3.350 130.234  0.00  0.00    +0.018 C 
ATOM     17  C   LIG A   1      -7.507   1.051 130.042  0.00  0.00    +0.128 C 
ATOM     18  O   LIG A   1      -8.580   0.271 130.606  0.00  0.00    -0.351 OA
ATOM     19  C   LIG A   1      -7.390   0.397 131.409  0.00  0.00    +0.260 C 
ATOM     20  C   LIG A   1      -7.539   1.185 132.658  0.00  0.00    +0.340 C 
ATOM     21  O   LIG A   1      -8.041   2.447 132.553  0.00  0.00    -0.454 OA
ATOM     22  C   LIG A   1      -8.692   2.868 131.334  0.00  0.00    +0.218 C 
ATOM     23  O   LIG A   1      -7.138   0.738 133.723  0.00  0.00    -0.248 OA
ATOM     24  O   LIG A   1      -6.810  -1.824 129.754  0.00  0.00    -0.297 OA
ATOM     25  C   LIG A   1      -7.998  -2.220 125.094  0.00  0.00    +0.031 C 
ATOM     26  C   LIG A   1      -8.561  -3.612 125.481  0.00  0.00    +0.019 C 
ATOM     27  C   LIG A   1      -6.694  -2.451 124.315  0.00  0.00    +0.019 C 
ENDROOT
BRANCH  22  28
ATOM     28  C   LIG A   1      -9.130   4.303 131.480  0.00  0.00    +0.031 A 
ATOM     29  C   LIG A   1      -8.541   5.294 132.244  0.00  0.00    +0.202 A 
ATOM     30  O   LIG A   1      -9.220   6.462 132.136  0.00  0.00    -0.471 OA
ATOM     31  C   LIG A   1     -10.278   6.231 131.321  0.00  0.00    +0.195 A 
ATOM     32  C   LIG A   1     -10.278   4.922 130.899  0.00  0.00    +0.048 A 
ENDBRANCH  22  28
TORSDOF 1
ENDMDL
MODEL 5
REMARK VINA RESULT:      -8.5      7.219     10.608
REMARK  Name = NuBBE_1053
REMARK  6 active torsions:
REMARK  status: ('A' for Active; 'I' for Inactive)
REMARK    1  A    between atoms: C_5  and  C_6
REMARK    2  A    between atoms: C_10  and  C_11
REMARK    3  A    between atoms: C_16  and  C_17
REMARK    4  A    between atoms: C_24  and  C_26
REMARK    5  A    between atoms: C_34  and  C_35
REMARK    6  A    between atoms: C_34  and  C_36
REMARK                            x       y       z     vdW  Elec       q    Type
REMARK                         _______ _______ _______ _____ _____    ______ ____
ROOT
ATOM      1  O   LIG A   1      -9.662   5.765 131.890  0.00  0.00    -0.292 OA
ATOM      2  C   LIG A   1      -8.438   5.806 132.009  0.00  0.00    +0.162 C 
ATOM      3  C   LIG A   1      -7.697   6.785 131.184  0.00  0.00    +0.043 C 
ATOM      4  C   LIG A   1      -6.360   6.848 131.169  0.00  0.00    -0.016 C 
ATOM      5  C   LIG A   1      -5.423   5.973 131.994  0.00  0.00    -0.006 C 
ATOM      6  C   LIG A   1      -4.924   4.878 131.030  0.00  0.00    +0.016 C 
ATOM      7  C   LIG A   1      -6.242   5.449 133.227  0.00  0.00    +0.019 C 
ATOM      8  C   LIG A   1      -5.378   4.567 134.125  0.00  0.00    +0.080 C 
ATOM      9  C   LIG A   1      -4.143   5.292 134.627  0.00  0.00    +0.143 C 
ATOM     10  C   LIG A   1      -3.267   6.059 133.598  0.00  0.00    +0.062 C 
ATOM     11  C   LIG A   1      -2.394   4.946 132.973  0.00  0.00    +0.022 C 
ATOM     12  C   LIG A   1      -4.222   6.819 132.593  0.00  0.00    +0.015 C 
ATOM     13  C   LIG A   1      -3.386   7.600 131.550  0.00  0.00    +0.006 C 
ATOM     14  C   LIG A   1      -2.539   8.674 132.230  0.00  0.00    +0.014 C 
ATOM     15  C   LIG A   1      -1.573   8.133 133.303  0.00  0.00    +0.042 C 
ATOM     16  C   LIG A   1      -0.368   7.431 132.634  0.00  0.00    +0.018 C 
ATOM     17  C   LIG A   1      -2.324   7.145 134.229  0.00  0.00    +0.128 C 
ATOM     18  O   LIG A   1      -2.934   7.786 135.368  0.00  0.00    -0.351 OA
ATOM     19  C   LIG A   1      -1.738   7.026 135.626  0.00  0.00    +0.260 C 
ATOM     20  C   LIG A   1      -0.551   7.815 136.037  0.00  0.00    +0.340 C 
ATOM     21  O   LIG A   1      -0.161   8.838 135.226  0.00  0.00    -0.454 OA
ATOM     22  C   LIG A   1      -1.050   9.325 134.198  0.00  0.00    +0.218 C 
ATOM     23  O   LIG A   1       0.097   7.491 137.022  0.00  0.00    -0.248 OA
ATOM     24  O   LIG A   1      -3.782   5.074 135.785  0.00  0.00    -0.297 OA
ATOM     25  C   LIG A   1      -7.656   4.849 132.918  0.00  0.00    +0.031 C 
ATOM     26  C   LIG A   1      -8.470   4.720 134.231  0.00  0.00    +0.019 C 
ATOM     27  C   LIG A   1      -7.641   3.468 132.247  0.00  0.00    +0.019 C 
ENDROOT
BRANCH  22  28
ATOM     28  C   LIG A   1      -0.366  10.435 133.440  0.00  0.00    +0.031 A 
ATOM     29  C   LIG A   1       0.990  10.606 133.230  0.00  0.00    +0.202 A 
ATOM     30  O   LIG A   1       1.235  11.728 132.511  0.00  0.00    -0.471 OA
ATOM     31  C   LIG A   1       0.036  12.315 132.272  0.00  0.00    +0.195 A 
ATOM     32  C   LIG A   1      -0.978  11.572 132.829  0.00  0.00    +0.048 A 
ENDBRANCH  22  28
TORSDOF 1
ENDMDL
MODEL 6
REMARK VINA RESULT:      -8.5      4.779      7.420
REMARK  Name = NuBBE_1053
REMARK  6 active torsions:
REMARK  status: ('A' for Active; 'I' for Inactive)
REMARK    1  A    between atoms: C_5  and  C_6
REMARK    2  A    between atoms: C_10  and  C_11
REMARK    3  A    between atoms: C_16  and  C_17
REMARK    4  A    between atoms: C_24  and  C_26
REMARK    5  A    between atoms: C_34  and  C_35
REMARK    6  A    between atoms: C_34  and  C_36
REMARK                            x       y       z     vdW  Elec       q    Type
REMARK                         _______ _______ _______ _____ _____    ______ ____
ROOT
ATOM      1  O   LIG A   1      -3.383  -3.947 131.285  0.00  0.00    -0.292 OA
ATOM      2  C   LIG A   1      -3.738  -2.768 131.282  0.00  0.00    +0.162 C 
ATOM      3  C   LIG A   1      -3.225  -1.892 132.357  0.00  0.00    +0.043 C 
ATOM      4  C   LIG A   1      -3.621  -0.621 132.499  0.00  0.00    -0.016 C 
ATOM      5  C   LIG A   1      -4.603   0.108 131.589  0.00  0.00    -0.006 C 
ATOM      6  C   LIG A   1      -5.953   0.086 132.334  0.00  0.00    +0.016 C 
ATOM      7  C   LIG A   1      -4.596  -0.638 130.207  0.00  0.00    +0.019 C 
ATOM      8  C   LIG A   1      -5.548   0.031 129.217  0.00  0.00    +0.080 C 
ATOM      9  C   LIG A   1      -5.207   1.492 128.990  0.00  0.00    +0.143 C 
ATOM     10  C   LIG A   1      -4.972   2.398 130.230  0.00  0.00    +0.062 C 
ATOM     11  C   LIG A   1      -6.406   2.774 130.673  0.00  0.00    +0.022 C 
ATOM     12  C   LIG A   1      -4.122   1.590 131.289  0.00  0.00    +0.015 C 
ATOM     13  C   LIG A   1      -3.864   2.461 132.543  0.00  0.00    +0.006 C 
ATOM     14  C   LIG A   1      -3.038   3.694 132.184  0.00  0.00    +0.014 C 
ATOM     15  C   LIG A   1      -3.678   4.592 131.105  0.00  0.00    +0.042 C 
ATOM     16  C   LIG A   1      -4.850   5.401 131.709  0.00  0.00    +0.018 C 
ATOM     17  C   LIG A   1      -4.176   3.719 129.929  0.00  0.00    +0.128 C 
ATOM     18  O   LIG A   1      -3.178   3.520 128.907  0.00  0.00    -0.351 OA
ATOM     19  C   LIG A   1      -4.241   4.442 128.594  0.00  0.00    +0.260 C 
ATOM     20  C   LIG A   1      -3.840   5.864 128.465  0.00  0.00    +0.340 C 
ATOM     21  O   LIG A   1      -3.166   6.427 129.506  0.00  0.00    -0.454 OA
ATOM     22  C   LIG A   1      -2.595   5.592 130.535  0.00  0.00    +0.218 C 
ATOM     23  O   LIG A   1      -4.186   6.519 127.492  0.00  0.00    -0.248 OA
ATOM     24  O   LIG A   1      -5.328   1.937 127.847  0.00  0.00    -0.297 OA
ATOM     25  C   LIG A   1      -4.728  -2.198 130.259  0.00  0.00    +0.031 C 
ATOM     26  C   LIG A   1      -4.343  -2.803 128.884  0.00  0.00    +0.019 C 
ATOM     27  C   LIG A   1      -6.128  -2.719 130.617  0.00  0.00    +0.019 C 
ENDROOT
BRANCH  22  28
ATOM     28  C   LIG A   1      -1.931   6.467 131.569  0.00  0.00    +0.031 A 
ATOM     29  C   LIG A   1      -2.352   7.701 132.028  0.00  0.00    +0.202 A 
ATOM     30  O   LIG A   1      -1.493   8.196 132.953  0.00  0.00    -0.471 OA
ATOM     31  C   LIG A   1      -0.487   7.296 133.081  0.00  0.00    +0.195 A 
ATOM     32  C   LIG A   1      -0.699   6.223 132.248  0.00  0.00    +0.048 A 
ENDBRANCH  22  28
TORSDOF 1
ENDMDL
MODEL 7
REMARK VINA RESULT:      -8.4      4.012      5.419
REMARK  Name = NuBBE_1053
REMARK  6 active torsions:
REMARK  status: ('A' for Active; 'I' for Inactive)
REMARK    1  A    between atoms: C_5  and  C_6
REMARK    2  A    between atoms: C_10  and  C_11
REMARK    3  A    between atoms: C_16  and  C_17
REMARK    4  A    between atoms: C_24  and  C_26
REMARK    5  A    between atoms: C_34  and  C_35
REMARK    6  A    between atoms: C_34  and  C_36
REMARK                            x       y       z     vdW  Elec       q    Type
REMARK                         _______ _______ _______ _____ _____    ______ ____
ROOT
ATOM      1  O   LIG A   1      -6.867   3.454 121.952  0.00  0.00    -0.292 OA
ATOM      2  C   LIG A   1      -6.600   3.344 123.149  0.00  0.00    +0.162 C 
ATOM      3  C   LIG A   1      -5.398   4.043 123.654  0.00  0.00    +0.043 C 
ATOM      4  C   LIG A   1      -4.968   3.915 124.915  0.00  0.00    -0.016 C 
ATOM      5  C   LIG A   1      -5.643   3.083 126.001  0.00  0.00    -0.006 C 
ATOM      6  C   LIG A   1      -4.836   1.771 126.077  0.00  0.00    +0.016 C 
ATOM      7  C   LIG A   1      -7.148   2.914 125.587  0.00  0.00    +0.019 C 
ATOM      8  C   LIG A   1      -7.914   2.098 126.627  0.00  0.00    +0.080 C 
ATOM      9  C   LIG A   1      -7.850   2.723 128.008  0.00  0.00    +0.143 C 
ATOM     10  C   LIG A   1      -6.465   3.159 128.559  0.00  0.00    +0.062 C 
ATOM     11  C   LIG A   1      -5.864   1.839 129.098  0.00  0.00    +0.022 C 
ATOM     12  C   LIG A   1      -5.654   3.848 127.390  0.00  0.00    +0.015 C 
ATOM     13  C   LIG A   1      -4.264   4.300 127.900  0.00  0.00    +0.006 C 
ATOM     14  C   LIG A   1      -4.406   5.352 128.999  0.00  0.00    +0.014 C 
ATOM     15  C   LIG A   1      -5.229   4.886 130.217  0.00  0.00    +0.042 C 
ATOM     16  C   LIG A   1      -4.398   3.912 131.085  0.00  0.00    +0.018 C 
ATOM     17  C   LIG A   1      -6.530   4.200 129.734  0.00  0.00    +0.128 C 
ATOM     18  O   LIG A   1      -7.631   5.117 129.574  0.00  0.00    -0.351 OA
ATOM     19  C   LIG A   1      -7.677   4.257 130.729  0.00  0.00    +0.260 C 
ATOM     20  C   LIG A   1      -7.529   4.934 132.041  0.00  0.00    +0.340 C 
ATOM     21  O   LIG A   1      -6.436   5.727 132.223  0.00  0.00    -0.454 OA
ATOM     22  C   LIG A   1      -5.643   6.137 131.088  0.00  0.00    +0.218 C 
ATOM     23  O   LIG A   1      -8.319   4.709 132.947  0.00  0.00    -0.248 OA
ATOM     24  O   LIG A   1      -8.864   2.672 128.707  0.00  0.00    -0.297 OA
ATOM     25  C   LIG A   1      -7.417   2.471 124.108  0.00  0.00    +0.031 C 
ATOM     26  C   LIG A   1      -8.909   2.699 123.756  0.00  0.00    +0.019 C 
ATOM     27  C   LIG A   1      -7.090   1.002 123.802  0.00  0.00    +0.019 C 
ENDROOT
BRANCH  22  28
ATOM     28  C   LIG A   1      -4.492   6.983 131.571  0.00  0.00    +0.031 A 
ATOM     29  C   LIG A   1      -3.842   7.996 130.890  0.00  0.00    +0.202 A 
ATOM     30  O   LIG A   1      -2.845   8.527 131.639  0.00  0.00    -0.471 OA
ATOM     31  C   LIG A   1      -2.820   7.840 132.808  0.00  0.00    +0.195 A 
ATOM     32  C   LIG A   1      -3.800   6.876 132.816  0.00  0.00    +0.048 A 
ENDBRANCH  22  28
TORSDOF 1
ENDMDL
MODEL 8
REMARK VINA RESULT:      -8.2      2.117      7.357
REMARK  Name = NuBBE_1053
REMARK  6 active torsions:
REMARK  status: ('A' for Active; 'I' for Inactive)
REMARK    1  A    between atoms: C_5  and  C_6
REMARK    2  A    between atoms: C_10  and  C_11
REMARK    3  A    between atoms: C_16  and  C_17
REMARK    4  A    between atoms: C_24  and  C_26
REMARK    5  A    between atoms: C_34  and  C_35
REMARK    6  A    between atoms: C_34  and  C_36
REMARK                            x       y       z     vdW  Elec       q    Type
REMARK                         _______ _______ _______ _____ _____    ______ ____
ROOT
ATOM      1  O   LIG A   1      -8.431   6.443 132.554  0.00  0.00    -0.292 OA
ATOM      2  C   LIG A   1      -8.376   5.269 132.189  0.00  0.00    +0.162 C 
ATOM      3  C   LIG A   1      -8.859   4.946 130.829  0.00  0.00    +0.043 C 
ATOM      4  C   LIG A   1      -8.928   3.691 130.369  0.00  0.00    -0.016 C 
ATOM      5  C   LIG A   1      -8.505   2.442 131.135  0.00  0.00    -0.006 C 
ATOM      6  C   LIG A   1      -9.811   1.828 131.678  0.00  0.00    +0.016 C 
ATOM      7  C   LIG A   1      -7.479   2.897 132.233  0.00  0.00    +0.019 C 
ATOM      8  C   LIG A   1      -6.985   1.704 133.050  0.00  0.00    +0.080 C 
ATOM      9  C   LIG A   1      -6.339   0.641 132.182  0.00  0.00    +0.143 C 
ATOM     10  C   LIG A   1      -7.093   0.165 130.911  0.00  0.00    +0.062 C 
ATOM     11  C   LIG A   1      -8.108  -0.863 131.463  0.00  0.00    +0.022 C 
ATOM     12  C   LIG A   1      -7.724   1.428 130.199  0.00  0.00    +0.015 C 
ATOM     13  C   LIG A   1      -8.485   0.995 128.922  0.00  0.00    +0.006 C 
ATOM     14  C   LIG A   1      -7.530   0.366 127.910  0.00  0.00    +0.014 C 
ATOM     15  C   LIG A   1      -6.762  -0.861 128.442  0.00  0.00    +0.042 C 
ATOM     16  C   LIG A   1      -7.698  -2.091 128.510  0.00  0.00    +0.018 C 
ATOM     17  C   LIG A   1      -6.186  -0.546 129.844  0.00  0.00    +0.128 C 
ATOM     18  O   LIG A   1      -4.864   0.029 129.799  0.00  0.00    -0.351 OA
ATOM     19  C   LIG A   1      -4.948  -1.349 130.209  0.00  0.00    +0.260 C 
ATOM     20  C   LIG A   1      -4.363  -2.337 129.269  0.00  0.00    +0.340 C 
ATOM     21  O   LIG A   1      -4.798  -2.315 127.979  0.00  0.00    -0.454 OA
ATOM     22  C   LIG A   1      -5.547  -1.184 127.486  0.00  0.00    +0.218 C 
ATOM     23  O   LIG A   1      -3.585  -3.189 129.673  0.00  0.00    -0.248 OA
ATOM     24  O   LIG A   1      -5.346   0.063 132.630  0.00  0.00    -0.297 OA
ATOM     25  C   LIG A   1      -7.892   4.134 133.101  0.00  0.00    +0.031 C 
ATOM     26  C   LIG A   1      -6.657   4.675 133.866  0.00  0.00    +0.019 C 
ATOM     27  C   LIG A   1      -8.993   3.861 134.137  0.00  0.00    +0.019 C 
ENDROOT
BRANCH  22  28
ATOM     28  C   LIG A   1      -5.920  -1.428 126.045  0.00  0.00    +0.031 A 
ATOM     29  C   LIG A   1      -6.058  -2.645 125.402  0.00  0.00    +0.202 A 
ATOM     30  O   LIG A   1      -6.393  -2.473 124.100  0.00  0.00    -0.471 OA
ATOM     31  C   LIG A   1      -6.447  -1.137 123.878  0.00  0.00    +0.195 A 
ATOM     32  C   LIG A   1      -6.154  -0.450 125.032  0.00  0.00    +0.048 A 
ENDBRANCH  22  28
TORSDOF 1
ENDMDL
MODEL 9
REMARK VINA RESULT:      -8.2      4.099      7.754
REMARK  Name = NuBBE_1053
REMARK  6 active torsions:
REMARK  status: ('A' for Active; 'I' for Inactive)
REMARK    1  A    between atoms: C_5  and  C_6
REMARK    2  A    between atoms: C_10  and  C_11
REMARK    3  A    between atoms: C_16  and  C_17
REMARK    4  A    between atoms: C_24  and  C_26
REMARK    5  A    between atoms: C_34  and  C_35
REMARK    6  A    between atoms: C_34  and  C_36
REMARK                            x       y       z     vdW  Elec       q    Type
REMARK                         _______ _______ _______ _____ _____    ______ ____
ROOT
ATOM      1  O   LIG A   1      -2.431   7.020 131.526  0.00  0.00    -0.292 OA
ATOM      2  C   LIG A   1      -2.813   6.177 130.715  0.00  0.00    +0.162 C 
ATOM      3  C   LIG A   1      -2.723   4.753 131.106  0.00  0.00    +0.043 C 
ATOM      4  C   LIG A   1      -3.025   3.756 130.265  0.00  0.00    -0.016 C 
ATOM      5  C   LIG A   1      -3.523   3.924 128.834  0.00  0.00    -0.006 C 
ATOM      6  C   LIG A   1      -2.290   3.693 127.937  0.00  0.00    +0.016 C 
ATOM      7  C   LIG A   1      -4.160   5.356 128.729  0.00  0.00    +0.019 C 
ATOM      8  C   LIG A   1      -4.702   5.614 127.324  0.00  0.00    +0.080 C 
ATOM      9  C   LIG A   1      -5.735   4.583 126.908  0.00  0.00    +0.143 C 
ATOM     10  C   LIG A   1      -5.399   3.079 127.103  0.00  0.00    +0.062 C 
ATOM     11  C   LIG A   1      -4.529   2.745 125.869  0.00  0.00    +0.022 C 
ATOM     12  C   LIG A   1      -4.689   2.901 128.504  0.00  0.00    +0.015 C 
ATOM     13  C   LIG A   1      -4.339   1.411 128.739  0.00  0.00    +0.006 C 
ATOM     14  C   LIG A   1      -5.606   0.559 128.790  0.00  0.00    +0.014 C 
ATOM     15  C   LIG A   1      -6.479   0.647 127.521  0.00  0.00    +0.042 C 
ATOM     16  C   LIG A   1      -5.833  -0.160 126.370  0.00  0.00    +0.018 C 
ATOM     17  C   LIG A   1      -6.650   2.129 127.110  0.00  0.00    +0.128 C 
ATOM     18  O   LIG A   1      -7.796   2.759 127.717  0.00  0.00    -0.351 OA
ATOM     19  C   LIG A   1      -7.917   2.420 126.322  0.00  0.00    +0.260 C 
ATOM     20  C   LIG A   1      -8.892   1.347 126.004  0.00  0.00    +0.340 C 
ATOM     21  O   LIG A   1      -8.759   0.159 126.656  0.00  0.00    -0.454 OA
ATOM     22  C   LIG A   1      -7.916   0.064 127.824  0.00  0.00    +0.218 C 
ATOM     23  O   LIG A   1      -9.723   1.509 125.122  0.00  0.00    -0.248 OA
ATOM     24  O   LIG A   1      -6.703   4.975 126.254  0.00  0.00    -0.297 OA
ATOM     25  C   LIG A   1      -3.312   6.538 129.310  0.00  0.00    +0.031 C 
ATOM     26  C   LIG A   1      -4.204   7.797 129.465  0.00  0.00    +0.019 C 
ATOM     27  C   LIG A   1      -2.093   6.937 128.466  0.00  0.00    +0.019 C 
ENDROOT
BRANCH  22  28
ATOM     28  C   LIG A   1      -7.932  -1.356 128.330  0.00  0.00    +0.031 A 
ATOM     29  C   LIG A   1      -8.102  -2.514 127.595  0.00  0.00    +0.202 A 
ATOM     30  O   LIG A   1      -8.070  -3.609 128.394  0.00  0.00    -0.471 OA
ATOM     31  C   LIG A   1      -7.907  -3.166 129.665  0.00  0.00    +0.195 A 
ATOM     32  C   LIG A   1      -7.828  -1.794 129.686  0.00  0.00    +0.048 A 
ENDBRANCH  22  28
TORSDOF 1
ENDMDL
