MODEL 1
REMARK VINA RESULT:      -7.4      0.000      0.000
REMARK  Name = NuBBE_1515
REMARK  21 active torsions:
REMARK  status: ('A' for Active; 'I' for Inactive)
REMARK    1  A    between atoms: C_7  and  C_11
REMARK    2  A    between atoms: C_8  and  O_9
REMARK    3  A    between atoms: O_9  and  C_10
REMARK    4  A    between atoms: C_11  and  C_12
REMARK    5  A    between atoms: C_12  and  C_13
REMARK    6  A    between atoms: C_13  and  C_14
REMARK    7  A    between atoms: C_14  and  C_15
REMARK    8  A    between atoms: C_15  and  C_16
REMARK    9  A    between atoms: C_16  and  C_17
REMARK   10  A    between atoms: C_17  and  C_18
REMARK   11  A    between atoms: C_18  and  C_19
REMARK   12  A    between atoms: C_19  and  C_20
REMARK   13  A    between atoms: C_20  and  C_21
REMARK   14  A    between atoms: C_21  and  C_22
REMARK   15  A    between atoms: C_22  and  C_23
REMARK   16  A    between atoms: C_23  and  C_24
REMARK   17  A    between atoms: C_24  and  C_25
REMARK   18  A    between atoms: C_24  and  C_28
REMARK   19  A    between atoms: C_24  and  O_29
REMARK   20  A    between atoms: C_25  and  C_26
REMARK   21  A    between atoms: C_25  and  C_27
REMARK                            x       y       z     vdW  Elec       q    Type
REMARK                         _______ _______ _______ _____ _____    ______ ____
ROOT
ATOM      1  C   LIG A   1      -8.047   2.143 132.950  0.00  0.00    +0.000 C 
ENDROOT
BRANCH   1   2
ATOM      2  C   LIG A   1      -8.019   0.844 132.137  0.00  0.00    +0.000 C 
BRANCH   2   3
ATOM      3  C   LIG A   1      -7.457   0.941 130.711  0.00  0.00    -0.000 C 
BRANCH   3   4
ATOM      4  C   LIG A   1      -7.832  -0.183 129.742  0.00  0.00    -0.000 C 
BRANCH   4   5
ATOM      5  C   LIG A   1      -7.432  -1.617 130.132  0.00  0.00    -0.000 C 
BRANCH   5   6
ATOM      6  C   LIG A   1      -7.354  -2.691 129.005  0.00  0.00    -0.000 C 
BRANCH   6   7
ATOM      7  C   LIG A   1      -8.687  -3.408 128.655  0.00  0.00    -0.000 C 
BRANCH   7   8
ATOM      8  C   LIG A   1      -8.886  -3.930 127.213  0.00  0.00    -0.000 C 
BRANCH   8   9
ATOM      9  C   LIG A   1      -9.225  -2.813 126.152  0.00  0.00    +0.000 C 
BRANCH   9  10
ATOM     10  C   LIG A   1      -9.135  -3.354 124.691  0.00  0.00    +0.003 C 
BRANCH  10  11
ATOM     11  C   LIG A   1      -8.500  -2.433 123.607  0.00  0.00    +0.035 C 
BRANCH  11  12
ATOM     12  C   LIG A   1      -6.961  -2.040 123.723  0.00  0.00    +0.066 C 
ATOM     13  C   LIG A   1      -6.401  -1.914 122.274  0.00  0.00    +0.041 C 
BRANCH  12  14
ATOM     14  C   LIG A   1      -6.018  -2.993 124.560  0.00  0.00    +0.014 C 
ATOM     15  C   LIG A   1      -4.782  -3.513 123.778  0.00  0.00    +0.010 C 
ATOM     16  C   LIG A   1      -5.459  -2.391 125.851  0.00  0.00    +0.010 C 
ENDBRANCH  12  14
BRANCH  12  17
ATOM     17  O   LIG A   1      -6.918  -0.728 124.308  0.00  0.00    -0.389 OA
ATOM     18  H   LIG A   1      -7.796  -0.321 124.214  0.00  0.00    +0.210 HD
ENDBRANCH  12  17
ENDBRANCH  11  12
ENDBRANCH  10  11
ENDBRANCH   9  10
ENDBRANCH   8   9
ENDBRANCH   7   8
ENDBRANCH   6   7
ENDBRANCH   5   6
ENDBRANCH   4   5
ENDBRANCH   3   4
ENDBRANCH   2   3
ENDBRANCH   1   2
BRANCH   1  19
ATOM     19  C   LIG A   1      -9.418   2.823 133.032  0.00  0.00    +0.006 C 
BRANCH  19  20
ATOM     20  C   LIG A   1      -9.332   4.377 133.021  0.00  0.00    +0.057 C 
BRANCH  20  27
ATOM     21  O   LIG A   1      -9.400   5.914 128.290  0.00  0.00    -0.283 OA
ATOM     22  C   LIG A   1      -9.780   5.945 129.484  0.00  0.00    +0.231 A 
ATOM     23  C   LIG A   1     -10.876   6.859 129.795  0.00  0.00    +0.049 A 
ATOM     24  C   LIG A   1     -11.514   6.706 131.026  0.00  0.00    +0.051 A 
ATOM     25  N   LIG A   1     -11.109   5.686 131.888  0.00  0.00    -0.355 N 
ATOM     26  H   LIG A   1     -11.526   5.701 132.811  0.00  0.00    +0.166 HD
ATOM     27  C   LIG A   1      -9.860   5.077 131.757  0.00  0.00    +0.062 A 
ATOM     28  C   LIG A   1      -9.151   5.141 130.593  0.00  0.00    +0.186 A 
ATOM     29  C   LIG A   1     -12.567   7.570 131.342  0.00  0.00    +0.026 A 
ATOM     30  C   LIG A   1     -12.959   8.572 130.448  0.00  0.00    +0.002 A 
ATOM     31  C   LIG A   1     -12.309   8.714 129.222  0.00  0.00    +0.001 A 
ATOM     32  C   LIG A   1     -11.266   7.857 128.892  0.00  0.00    +0.014 A 
BRANCH  28  33
ATOM     33  O   LIG A   1      -7.882   4.584 130.481  0.00  0.00    -0.490 OA
ATOM     34  C   LIG A   1      -6.726   5.418 130.607  0.00  0.00    +0.277 C 
ENDBRANCH  28  33
ENDBRANCH  20  27
ENDBRANCH  19  20
ENDBRANCH   1  19
TORSDOF 17
ENDMDL
MODEL 2
REMARK VINA RESULT:      -7.1      1.905      2.623
REMARK  Name = NuBBE_1515
REMARK  21 active torsions:
REMARK  status: ('A' for Active; 'I' for Inactive)
REMARK    1  A    between atoms: C_7  and  C_11
REMARK    2  A    between atoms: C_8  and  O_9
REMARK    3  A    between atoms: O_9  and  C_10
REMARK    4  A    between atoms: C_11  and  C_12
REMARK    5  A    between atoms: C_12  and  C_13
REMARK    6  A    between atoms: C_13  and  C_14
REMARK    7  A    between atoms: C_14  and  C_15
REMARK    8  A    between atoms: C_15  and  C_16
REMARK    9  A    between atoms: C_16  and  C_17
REMARK   10  A    between atoms: C_17  and  C_18
REMARK   11  A    between atoms: C_18  and  C_19
REMARK   12  A    between atoms: C_19  and  C_20
REMARK   13  A    between atoms: C_20  and  C_21
REMARK   14  A    between atoms: C_21  and  C_22
REMARK   15  A    between atoms: C_22  and  C_23
REMARK   16  A    between atoms: C_23  and  C_24
REMARK   17  A    between atoms: C_24  and  C_25
REMARK   18  A    between atoms: C_24  and  C_28
REMARK   19  A    between atoms: C_24  and  O_29
REMARK   20  A    between atoms: C_25  and  C_26
REMARK   21  A    between atoms: C_25  and  C_27
REMARK                            x       y       z     vdW  Elec       q    Type
REMARK                         _______ _______ _______ _____ _____    ______ ____
ROOT
ATOM      1  C   LIG A   1      -8.413   1.003 131.918  0.00  0.00    +0.000 C 
ENDROOT
BRANCH   1   2
ATOM      2  C   LIG A   1      -8.661  -0.478 131.609  0.00  0.00    +0.000 C 
BRANCH   2   3
ATOM      3  C   LIG A   1      -8.002  -1.031 130.337  0.00  0.00    -0.000 C 
BRANCH   3   4
ATOM      4  C   LIG A   1      -7.806  -2.547 130.264  0.00  0.00    -0.000 C 
BRANCH   4   5
ATOM      5  C   LIG A   1      -8.219  -3.253 128.960  0.00  0.00    -0.000 C 
BRANCH   5   6
ATOM      6  C   LIG A   1      -7.995  -2.501 127.614  0.00  0.00    -0.000 C 
BRANCH   6   7
ATOM      7  C   LIG A   1      -8.927  -2.914 126.441  0.00  0.00    -0.000 C 
BRANCH   7   8
ATOM      8  C   LIG A   1      -8.295  -3.587 125.200  0.00  0.00    -0.000 C 
BRANCH   8   9
ATOM      9  C   LIG A   1      -6.972  -2.900 124.684  0.00  0.00    +0.000 C 
BRANCH   9  10
ATOM     10  C   LIG A   1      -7.243  -1.471 124.119  0.00  0.00    +0.003 C 
BRANCH  10  11
ATOM     11  C   LIG A   1      -6.728  -0.250 124.937  0.00  0.00    +0.035 C 
BRANCH  11  12
ATOM     12  C   LIG A   1      -7.248   1.209 124.570  0.00  0.00    +0.066 C 
ATOM     13  C   LIG A   1      -6.190   2.227 125.094  0.00  0.00    +0.041 C 
BRANCH  12  14
ATOM     14  C   LIG A   1      -8.678   1.635 125.092  0.00  0.00    +0.014 C 
ATOM     15  C   LIG A   1      -9.791   1.586 124.010  0.00  0.00    +0.010 C 
ATOM     16  C   LIG A   1      -9.216   0.816 126.266  0.00  0.00    +0.010 C 
ENDBRANCH  12  14
BRANCH  12  17
ATOM     17  O   LIG A   1      -7.242   1.296 123.135  0.00  0.00    -0.389 OA
ATOM     18  H   LIG A   1      -8.009   1.825 122.856  0.00  0.00    +0.210 HD
ENDBRANCH  12  17
ENDBRANCH  11  12
ENDBRANCH  10  11
ENDBRANCH   9  10
ENDBRANCH   8   9
ENDBRANCH   7   8
ENDBRANCH   6   7
ENDBRANCH   5   6
ENDBRANCH   4   5
ENDBRANCH   3   4
ENDBRANCH   2   3
ENDBRANCH   1   2
BRANCH   1  19
ATOM     19  C   LIG A   1      -9.679   1.861 132.024  0.00  0.00    +0.006 C 
BRANCH  19  20
ATOM     20  C   LIG A   1      -9.380   3.365 132.284  0.00  0.00    +0.057 C 
BRANCH  20  27
ATOM     21  O   LIG A   1      -9.270   5.925 128.020  0.00  0.00    -0.283 OA
ATOM     22  C   LIG A   1      -9.682   5.700 129.182  0.00  0.00    +0.231 A 
ATOM     23  C   LIG A   1     -10.759   6.560 129.668  0.00  0.00    +0.049 A 
ATOM     24  C   LIG A   1     -11.435   6.158 130.820  0.00  0.00    +0.051 A 
ATOM     25  N   LIG A   1     -11.084   4.956 131.439  0.00  0.00    -0.355 N 
ATOM     26  H   LIG A   1     -11.526   4.779 132.333  0.00  0.00    +0.166 HD
ATOM     27  C   LIG A   1      -9.851   4.349 131.200  0.00  0.00    +0.062 A 
ATOM     28  C   LIG A   1      -9.108   4.647 130.095  0.00  0.00    +0.186 A 
ATOM     29  C   LIG A   1     -12.470   6.965 131.300  0.00  0.00    +0.026 A 
ATOM     30  C   LIG A   1     -12.807   8.155 130.647  0.00  0.00    +0.002 A 
ATOM     31  C   LIG A   1     -12.119   8.546 129.498  0.00  0.00    +0.001 A 
ATOM     32  C   LIG A   1     -11.093   7.748 129.005  0.00  0.00    +0.014 A 
BRANCH  28  33
ATOM     33  O   LIG A   1      -7.854   4.084 129.886  0.00  0.00    -0.490 OA
ATOM     34  C   LIG A   1      -7.704   3.014 128.947  0.00  0.00    +0.277 C 
ENDBRANCH  28  33
ENDBRANCH  20  27
ENDBRANCH  19  20
ENDBRANCH   1  19
TORSDOF 17
ENDMDL
MODEL 3
REMARK VINA RESULT:      -7.0      3.435      5.918
REMARK  Name = NuBBE_1515
REMARK  21 active torsions:
REMARK  status: ('A' for Active; 'I' for Inactive)
REMARK    1  A    between atoms: C_7  and  C_11
REMARK    2  A    between atoms: C_8  and  O_9
REMARK    3  A    between atoms: O_9  and  C_10
REMARK    4  A    between atoms: C_11  and  C_12
REMARK    5  A    between atoms: C_12  and  C_13
REMARK    6  A    between atoms: C_13  and  C_14
REMARK    7  A    between atoms: C_14  and  C_15
REMARK    8  A    between atoms: C_15  and  C_16
REMARK    9  A    between atoms: C_16  and  C_17
REMARK   10  A    between atoms: C_17  and  C_18
REMARK   11  A    between atoms: C_18  and  C_19
REMARK   12  A    between atoms: C_19  and  C_20
REMARK   13  A    between atoms: C_20  and  C_21
REMARK   14  A    between atoms: C_21  and  C_22
REMARK   15  A    between atoms: C_22  and  C_23
REMARK   16  A    between atoms: C_23  and  C_24
REMARK   17  A    between atoms: C_24  and  C_25
REMARK   18  A    between atoms: C_24  and  C_28
REMARK   19  A    between atoms: C_24  and  O_29
REMARK   20  A    between atoms: C_25  and  C_26
REMARK   21  A    between atoms: C_25  and  C_27
REMARK                            x       y       z     vdW  Elec       q    Type
REMARK                         _______ _______ _______ _____ _____    ______ ____
ROOT
ATOM      1  C   LIG A   1      -8.003  -0.950 129.815  0.00  0.00    +0.000 C 
ENDROOT
BRANCH   1   2
ATOM      2  C   LIG A   1      -7.875  -2.472 129.943  0.00  0.00    +0.000 C 
BRANCH   2   3
ATOM      3  C   LIG A   1      -7.637  -3.251 128.641  0.00  0.00    -0.000 C 
BRANCH   3   4
ATOM      4  C   LIG A   1      -8.854  -3.932 128.012  0.00  0.00    -0.000 C 
BRANCH   4   5
ATOM      5  C   LIG A   1      -9.354  -3.386 126.663  0.00  0.00    -0.000 C 
BRANCH   5   6
ATOM      6  C   LIG A   1      -8.359  -2.567 125.787  0.00  0.00    -0.000 C 
BRANCH   6   7
ATOM      7  C   LIG A   1      -8.000  -3.183 124.406  0.00  0.00    -0.000 C 
BRANCH   7   8
ATOM      8  C   LIG A   1      -8.466  -2.446 123.128  0.00  0.00    -0.000 C 
BRANCH   8   9
ATOM      9  C   LIG A   1      -8.780  -0.914 123.333  0.00  0.00    +0.000 C 
BRANCH   9  10
ATOM     10  C   LIG A   1      -7.478  -0.053 123.359  0.00  0.00    +0.003 C 
BRANCH  10  11
ATOM     11  C   LIG A   1      -7.255   0.900 124.570  0.00  0.00    +0.035 C 
BRANCH  11  12
ATOM     12  C   LIG A   1      -7.761   2.407 124.479  0.00  0.00    +0.066 C 
ATOM     13  C   LIG A   1      -7.975   2.738 122.971  0.00  0.00    +0.041 C 
BRANCH  12  14
ATOM     14  C   LIG A   1      -6.857   3.528 125.130  0.00  0.00    +0.014 C 
ATOM     15  C   LIG A   1      -5.667   3.982 124.242  0.00  0.00    +0.010 C 
ATOM     16  C   LIG A   1      -7.588   4.814 125.518  0.00  0.00    +0.010 C 
ENDBRANCH  12  14
BRANCH  12  17
ATOM     17  O   LIG A   1      -9.053   2.443 125.106  0.00  0.00    -0.389 OA
ATOM     18  H   LIG A   1      -9.664   2.925 124.523  0.00  0.00    +0.210 HD
ENDBRANCH  12  17
ENDBRANCH  11  12
ENDBRANCH  10  11
ENDBRANCH   9  10
ENDBRANCH   8   9
ENDBRANCH   7   8
ENDBRANCH   6   7
ENDBRANCH   5   6
ENDBRANCH   4   5
ENDBRANCH   3   4
ENDBRANCH   2   3
ENDBRANCH   1   2
BRANCH   1  19
ATOM     19  C   LIG A   1      -7.535  -0.374 128.474  0.00  0.00    +0.006 C 
BRANCH  19  20
ATOM     20  C   LIG A   1      -8.083   1.055 128.196  0.00  0.00    +0.057 C 
BRANCH  20  27
ATOM     21  O   LIG A   1      -6.655   5.587 129.669  0.00  0.00    -0.283 OA
ATOM     22  C   LIG A   1      -6.486   4.497 129.073  0.00  0.00    +0.231 A 
ATOM     23  C   LIG A   1      -5.173   4.281 128.471  0.00  0.00    +0.049 A 
ATOM     24  C   LIG A   1      -4.854   2.985 128.067  0.00  0.00    +0.051 A 
ATOM     25  N   LIG A   1      -5.773   1.954 128.275  0.00  0.00    -0.355 N 
ATOM     26  H   LIG A   1      -5.535   1.064 127.854  0.00  0.00    +0.166 HD
ATOM     27  C   LIG A   1      -7.125   2.220 128.496  0.00  0.00    +0.062 A 
ATOM     28  C   LIG A   1      -7.554   3.446 128.914  0.00  0.00    +0.186 A 
ATOM     29  C   LIG A   1      -3.601   2.756 127.490  0.00  0.00    +0.026 A 
ATOM     30  C   LIG A   1      -2.698   3.809 127.310  0.00  0.00    +0.002 A 
ATOM     31  C   LIG A   1      -3.032   5.101 127.717  0.00  0.00    +0.001 A 
ATOM     32  C   LIG A   1      -4.271   5.340 128.299  0.00  0.00    +0.014 A 
BRANCH  28  33
ATOM     33  O   LIG A   1      -8.906   3.727 129.080  0.00  0.00    -0.490 OA
ATOM     34  C   LIG A   1      -9.489   3.661 130.386  0.00  0.00    +0.277 C 
ENDBRANCH  28  33
ENDBRANCH  20  27
ENDBRANCH  19  20
ENDBRANCH   1  19
TORSDOF 17
ENDMDL
MODEL 4
REMARK VINA RESULT:      -7.0      4.616      7.154
REMARK  Name = NuBBE_1515
REMARK  21 active torsions:
REMARK  status: ('A' for Active; 'I' for Inactive)
REMARK    1  A    between atoms: C_7  and  C_11
REMARK    2  A    between atoms: C_8  and  O_9
REMARK    3  A    between atoms: O_9  and  C_10
REMARK    4  A    between atoms: C_11  and  C_12
REMARK    5  A    between atoms: C_12  and  C_13
REMARK    6  A    between atoms: C_13  and  C_14
REMARK    7  A    between atoms: C_14  and  C_15
REMARK    8  A    between atoms: C_15  and  C_16
REMARK    9  A    between atoms: C_16  and  C_17
REMARK   10  A    between atoms: C_17  and  C_18
REMARK   11  A    between atoms: C_18  and  C_19
REMARK   12  A    between atoms: C_19  and  C_20
REMARK   13  A    between atoms: C_20  and  C_21
REMARK   14  A    between atoms: C_21  and  C_22
REMARK   15  A    between atoms: C_22  and  C_23
REMARK   16  A    between atoms: C_23  and  C_24
REMARK   17  A    between atoms: C_24  and  C_25
REMARK   18  A    between atoms: C_24  and  C_28
REMARK   19  A    between atoms: C_24  and  O_29
REMARK   20  A    between atoms: C_25  and  C_26
REMARK   21  A    between atoms: C_25  and  C_27
REMARK                            x       y       z     vdW  Elec       q    Type
REMARK                         _______ _______ _______ _____ _____    ______ ____
ROOT
ATOM      1  C   LIG A   1      -7.921   3.290 134.153  0.00  0.00    +0.000 C 
ENDROOT
BRANCH   1   2
ATOM      2  C   LIG A   1      -7.123   4.367 134.897  0.00  0.00    +0.000 C 
BRANCH   2   3
ATOM      3  C   LIG A   1      -6.911   5.695 134.156  0.00  0.00    -0.000 C 
BRANCH   3   4
ATOM      4  C   LIG A   1      -5.565   5.887 133.454  0.00  0.00    -0.000 C 
BRANCH   4   5
ATOM      5  C   LIG A   1      -5.332   5.113 132.144  0.00  0.00    -0.000 C 
BRANCH   5   6
ATOM      6  C   LIG A   1      -4.781   3.658 132.237  0.00  0.00    -0.000 C 
BRANCH   6   7
ATOM      7  C   LIG A   1      -3.242   3.523 132.402  0.00  0.00    -0.000 C 
BRANCH   7   8
ATOM      8  C   LIG A   1      -2.461   4.706 133.021  0.00  0.00    -0.000 C 
BRANCH   8   9
ATOM      9  C   LIG A   1      -1.063   4.992 132.349  0.00  0.00    +0.000 C 
BRANCH   9  10
ATOM     10  C   LIG A   1      -1.078   6.315 131.521  0.00  0.00    +0.003 C 
BRANCH  10  11
ATOM     11  C   LIG A   1      -2.429   6.771 130.894  0.00  0.00    +0.035 C 
BRANCH  11  12
ATOM     12  C   LIG A   1      -2.733   6.431 129.368  0.00  0.00    +0.066 C 
ATOM     13  C   LIG A   1      -3.733   7.505 128.841  0.00  0.00    +0.041 C 
BRANCH  12  14
ATOM     14  C   LIG A   1      -3.296   4.993 129.032  0.00  0.00    +0.014 C 
ATOM     15  C   LIG A   1      -4.763   4.986 128.524  0.00  0.00    +0.010 C 
ATOM     16  C   LIG A   1      -2.501   4.207 127.989  0.00  0.00    +0.010 C 
ENDBRANCH  12  14
BRANCH  12  17
ATOM     17  O   LIG A   1      -1.500   6.616 128.654  0.00  0.00    -0.389 OA
ATOM     18  H   LIG A   1      -1.694   6.618 127.701  0.00  0.00    +0.210 HD
ENDBRANCH  12  17
ENDBRANCH  11  12
ENDBRANCH  10  11
ENDBRANCH   9  10
ENDBRANCH   8   9
ENDBRANCH   7   8
ENDBRANCH   6   7
ENDBRANCH   5   6
ENDBRANCH   4   5
ENDBRANCH   3   4
ENDBRANCH   2   3
ENDBRANCH   1   2
BRANCH   1  19
ATOM     19  C   LIG A   1      -9.261   3.762 133.578  0.00  0.00    +0.006 C 
BRANCH  19  20
ATOM     20  C   LIG A   1      -9.554   3.191 132.160  0.00  0.00    +0.057 C 
BRANCH  20  27
ATOM     21  O   LIG A   1      -9.134   5.846 127.974  0.00  0.00    -0.283 OA
ATOM     22  C   LIG A   1      -9.613   5.609 129.109  0.00  0.00    +0.231 A 
ATOM     23  C   LIG A   1     -10.683   6.495 129.561  0.00  0.00    +0.049 A 
ATOM     24  C   LIG A   1     -11.431   6.091 130.666  0.00  0.00    +0.051 A 
ATOM     25  N   LIG A   1     -11.155   4.863 131.271  0.00  0.00    -0.355 N 
ATOM     26  H   LIG A   1     -11.649   4.681 132.137  0.00  0.00    +0.166 HD
ATOM     27  C   LIG A   1      -9.933   4.217 131.080  0.00  0.00    +0.062 A 
ATOM     28  C   LIG A   1      -9.124   4.515 130.022  0.00  0.00    +0.186 A 
ATOM     29  C   LIG A   1     -12.461   6.923 131.114  0.00  0.00    +0.026 A 
ATOM     30  C   LIG A   1     -12.722   8.140 130.475  0.00  0.00    +0.002 A 
ATOM     31  C   LIG A   1     -11.962   8.533 129.373  0.00  0.00    +0.001 A 
ATOM     32  C   LIG A   1     -10.941   7.711 128.912  0.00  0.00    +0.014 A 
BRANCH  28  33
ATOM     33  O   LIG A   1      -7.881   3.912 129.862  0.00  0.00    -0.490 OA
ATOM     34  C   LIG A   1      -7.748   2.779 128.997  0.00  0.00    +0.277 C 
ENDBRANCH  28  33
ENDBRANCH  20  27
ENDBRANCH  19  20
ENDBRANCH   1  19
TORSDOF 17
ENDMDL
MODEL 5
REMARK VINA RESULT:      -7.0      1.466      1.877
REMARK  Name = NuBBE_1515
REMARK  21 active torsions:
REMARK  status: ('A' for Active; 'I' for Inactive)
REMARK    1  A    between atoms: C_7  and  C_11
REMARK    2  A    between atoms: C_8  and  O_9
REMARK    3  A    between atoms: O_9  and  C_10
REMARK    4  A    between atoms: C_11  and  C_12
REMARK    5  A    between atoms: C_12  and  C_13
REMARK    6  A    between atoms: C_13  and  C_14
REMARK    7  A    between atoms: C_14  and  C_15
REMARK    8  A    between atoms: C_15  and  C_16
REMARK    9  A    between atoms: C_16  and  C_17
REMARK   10  A    between atoms: C_17  and  C_18
REMARK   11  A    between atoms: C_18  and  C_19
REMARK   12  A    between atoms: C_19  and  C_20
REMARK   13  A    between atoms: C_20  and  C_21
REMARK   14  A    between atoms: C_21  and  C_22
REMARK   15  A    between atoms: C_22  and  C_23
REMARK   16  A    between atoms: C_23  and  C_24
REMARK   17  A    between atoms: C_24  and  C_25
REMARK   18  A    between atoms: C_24  and  C_28
REMARK   19  A    between atoms: C_24  and  O_29
REMARK   20  A    between atoms: C_25  and  C_26
REMARK   21  A    between atoms: C_25  and  C_27
REMARK                            x       y       z     vdW  Elec       q    Type
REMARK                         _______ _______ _______ _____ _____    ______ ____
ROOT
ATOM      1  C   LIG A   1      -8.366   1.842 132.543  0.00  0.00    +0.000 C 
ENDROOT
BRANCH   1   2
ATOM      2  C   LIG A   1      -8.599   0.955 131.315  0.00  0.00    +0.000 C 
BRANCH   2   3
ATOM      3  C   LIG A   1      -8.235  -0.530 131.464  0.00  0.00    -0.000 C 
BRANCH   3   4
ATOM      4  C   LIG A   1      -6.839  -0.848 132.003  0.00  0.00    -0.000 C 
BRANCH   4   5
ATOM      5  C   LIG A   1      -6.046  -1.966 131.303  0.00  0.00    -0.000 C 
BRANCH   5   6
ATOM      6  C   LIG A   1      -6.778  -3.310 131.006  0.00  0.00    -0.000 C 
BRANCH   6   7
ATOM      7  C   LIG A   1      -7.044  -3.623 129.508  0.00  0.00    -0.000 C 
BRANCH   7   8
ATOM      8  C   LIG A   1      -8.392  -3.180 128.891  0.00  0.00    -0.000 C 
BRANCH   8   9
ATOM      9  C   LIG A   1      -8.871  -4.053 127.668  0.00  0.00    +0.000 C 
BRANCH   9  10
ATOM     10  C   LIG A   1      -9.409  -3.169 126.500  0.00  0.00    +0.003 C 
BRANCH  10  11
ATOM     11  C   LIG A   1      -8.557  -1.943 126.057  0.00  0.00    +0.035 C 
BRANCH  11  12
ATOM     12  C   LIG A   1      -7.687  -2.038 124.727  0.00  0.00    +0.066 C 
ATOM     13  C   LIG A   1      -8.168  -3.298 123.944  0.00  0.00    +0.041 C 
BRANCH  12  14
ATOM     14  C   LIG A   1      -6.115  -2.093 124.877  0.00  0.00    +0.014 C 
ATOM     15  C   LIG A   1      -5.619  -2.219 126.343  0.00  0.00    +0.010 C 
ATOM     16  C   LIG A   1      -5.424  -3.226 124.116  0.00  0.00    +0.010 C 
ENDBRANCH  12  14
BRANCH  12  17
ATOM     17  O   LIG A   1      -8.029  -0.891 123.932  0.00  0.00    -0.389 OA
ATOM     18  H   LIG A   1      -7.231  -0.347 123.819  0.00  0.00    +0.210 HD
ENDBRANCH  12  17
ENDBRANCH  11  12
ENDBRANCH  10  11
ENDBRANCH   9  10
ENDBRANCH   8   9
ENDBRANCH   7   8
ENDBRANCH   6   7
ENDBRANCH   5   6
ENDBRANCH   4   5
ENDBRANCH   3   4
ENDBRANCH   2   3
ENDBRANCH   1   2
BRANCH   1  19
ATOM     19  C   LIG A   1      -9.607   2.590 133.043  0.00  0.00    +0.006 C 
BRANCH  19  20
ATOM     20  C   LIG A   1      -9.335   4.090 133.351  0.00  0.00    +0.057 C 
BRANCH  20  27
ATOM     21  O   LIG A   1      -7.752   7.698 130.314  0.00  0.00    -0.283 OA
ATOM     22  C   LIG A   1      -8.621   6.920 130.773  0.00  0.00    +0.231 A 
ATOM     23  C   LIG A   1      -9.927   6.946 130.119  0.00  0.00    +0.049 A 
ATOM     24  C   LIG A   1     -10.810   5.903 130.401  0.00  0.00    +0.051 A 
ATOM     25  N   LIG A   1     -10.410   4.877 131.259  0.00  0.00    -0.355 N 
ATOM     26  H   LIG A   1     -11.133   4.216 131.518  0.00  0.00    +0.166 HD
ATOM     27  C   LIG A   1      -9.345   5.045 132.145  0.00  0.00    +0.062 A 
ATOM     28  C   LIG A   1      -8.407   6.018 131.960  0.00  0.00    +0.186 A 
ATOM     29  C   LIG A   1     -12.064   5.907 129.784  0.00  0.00    +0.026 A 
ATOM     30  C   LIG A   1     -12.428   6.943 128.916  0.00  0.00    +0.002 A 
ATOM     31  C   LIG A   1     -11.535   7.981 128.646  0.00  0.00    +0.001 A 
ATOM     32  C   LIG A   1     -10.281   7.984 129.247  0.00  0.00    +0.014 A 
BRANCH  28  33
ATOM     33  O   LIG A   1      -7.378   6.221 132.874  0.00  0.00    -0.490 OA
ATOM     34  C   LIG A   1      -6.075   5.692 132.604  0.00  0.00    +0.277 C 
ENDBRANCH  28  33
ENDBRANCH  20  27
ENDBRANCH  19  20
ENDBRANCH   1  19
TORSDOF 17
ENDMDL
MODEL 6
REMARK VINA RESULT:      -7.0      1.458      2.083
REMARK  Name = NuBBE_1515
REMARK  21 active torsions:
REMARK  status: ('A' for Active; 'I' for Inactive)
REMARK    1  A    between atoms: C_7  and  C_11
REMARK    2  A    between atoms: C_8  and  O_9
REMARK    3  A    between atoms: O_9  and  C_10
REMARK    4  A    between atoms: C_11  and  C_12
REMARK    5  A    between atoms: C_12  and  C_13
REMARK    6  A    between atoms: C_13  and  C_14
REMARK    7  A    between atoms: C_14  and  C_15
REMARK    8  A    between atoms: C_15  and  C_16
REMARK    9  A    between atoms: C_16  and  C_17
REMARK   10  A    between atoms: C_17  and  C_18
REMARK   11  A    between atoms: C_18  and  C_19
REMARK   12  A    between atoms: C_19  and  C_20
REMARK   13  A    between atoms: C_20  and  C_21
REMARK   14  A    between atoms: C_21  and  C_22
REMARK   15  A    between atoms: C_22  and  C_23
REMARK   16  A    between atoms: C_23  and  C_24
REMARK   17  A    between atoms: C_24  and  C_25
REMARK   18  A    between atoms: C_24  and  C_28
REMARK   19  A    between atoms: C_24  and  O_29
REMARK   20  A    between atoms: C_25  and  C_26
REMARK   21  A    between atoms: C_25  and  C_27
REMARK                            x       y       z     vdW  Elec       q    Type
REMARK                         _______ _______ _______ _____ _____    ______ ____
ROOT
ATOM      1  C   LIG A   1      -9.763   2.132 132.161  0.00  0.00    +0.000 C 
ENDROOT
BRANCH   1   2
ATOM      2  C   LIG A   1      -9.375   0.687 131.829  0.00  0.00    +0.000 C 
BRANCH   2   3
ATOM      3  C   LIG A   1      -8.075   0.165 132.460  0.00  0.00    -0.000 C 
BRANCH   3   4
ATOM      4  C   LIG A   1      -7.168  -0.686 131.569  0.00  0.00    -0.000 C 
BRANCH   4   5
ATOM      5  C   LIG A   1      -7.790  -1.298 130.301  0.00  0.00    -0.000 C 
BRANCH   5   6
ATOM      6  C   LIG A   1      -7.157  -0.937 128.924  0.00  0.00    -0.000 C 
BRANCH   6   7
ATOM      7  C   LIG A   1      -7.785   0.278 128.184  0.00  0.00    -0.000 C 
BRANCH   7   8
ATOM      8  C   LIG A   1      -7.332   0.571 126.735  0.00  0.00    -0.000 C 
BRANCH   8   9
ATOM      9  C   LIG A   1      -8.470   1.121 125.791  0.00  0.00    +0.000 C 
BRANCH   9  10
ATOM     10  C   LIG A   1      -9.595   0.064 125.562  0.00  0.00    +0.003 C 
BRANCH  10  11
ATOM     11  C   LIG A   1      -9.174  -1.422 125.360  0.00  0.00    +0.035 C 
BRANCH  11  12
ATOM     12  C   LIG A   1      -8.838  -1.944 123.894  0.00  0.00    +0.066 C 
ATOM     13  C   LIG A   1      -9.505  -3.344 123.733  0.00  0.00    +0.041 C 
BRANCH  12  14
ATOM     14  C   LIG A   1      -7.317  -2.047 123.479  0.00  0.00    +0.014 C 
ATOM     15  C   LIG A   1      -6.710  -0.719 122.950  0.00  0.00    +0.010 C 
ATOM     16  C   LIG A   1      -6.368  -2.516 124.582  0.00  0.00    +0.010 C 
ENDBRANCH  12  14
BRANCH  12  17
ATOM     17  O   LIG A   1      -9.501  -1.054 122.981  0.00  0.00    -0.389 OA
ATOM     18  H   LIG A   1      -9.685  -1.539 122.158  0.00  0.00    +0.210 HD
ENDBRANCH  12  17
ENDBRANCH  11  12
ENDBRANCH  10  11
ENDBRANCH   9  10
ENDBRANCH   8   9
ENDBRANCH   7   8
ENDBRANCH   6   7
ENDBRANCH   5   6
ENDBRANCH   4   5
ENDBRANCH   3   4
ENDBRANCH   2   3
ENDBRANCH   1   2
BRANCH   1  19
ATOM     19  C   LIG A   1      -8.923   2.789 133.261  0.00  0.00    +0.006 C 
BRANCH  19  20
ATOM     20  C   LIG A   1      -8.984   4.343 133.232  0.00  0.00    +0.057 C 
BRANCH  20  27
ATOM     21  O   LIG A   1      -9.123   5.815 128.482  0.00  0.00    -0.283 OA
ATOM     22  C   LIG A   1      -9.522   5.824 129.671  0.00  0.00    +0.231 A 
ATOM     23  C   LIG A   1     -10.703   6.635 129.954  0.00  0.00    +0.049 A 
ATOM     24  C   LIG A   1     -11.343   6.437 131.178  0.00  0.00    +0.051 A 
ATOM     25  N   LIG A   1     -10.857   5.468 132.059  0.00  0.00    -0.355 N 
ATOM     26  H   LIG A   1     -11.288   5.455 132.976  0.00  0.00    +0.166 HD
ATOM     27  C   LIG A   1      -9.555   4.978 131.953  0.00  0.00    +0.062 A 
ATOM     28  C   LIG A   1      -8.837   5.095 130.798  0.00  0.00    +0.186 A 
ATOM     29  C   LIG A   1     -12.477   7.201 131.469  0.00  0.00    +0.026 A 
ATOM     30  C   LIG A   1     -12.946   8.152 130.557  0.00  0.00    +0.002 A 
ATOM     31  C   LIG A   1     -12.294   8.342 129.338  0.00  0.00    +0.001 A 
ATOM     32  C   LIG A   1     -11.171   7.582 129.034  0.00  0.00    +0.014 A 
BRANCH  28  33
ATOM     33  O   LIG A   1      -7.520   4.657 130.711  0.00  0.00    -0.490 OA
ATOM     34  C   LIG A   1      -7.219   3.453 129.997  0.00  0.00    +0.277 C 
ENDBRANCH  28  33
ENDBRANCH  20  27
ENDBRANCH  19  20
ENDBRANCH   1  19
TORSDOF 17
ENDMDL
MODEL 7
REMARK VINA RESULT:      -6.9      2.700      3.801
REMARK  Name = NuBBE_1515
REMARK  21 active torsions:
REMARK  status: ('A' for Active; 'I' for Inactive)
REMARK    1  A    between atoms: C_7  and  C_11
REMARK    2  A    between atoms: C_8  and  O_9
REMARK    3  A    between atoms: O_9  and  C_10
REMARK    4  A    between atoms: C_11  and  C_12
REMARK    5  A    between atoms: C_12  and  C_13
REMARK    6  A    between atoms: C_13  and  C_14
REMARK    7  A    between atoms: C_14  and  C_15
REMARK    8  A    between atoms: C_15  and  C_16
REMARK    9  A    between atoms: C_16  and  C_17
REMARK   10  A    between atoms: C_17  and  C_18
REMARK   11  A    between atoms: C_18  and  C_19
REMARK   12  A    between atoms: C_19  and  C_20
REMARK   13  A    between atoms: C_20  and  C_21
REMARK   14  A    between atoms: C_21  and  C_22
REMARK   15  A    between atoms: C_22  and  C_23
REMARK   16  A    between atoms: C_23  and  C_24
REMARK   17  A    between atoms: C_24  and  C_25
REMARK   18  A    between atoms: C_24  and  C_28
REMARK   19  A    between atoms: C_24  and  O_29
REMARK   20  A    between atoms: C_25  and  C_26
REMARK   21  A    between atoms: C_25  and  C_27
REMARK                            x       y       z     vdW  Elec       q    Type
REMARK                         _______ _______ _______ _____ _____    ______ ____
ROOT
ATOM      1  C   LIG A   1      -6.237   0.631 130.110  0.00  0.00    +0.000 C 
ENDROOT
BRANCH   1   2
ATOM      2  C   LIG A   1      -5.073  -0.061 129.393  0.00  0.00    +0.000 C 
BRANCH   2   3
ATOM      3  C   LIG A   1      -5.443  -0.980 128.218  0.00  0.00    -0.000 C 
BRANCH   3   4
ATOM      4  C   LIG A   1      -4.895  -2.409 128.261  0.00  0.00    -0.000 C 
BRANCH   4   5
ATOM      5  C   LIG A   1      -4.869  -3.118 129.626  0.00  0.00    -0.000 C 
BRANCH   5   6
ATOM      6  C   LIG A   1      -6.109  -3.967 130.037  0.00  0.00    -0.000 C 
BRANCH   6   7
ATOM      7  C   LIG A   1      -7.378  -3.167 130.441  0.00  0.00    -0.000 C 
BRANCH   7   8
ATOM      8  C   LIG A   1      -8.532  -3.049 129.417  0.00  0.00    -0.000 C 
BRANCH   8   9
ATOM      9  C   LIG A   1      -8.355  -3.939 128.127  0.00  0.00    +0.000 C 
BRANCH   9  10
ATOM     10  C   LIG A   1      -8.958  -3.251 126.862  0.00  0.00    +0.003 C 
BRANCH  10  11
ATOM     11  C   LIG A   1      -8.151  -2.093 126.203  0.00  0.00    +0.035 C 
BRANCH  11  12
ATOM     12  C   LIG A   1      -8.158  -1.941 124.618  0.00  0.00    +0.066 C 
ATOM     13  C   LIG A   1      -8.265  -3.374 124.012  0.00  0.00    +0.041 C 
BRANCH  12  14
ATOM     14  C   LIG A   1      -6.944  -1.185 123.945  0.00  0.00    +0.014 C 
ATOM     15  C   LIG A   1      -6.439  -1.837 122.629  0.00  0.00    +0.010 C 
ATOM     16  C   LIG A   1      -7.199   0.283 123.600  0.00  0.00    +0.010 C 
ENDBRANCH  12  14
BRANCH  12  17
ATOM     17  O   LIG A   1      -9.371  -1.249 124.280  0.00  0.00    -0.389 OA
ATOM     18  H   LIG A   1      -9.651  -1.534 123.393  0.00  0.00    +0.210 HD
ENDBRANCH  12  17
ENDBRANCH  11  12
ENDBRANCH  10  11
ENDBRANCH   9  10
ENDBRANCH   8   9
ENDBRANCH   7   8
ENDBRANCH   6   7
ENDBRANCH   5   6
ENDBRANCH   4   5
ENDBRANCH   3   4
ENDBRANCH   2   3
ENDBRANCH   1   2
BRANCH   1  19
ATOM     19  C   LIG A   1      -7.602   0.468 129.432  0.00  0.00    +0.006 C 
BRANCH  19  20
ATOM     20  C   LIG A   1      -8.125   1.782 128.785  0.00  0.00    +0.057 C 
BRANCH  20  27
ATOM     21  O   LIG A   1      -7.569   6.512 130.224  0.00  0.00    -0.283 OA
ATOM     22  C   LIG A   1      -7.770   5.292 130.434  0.00  0.00    +0.231 A 
ATOM     23  C   LIG A   1      -8.063   4.910 131.813  0.00  0.00    +0.049 A 
ATOM     24  C   LIG A   1      -8.577   3.632 132.032  0.00  0.00    +0.051 A 
ATOM     25  N   LIG A   1      -8.816   2.791 130.943  0.00  0.00    -0.355 N 
ATOM     26  H   LIG A   1      -9.074   1.839 131.174  0.00  0.00    +0.166 HD
ATOM     27  C   LIG A   1      -8.204   3.010 129.708  0.00  0.00    +0.062 A 
ATOM     28  C   LIG A   1      -7.683   4.226 129.373  0.00  0.00    +0.186 A 
ATOM     29  C   LIG A   1      -8.867   3.246 133.344  0.00  0.00    +0.026 A 
ATOM     30  C   LIG A   1      -8.630   4.119 134.411  0.00  0.00    +0.002 A 
ATOM     31  C   LIG A   1      -8.112   5.394 134.176  0.00  0.00    +0.001 A 
ATOM     32  C   LIG A   1      -7.828   5.792 132.876  0.00  0.00    +0.014 A 
BRANCH  28  33
ATOM     33  O   LIG A   1      -7.024   4.428 128.165  0.00  0.00    -0.490 OA
ATOM     34  C   LIG A   1      -5.594   4.362 128.117  0.00  0.00    +0.277 C 
ENDBRANCH  28  33
ENDBRANCH  20  27
ENDBRANCH  19  20
ENDBRANCH   1  19
TORSDOF 17
ENDMDL
MODEL 8
REMARK VINA RESULT:      -6.8      1.583      2.483
REMARK  Name = NuBBE_1515
REMARK  21 active torsions:
REMARK  status: ('A' for Active; 'I' for Inactive)
REMARK    1  A    between atoms: C_7  and  C_11
REMARK    2  A    between atoms: C_8  and  O_9
REMARK    3  A    between atoms: O_9  and  C_10
REMARK    4  A    between atoms: C_11  and  C_12
REMARK    5  A    between atoms: C_12  and  C_13
REMARK    6  A    between atoms: C_13  and  C_14
REMARK    7  A    between atoms: C_14  and  C_15
REMARK    8  A    between atoms: C_15  and  C_16
REMARK    9  A    between atoms: C_16  and  C_17
REMARK   10  A    between atoms: C_17  and  C_18
REMARK   11  A    between atoms: C_18  and  C_19
REMARK   12  A    between atoms: C_19  and  C_20
REMARK   13  A    between atoms: C_20  and  C_21
REMARK   14  A    between atoms: C_21  and  C_22
REMARK   15  A    between atoms: C_22  and  C_23
REMARK   16  A    between atoms: C_23  and  C_24
REMARK   17  A    between atoms: C_24  and  C_25
REMARK   18  A    between atoms: C_24  and  C_28
REMARK   19  A    between atoms: C_24  and  O_29
REMARK   20  A    between atoms: C_25  and  C_26
REMARK   21  A    between atoms: C_25  and  C_27
REMARK                            x       y       z     vdW  Elec       q    Type
REMARK                         _______ _______ _______ _____ _____    ______ ____
ROOT
ATOM      1  C   LIG A   1      -8.381   1.665 132.357  0.00  0.00    +0.000 C 
ENDROOT
BRANCH   1   2
ATOM      2  C   LIG A   1      -8.964   0.426 131.669  0.00  0.00    +0.000 C 
BRANCH   2   3
ATOM      3  C   LIG A   1      -7.957  -0.644 131.219  0.00  0.00    -0.000 C 
BRANCH   3   4
ATOM      4  C   LIG A   1      -7.873  -0.924 129.717  0.00  0.00    -0.000 C 
BRANCH   4   5
ATOM      5  C   LIG A   1      -7.292   0.185 128.821  0.00  0.00    -0.000 C 
BRANCH   5   6
ATOM      6  C   LIG A   1      -8.273   1.245 128.235  0.00  0.00    -0.000 C 
BRANCH   6   7
ATOM      7  C   LIG A   1      -7.625   2.379 127.392  0.00  0.00    -0.000 C 
BRANCH   7   8
ATOM      8  C   LIG A   1      -7.092   2.034 125.982  0.00  0.00    -0.000 C 
BRANCH   8   9
ATOM      9  C   LIG A   1      -8.025   1.076 125.145  0.00  0.00    +0.000 C 
BRANCH   9  10
ATOM     10  C   LIG A   1      -7.200   0.127 124.220  0.00  0.00    +0.003 C 
BRANCH  10  11
ATOM     11  C   LIG A   1      -6.080  -0.738 124.871  0.00  0.00    +0.035 C 
BRANCH  11  12
ATOM     12  C   LIG A   1      -6.432  -2.196 125.405  0.00  0.00    +0.066 C 
ATOM     13  C   LIG A   1      -5.638  -3.217 124.535  0.00  0.00    +0.041 C 
BRANCH  12  14
ATOM     14  C   LIG A   1      -7.954  -2.620 125.440  0.00  0.00    +0.014 C 
ATOM     15  C   LIG A   1      -8.335  -3.710 124.401  0.00  0.00    +0.010 C 
ATOM     16  C   LIG A   1      -8.455  -3.148 126.785  0.00  0.00    +0.010 C 
ENDBRANCH  12  14
BRANCH  12  17
ATOM     17  O   LIG A   1      -5.905  -2.280 126.739  0.00  0.00    -0.389 OA
ATOM     18  H   LIG A   1      -6.521  -2.802 127.281  0.00  0.00    +0.210 HD
ENDBRANCH  12  17
ENDBRANCH  11  12
ENDBRANCH  10  11
ENDBRANCH   9  10
ENDBRANCH   8   9
ENDBRANCH   7   8
ENDBRANCH   6   7
ENDBRANCH   5   6
ENDBRANCH   4   5
ENDBRANCH   3   4
ENDBRANCH   2   3
ENDBRANCH   1   2
BRANCH   1  19
ATOM     19  C   LIG A   1      -9.416   2.582 133.019  0.00  0.00    +0.006 C 
BRANCH  19  20
ATOM     20  C   LIG A   1      -9.062   4.092 132.899  0.00  0.00    +0.057 C 
BRANCH  20  27
ATOM     21  O   LIG A   1      -9.238   5.835 128.243  0.00  0.00    -0.283 OA
ATOM     22  C   LIG A   1      -9.606   5.798 129.441  0.00  0.00    +0.231 A 
ATOM     23  C   LIG A   1     -10.734   6.654 129.802  0.00  0.00    +0.049 A 
ATOM     24  C   LIG A   1     -11.352   6.422 131.030  0.00  0.00    +0.051 A 
ATOM     25  N   LIG A   1     -10.899   5.380 131.842  0.00  0.00    -0.355 N 
ATOM     26  H   LIG A   1     -11.307   5.339 132.769  0.00  0.00    +0.166 HD
ATOM     27  C   LIG A   1      -9.629   4.827 131.673  0.00  0.00    +0.062 A 
ATOM     28  C   LIG A   1      -8.935   4.971 130.507  0.00  0.00    +0.186 A 
ATOM     29  C   LIG A   1     -12.435   7.229 131.394  0.00  0.00    +0.026 A 
ATOM     30  C   LIG A   1     -12.874   8.254 130.550  0.00  0.00    +0.002 A 
ATOM     31  C   LIG A   1     -12.243   8.476 129.325  0.00  0.00    +0.001 A 
ATOM     32  C   LIG A   1     -11.171   7.676 128.948  0.00  0.00    +0.014 A 
BRANCH  28  33
ATOM     33  O   LIG A   1      -7.647   4.468 130.359  0.00  0.00    -0.490 OA
ATOM     34  C   LIG A   1      -6.523   5.343 130.504  0.00  0.00    +0.277 C 
ENDBRANCH  28  33
ENDBRANCH  20  27
ENDBRANCH  19  20
ENDBRANCH   1  19
TORSDOF 17
ENDMDL
MODEL 9
REMARK VINA RESULT:      -6.8      4.112      6.038
REMARK  Name = NuBBE_1515
REMARK  21 active torsions:
REMARK  status: ('A' for Active; 'I' for Inactive)
REMARK    1  A    between atoms: C_7  and  C_11
REMARK    2  A    between atoms: C_8  and  O_9
REMARK    3  A    between atoms: O_9  and  C_10
REMARK    4  A    between atoms: C_11  and  C_12
REMARK    5  A    between atoms: C_12  and  C_13
REMARK    6  A    between atoms: C_13  and  C_14
REMARK    7  A    between atoms: C_14  and  C_15
REMARK    8  A    between atoms: C_15  and  C_16
REMARK    9  A    between atoms: C_16  and  C_17
REMARK   10  A    between atoms: C_17  and  C_18
REMARK   11  A    between atoms: C_18  and  C_19
REMARK   12  A    between atoms: C_19  and  C_20
REMARK   13  A    between atoms: C_20  and  C_21
REMARK   14  A    between atoms: C_21  and  C_22
REMARK   15  A    between atoms: C_22  and  C_23
REMARK   16  A    between atoms: C_23  and  C_24
REMARK   17  A    between atoms: C_24  and  C_25
REMARK   18  A    between atoms: C_24  and  C_28
REMARK   19  A    between atoms: C_24  and  O_29
REMARK   20  A    between atoms: C_25  and  C_26
REMARK   21  A    between atoms: C_25  and  C_27
REMARK                            x       y       z     vdW  Elec       q    Type
REMARK                         _______ _______ _______ _____ _____    ______ ____
ROOT
ATOM      1  C   LIG A   1      -5.653   4.519 131.664  0.00  0.00    +0.000 C 
ENDROOT
BRANCH   1   2
ATOM      2  C   LIG A   1      -4.183   4.684 131.260  0.00  0.00    +0.000 C 
BRANCH   2   3
ATOM      3  C   LIG A   1      -3.531   6.036 131.585  0.00  0.00    -0.000 C 
BRANCH   3   4
ATOM      4  C   LIG A   1      -2.660   6.662 130.494  0.00  0.00    -0.000 C 
BRANCH   4   5
ATOM      5  C   LIG A   1      -3.361   7.118 129.202  0.00  0.00    -0.000 C 
BRANCH   5   6
ATOM      6  C   LIG A   1      -3.275   6.190 127.952  0.00  0.00    -0.000 C 
BRANCH   6   7
ATOM      7  C   LIG A   1      -2.394   4.919 128.108  0.00  0.00    -0.000 C 
BRANCH   7   8
ATOM      8  C   LIG A   1      -2.757   3.666 127.278  0.00  0.00    -0.000 C 
BRANCH   8   9
ATOM      9  C   LIG A   1      -3.626   3.959 125.995  0.00  0.00    +0.000 C 
BRANCH   9  10
ATOM     10  C   LIG A   1      -5.143   3.695 126.250  0.00  0.00    +0.003 C 
BRANCH  10  11
ATOM     11  C   LIG A   1      -6.176   4.420 125.337  0.00  0.00    +0.035 C 
BRANCH  11  12
ATOM     12  C   LIG A   1      -7.727   4.318 125.681  0.00  0.00    +0.066 C 
ATOM     13  C   LIG A   1      -7.851   4.108 127.221  0.00  0.00    +0.041 C 
BRANCH  12  14
ATOM     14  C   LIG A   1      -8.576   3.210 124.939  0.00  0.00    +0.014 C 
ATOM     15  C   LIG A   1      -8.138   2.949 123.472  0.00  0.00    +0.010 C 
ATOM     16  C   LIG A   1      -8.586   1.836 125.610  0.00  0.00    +0.010 C 
ENDBRANCH  12  14
BRANCH  12  17
ATOM     17  O   LIG A   1      -8.297   5.603 125.384  0.00  0.00    -0.389 OA
ATOM     18  H   LIG A   1      -9.105   5.468 124.860  0.00  0.00    +0.210 HD
ENDBRANCH  12  17
ENDBRANCH  11  12
ENDBRANCH  10  11
ENDBRANCH   9  10
ENDBRANCH   8   9
ENDBRANCH   7   8
ENDBRANCH   6   7
ENDBRANCH   5   6
ENDBRANCH   4   5
ENDBRANCH   3   4
ENDBRANCH   2   3
ENDBRANCH   1   2
BRANCH   1  19
ATOM     19  C   LIG A   1      -6.664   5.097 130.667  0.00  0.00    +0.006 C 
BRANCH  19  20
ATOM     20  C   LIG A   1      -7.121   6.540 131.025  0.00  0.00    +0.057 C 
BRANCH  20  27
ATOM     21  O   LIG A   1     -11.946   6.290 132.211  0.00  0.00    -0.283 OA
ATOM     22  C   LIG A   1     -10.993   6.545 131.437  0.00  0.00    +0.231 A 
ATOM     23  C   LIG A   1     -11.342   7.154 130.155  0.00  0.00    +0.049 A 
ATOM     24  C   LIG A   1     -10.308   7.716 129.406  0.00  0.00    +0.051 A 
ATOM     25  N   LIG A   1      -9.007   7.704 129.912  0.00  0.00    -0.355 N 
ATOM     26  H   LIG A   1      -8.286   8.017 129.273  0.00  0.00    +0.166 HD
ATOM     27  C   LIG A   1      -8.629   6.820 130.924  0.00  0.00    +0.062 A 
ATOM     28  C   LIG A   1      -9.551   6.224 131.735  0.00  0.00    +0.186 A 
ATOM     29  C   LIG A   1     -10.621   8.306 128.178  0.00  0.00    +0.026 A 
ATOM     30  C   LIG A   1     -11.938   8.316 127.707  0.00  0.00    +0.002 A 
ATOM     31  C   LIG A   1     -12.961   7.746 128.466  0.00  0.00    +0.001 A 
ATOM     32  C   LIG A   1     -12.665   7.164 129.693  0.00  0.00    +0.014 A 
BRANCH  28  33
ATOM     33  O   LIG A   1      -9.180   5.301 132.706  0.00  0.00    -0.490 OA
ATOM     34  C   LIG A   1      -8.540   5.750 133.905  0.00  0.00    +0.277 C 
ENDBRANCH  28  33
ENDBRANCH  20  27
ENDBRANCH  19  20
ENDBRANCH   1  19
TORSDOF 17
ENDMDL
