MODEL 1
REMARK VINA RESULT:      -6.7      0.000      0.000
REMARK  Name = NuBBE_24
REMARK  6 active torsions:
REMARK  status: ('A' for Active; 'I' for Inactive)
REMARK    1  A    between atoms: C_2  and  C_9
REMARK    2  A    between atoms: N_3  and  C_5
REMARK    3  A    between atoms: C_5  and  C_6
REMARK    4  A    between atoms: C_6  and  C_7
REMARK    5  A    between atoms: C_6  and  C_8
REMARK    6  A    between atoms: C_10  and  C_11
REMARK                            x       y       z     vdW  Elec       q    Type
REMARK                         _______ _______ _______ _____ _____    ______ ____
ROOT
ATOM      1  C   LIG A   1     -10.775   6.409 131.685  0.00  0.00    +0.068 C 
ATOM      2  C   LIG A   1      -9.619   6.731 131.086  0.00  0.00    +0.013 C 
ENDROOT
BRANCH   2   3
ATOM      3  C   LIG A   1      -8.326   6.454 131.715  0.00  0.00    -0.021 A 
ATOM      4  C   LIG A   1      -7.138   6.853 131.085  0.00  0.00    +0.057 A 
ATOM      5  C   LIG A   1      -5.946   6.570 131.719  0.00  0.00    +0.167 A 
ATOM      6  O   LIG A   1      -4.705   6.884 131.256  0.00  0.00    -0.453 OA
ATOM      7  C   LIG A   1      -3.877   6.352 132.312  0.00  0.00    +0.466 C 
ATOM      8  O   LIG A   1      -4.631   5.743 133.379  0.00  0.00    -0.453 OA
ATOM      9  C   LIG A   1      -5.903   5.919 132.928  0.00  0.00    +0.166 A 
ATOM     10  C   LIG A   1      -7.049   5.510 133.572  0.00  0.00    +0.050 A 
ATOM     11  C   LIG A   1      -8.275   5.780 132.954  0.00  0.00    +0.012 A 
ENDBRANCH   2   3
BRANCH   1  13
ATOM     12  O   LIG A   1     -13.055   7.096 131.594  0.00  0.00    -0.271 OA
ATOM     13  C   LIG A   1     -12.071   6.674 131.004  0.00  0.00    +0.237 C 
ATOM     14  N   LIG A   1     -12.019   6.414 129.656  0.00  0.00    -0.312 N 
ATOM     15  H   LIG A   1     -11.152   6.103 129.241  0.00  0.00    +0.149 HD
BRANCH  14  16
ATOM     16  C   LIG A   1     -13.118   6.727 128.756  0.00  0.00    +0.107 C 
BRANCH  16  17
ATOM     17  C   LIG A   1     -12.847   7.993 127.926  0.00  0.00    +0.000 C 
ATOM     18  C   LIG A   1     -13.282   9.265 128.659  0.00  0.00    +0.009 C 
ATOM     19  C   LIG A   1     -11.363   8.095 127.560  0.00  0.00    +0.009 C 
ENDBRANCH  16  17
ENDBRANCH  14  16
ENDBRANCH   1  13
TORSDOF 4
ENDMDL
MODEL 2
REMARK VINA RESULT:      -6.4      3.196      7.254
REMARK  Name = NuBBE_24
REMARK  6 active torsions:
REMARK  status: ('A' for Active; 'I' for Inactive)
REMARK    1  A    between atoms: C_2  and  C_9
REMARK    2  A    between atoms: N_3  and  C_5
REMARK    3  A    between atoms: C_5  and  C_6
REMARK    4  A    between atoms: C_6  and  C_7
REMARK    5  A    between atoms: C_6  and  C_8
REMARK    6  A    between atoms: C_10  and  C_11
REMARK                            x       y       z     vdW  Elec       q    Type
REMARK                         _______ _______ _______ _____ _____    ______ ____
ROOT
ATOM      1  C   LIG A   1      -8.597   6.044 132.899  0.00  0.00    +0.068 C 
ATOM      2  C   LIG A   1      -9.924   5.953 132.732  0.00  0.00    +0.013 C 
ENDROOT
BRANCH   2   3
ATOM      3  C   LIG A   1     -10.586   6.480 131.537  0.00  0.00    -0.021 A 
ATOM      4  C   LIG A   1      -9.821   6.901 130.439  0.00  0.00    +0.057 A 
ATOM      5  C   LIG A   1     -10.492   7.390 129.337  0.00  0.00    +0.167 A 
ATOM      6  O   LIG A   1      -9.915   7.838 128.189  0.00  0.00    -0.453 OA
ATOM      7  C   LIG A   1     -11.081   8.211 127.424  0.00  0.00    +0.466 C 
ATOM      8  O   LIG A   1     -12.322   7.975 128.120  0.00  0.00    -0.453 OA
ATOM      9  C   LIG A   1     -11.863   7.469 129.297  0.00  0.00    +0.166 A 
ATOM     10  C   LIG A   1     -12.644   7.068 130.359  0.00  0.00    +0.050 A 
ATOM     11  C   LIG A   1     -11.993   6.570 131.493  0.00  0.00    +0.012 A 
ENDBRANCH   2   3
BRANCH   1  13
ATOM     12  O   LIG A   1      -7.238   4.478 134.074  0.00  0.00    -0.271 OA
ATOM     13  C   LIG A   1      -7.952   5.470 134.110  0.00  0.00    +0.237 C 
ATOM     14  N   LIG A   1      -8.234   6.189 135.247  0.00  0.00    -0.312 N 
ATOM     15  H   LIG A   1      -8.804   7.021 135.182  0.00  0.00    +0.149 HD
BRANCH  14  16
ATOM     16  C   LIG A   1      -7.609   5.904 136.528  0.00  0.00    +0.107 C 
BRANCH  16  17
ATOM     17  C   LIG A   1      -8.302   6.638 137.689  0.00  0.00    +0.000 C 
ATOM     18  C   LIG A   1      -7.408   6.725 138.929  0.00  0.00    +0.009 C 
ATOM     19  C   LIG A   1      -8.727   8.047 137.264  0.00  0.00    +0.009 C 
ENDBRANCH  16  17
ENDBRANCH  14  16
ENDBRANCH   1  13
TORSDOF 4
ENDMDL
MODEL 3
REMARK VINA RESULT:      -6.4      2.701      7.260
REMARK  Name = NuBBE_24
REMARK  6 active torsions:
REMARK  status: ('A' for Active; 'I' for Inactive)
REMARK    1  A    between atoms: C_2  and  C_9
REMARK    2  A    between atoms: N_3  and  C_5
REMARK    3  A    between atoms: C_5  and  C_6
REMARK    4  A    between atoms: C_6  and  C_7
REMARK    5  A    between atoms: C_6  and  C_8
REMARK    6  A    between atoms: C_10  and  C_11
REMARK                            x       y       z     vdW  Elec       q    Type
REMARK                         _______ _______ _______ _____ _____    ______ ____
ROOT
ATOM      1  C   LIG A   1      -6.680   6.984 131.062  0.00  0.00    +0.068 C 
ATOM      2  C   LIG A   1      -7.704   6.410 131.710  0.00  0.00    +0.013 C 
ENDROOT
BRANCH   2   3
ATOM      3  C   LIG A   1      -9.092   6.629 131.299  0.00  0.00    -0.021 A 
ATOM      4  C   LIG A   1      -9.372   7.317 130.109  0.00  0.00    +0.057 A 
ATOM      5  C   LIG A   1     -10.696   7.498 129.766  0.00  0.00    +0.167 A 
ATOM      6  O   LIG A   1     -11.149   8.135 128.652  0.00  0.00    -0.453 OA
ATOM      7  C   LIG A   1     -12.576   8.015 128.829  0.00  0.00    +0.466 C 
ATOM      8  O   LIG A   1     -12.946   7.308 130.030  0.00  0.00    -0.453 OA
ATOM      9  C   LIG A   1     -11.721   7.028 130.551  0.00  0.00    +0.166 A 
ATOM     10  C   LIG A   1     -11.482   6.352 131.727  0.00  0.00    +0.050 A 
ATOM     11  C   LIG A   1     -10.149   6.155 132.105  0.00  0.00    +0.012 A 
ENDBRANCH   2   3
BRANCH   1  13
ATOM     12  O   LIG A   1      -5.001   6.158 132.538  0.00  0.00    -0.271 OA
ATOM     13  C   LIG A   1      -5.280   6.714 131.486  0.00  0.00    +0.237 C 
ATOM     14  N   LIG A   1      -4.359   7.139 130.558  0.00  0.00    -0.312 N 
ATOM     15  H   LIG A   1      -4.676   7.556 129.695  0.00  0.00    +0.149 HD
BRANCH  14  16
ATOM     16  C   LIG A   1      -2.936   6.863 130.684  0.00  0.00    +0.107 C 
BRANCH  16  17
ATOM     17  C   LIG A   1      -2.382   6.102 129.467  0.00  0.00    +0.000 C 
ATOM     18  C   LIG A   1      -3.034   4.727 129.304  0.00  0.00    +0.009 C 
ATOM     19  C   LIG A   1      -2.575   6.917 128.185  0.00  0.00    +0.009 C 
ENDBRANCH  16  17
ENDBRANCH  14  16
ENDBRANCH   1  13
TORSDOF 4
ENDMDL
MODEL 4
REMARK VINA RESULT:      -6.3     10.058     11.042
REMARK  Name = NuBBE_24
REMARK  6 active torsions:
REMARK  status: ('A' for Active; 'I' for Inactive)
REMARK    1  A    between atoms: C_2  and  C_9
REMARK    2  A    between atoms: N_3  and  C_5
REMARK    3  A    between atoms: C_5  and  C_6
REMARK    4  A    between atoms: C_6  and  C_7
REMARK    5  A    between atoms: C_6  and  C_8
REMARK    6  A    between atoms: C_10  and  C_11
REMARK                            x       y       z     vdW  Elec       q    Type
REMARK                         _______ _______ _______ _____ _____    ______ ____
ROOT
ATOM      1  C   LIG A   1      -6.528   2.627 123.860  0.00  0.00    +0.068 C 
ATOM      2  C   LIG A   1      -7.089   1.608 123.193  0.00  0.00    +0.013 C 
ENDROOT
BRANCH   2   3
ATOM      3  C   LIG A   1      -7.636   0.442 123.890  0.00  0.00    -0.021 A 
ATOM      4  C   LIG A   1      -7.224  -0.849 123.528  0.00  0.00    +0.057 A 
ATOM      5  C   LIG A   1      -7.768  -1.914 124.216  0.00  0.00    +0.167 A 
ATOM      6  O   LIG A   1      -7.484  -3.228 124.002  0.00  0.00    -0.453 OA
ATOM      7  C   LIG A   1      -8.329  -3.855 124.989  0.00  0.00    +0.466 C 
ATOM      8  O   LIG A   1      -9.090  -2.914 125.773  0.00  0.00    -0.453 OA
ATOM      9  C   LIG A   1      -8.684  -1.736 125.225  0.00  0.00    +0.166 A 
ATOM     10  C   LIG A   1      -9.113  -0.483 125.602  0.00  0.00    +0.050 A 
ATOM     11  C   LIG A   1      -8.581   0.619 124.922  0.00  0.00    +0.012 A 
ENDBRANCH   2   3
BRANCH   1  13
ATOM     12  O   LIG A   1      -5.684   4.848 123.681  0.00  0.00    -0.271 OA
ATOM     13  C   LIG A   1      -6.011   3.812 123.123  0.00  0.00    +0.237 C 
ATOM     14  N   LIG A   1      -5.928   3.593 121.769  0.00  0.00    -0.312 N 
ATOM     15  H   LIG A   1      -6.183   2.691 121.393  0.00  0.00    +0.149 HD
BRANCH  14  16
ATOM     16  C   LIG A   1      -5.324   4.551 120.857  0.00  0.00    +0.107 C 
BRANCH  16  17
ATOM     17  C   LIG A   1      -6.019   4.565 119.484  0.00  0.00    +0.000 C 
ATOM     18  C   LIG A   1      -7.515   4.263 119.596  0.00  0.00    +0.009 C 
ATOM     19  C   LIG A   1      -5.819   5.916 118.790  0.00  0.00    +0.009 C 
ENDBRANCH  16  17
ENDBRANCH  14  16
ENDBRANCH   1  13
TORSDOF 4
ENDMDL
MODEL 5
REMARK VINA RESULT:      -6.2      8.341      9.576
REMARK  Name = NuBBE_24
REMARK  6 active torsions:
REMARK  status: ('A' for Active; 'I' for Inactive)
REMARK    1  A    between atoms: C_2  and  C_9
REMARK    2  A    between atoms: N_3  and  C_5
REMARK    3  A    between atoms: C_5  and  C_6
REMARK    4  A    between atoms: C_6  and  C_7
REMARK    5  A    between atoms: C_6  and  C_8
REMARK    6  A    between atoms: C_10  and  C_11
REMARK                            x       y       z     vdW  Elec       q    Type
REMARK                         _______ _______ _______ _____ _____    ______ ____
ROOT
ATOM      1  C   LIG A   1      -5.082   0.953 126.342  0.00  0.00    +0.068 C 
ATOM      2  C   LIG A   1      -5.039   2.217 125.894  0.00  0.00    +0.013 C 
ENDROOT
BRANCH   2   3
ATOM      3  C   LIG A   1      -4.237   3.241 126.566  0.00  0.00    -0.021 A 
ATOM      4  C   LIG A   1      -4.803   4.487 126.872  0.00  0.00    +0.057 A 
ATOM      5  C   LIG A   1      -4.006   5.419 127.507  0.00  0.00    +0.167 A 
ATOM      6  O   LIG A   1      -4.388   6.670 127.879  0.00  0.00    -0.453 OA
ATOM      7  C   LIG A   1      -3.169   7.162 128.476  0.00  0.00    +0.466 C 
ATOM      8  O   LIG A   1      -2.094   6.201 128.456  0.00  0.00    -0.453 OA
ATOM      9  C   LIG A   1      -2.698   5.153 127.835  0.00  0.00    +0.166 A 
ATOM     10  C   LIG A   1      -2.110   3.941 127.545  0.00  0.00    +0.050 A 
ATOM     11  C   LIG A   1      -2.891   2.976 126.900  0.00  0.00    +0.012 A 
ENDBRANCH   2   3
BRANCH   1  13
ATOM     12  O   LIG A   1      -6.854   0.210 124.932  0.00  0.00    -0.271 OA
ATOM     13  C   LIG A   1      -5.882  -0.071 125.617  0.00  0.00    +0.237 C 
ATOM     14  N   LIG A   1      -5.389  -1.342 125.791  0.00  0.00    -0.312 N 
ATOM     15  H   LIG A   1      -4.556  -1.483 126.344  0.00  0.00    +0.149 HD
BRANCH  14  16
ATOM     16  C   LIG A   1      -5.917  -2.491 125.073  0.00  0.00    +0.107 C 
BRANCH  16  17
ATOM     17  C   LIG A   1      -5.082  -2.832 123.827  0.00  0.00    +0.000 C 
ATOM     18  C   LIG A   1      -4.738  -4.322 123.757  0.00  0.00    +0.009 C 
ATOM     19  C   LIG A   1      -5.818  -2.416 122.550  0.00  0.00    +0.009 C 
ENDBRANCH  16  17
ENDBRANCH  14  16
ENDBRANCH   1  13
TORSDOF 4
ENDMDL
MODEL 6
REMARK VINA RESULT:      -6.0      0.929      1.705
REMARK  Name = NuBBE_24
REMARK  6 active torsions:
REMARK  status: ('A' for Active; 'I' for Inactive)
REMARK    1  A    between atoms: C_2  and  C_9
REMARK    2  A    between atoms: N_3  and  C_5
REMARK    3  A    between atoms: C_5  and  C_6
REMARK    4  A    between atoms: C_6  and  C_7
REMARK    5  A    between atoms: C_6  and  C_8
REMARK    6  A    between atoms: C_10  and  C_11
REMARK                            x       y       z     vdW  Elec       q    Type
REMARK                         _______ _______ _______ _____ _____    ______ ____
ROOT
ATOM      1  C   LIG A   1      -9.901   6.492 130.901  0.00  0.00    +0.068 C 
ATOM      2  C   LIG A   1      -9.279   6.157 132.041  0.00  0.00    +0.013 C 
ENDROOT
BRANCH   2   3
ATOM      3  C   LIG A   1      -7.820   6.192 132.158  0.00  0.00    -0.021 A 
ATOM      4  C   LIG A   1      -7.190   5.614 133.270  0.00  0.00    +0.057 A 
ATOM      5  C   LIG A   1      -5.813   5.673 133.333  0.00  0.00    +0.167 A 
ATOM      6  O   LIG A   1      -5.040   5.165 134.331  0.00  0.00    -0.453 OA
ATOM      7  C   LIG A   1      -3.721   5.519 133.863  0.00  0.00    +0.466 C 
ATOM      8  O   LIG A   1      -3.730   6.218 132.602  0.00  0.00    -0.453 OA
ATOM      9  C   LIG A   1      -5.066   6.273 132.348  0.00  0.00    +0.166 A 
ATOM     10  C   LIG A   1      -5.652   6.853 131.245  0.00  0.00    +0.050 A 
ATOM     11  C   LIG A   1      -7.048   6.813 131.153  0.00  0.00    +0.012 A 
ENDBRANCH   2   3
BRANCH   1  13
ATOM     12  O   LIG A   1     -12.100   6.448 131.818  0.00  0.00    -0.271 OA
ATOM     13  C   LIG A   1     -11.387   6.476 130.826  0.00  0.00    +0.237 C 
ATOM     14  N   LIG A   1     -11.848   6.519 129.532  0.00  0.00    -0.312 N 
ATOM     15  H   LIG A   1     -11.189   6.580 128.769  0.00  0.00    +0.149 HD
BRANCH  14  16
ATOM     16  C   LIG A   1     -13.260   6.653 129.208  0.00  0.00    +0.107 C 
BRANCH  16  17
ATOM     17  C   LIG A   1     -13.498   7.612 128.029  0.00  0.00    +0.000 C 
ATOM     18  C   LIG A   1     -13.193   9.065 128.400  0.00  0.00    +0.009 C 
ATOM     19  C   LIG A   1     -12.653   7.203 126.819  0.00  0.00    +0.009 C 
ENDBRANCH  16  17
ENDBRANCH  14  16
ENDBRANCH   1  13
TORSDOF 4
ENDMDL
MODEL 7
REMARK VINA RESULT:      -6.0     10.498     11.022
REMARK  Name = NuBBE_24
REMARK  6 active torsions:
REMARK  status: ('A' for Active; 'I' for Inactive)
REMARK    1  A    between atoms: C_2  and  C_9
REMARK    2  A    between atoms: N_3  and  C_5
REMARK    3  A    between atoms: C_5  and  C_6
REMARK    4  A    between atoms: C_6  and  C_7
REMARK    5  A    between atoms: C_6  and  C_8
REMARK    6  A    between atoms: C_10  and  C_11
REMARK                            x       y       z     vdW  Elec       q    Type
REMARK                         _______ _______ _______ _____ _____    ______ ____
ROOT
ATOM      1  C   LIG A   1      -8.553  -3.460 127.544  0.00  0.00    +0.068 C 
ATOM      2  C   LIG A   1      -7.693  -2.657 128.188  0.00  0.00    +0.013 C 
ENDROOT
BRANCH   2   3
ATOM      3  C   LIG A   1      -7.299  -2.910 129.576  0.00  0.00    -0.021 A 
ATOM      4  C   LIG A   1      -6.467  -3.996 129.882  0.00  0.00    +0.057 A 
ATOM      5  C   LIG A   1      -6.124  -4.192 131.205  0.00  0.00    +0.167 A 
ATOM      6  O   LIG A   1      -5.328  -5.187 131.681  0.00  0.00    -0.453 OA
ATOM      7  C   LIG A   1      -5.332  -4.888 133.094  0.00  0.00    +0.466 C 
ATOM      8  O   LIG A   1      -6.117  -3.727 133.430  0.00  0.00    -0.453 OA
ATOM      9  C   LIG A   1      -6.574  -3.361 132.202  0.00  0.00    +0.166 A 
ATOM     10  C   LIG A   1      -7.396  -2.287 131.936  0.00  0.00    +0.050 A 
ATOM     11  C   LIG A   1      -7.763  -2.064 130.605  0.00  0.00    +0.012 A 
ENDBRANCH   2   3
BRANCH   1  13
ATOM     12  O   LIG A   1     -10.031  -2.866 125.772  0.00  0.00    -0.271 OA
ATOM     13  C   LIG A   1      -8.908  -3.193 126.124  0.00  0.00    +0.237 C 
ATOM     14  N   LIG A   1      -7.834  -3.335 125.279  0.00  0.00    -0.312 N 
ATOM     15  H   LIG A   1      -6.928  -3.571 125.658  0.00  0.00    +0.149 HD
BRANCH  14  16
ATOM     16  C   LIG A   1      -7.899  -2.994 123.867  0.00  0.00    +0.107 C 
BRANCH  16  17
ATOM     17  C   LIG A   1      -6.597  -2.346 123.364  0.00  0.00    +0.000 C 
ATOM     18  C   LIG A   1      -6.748  -0.837 123.161  0.00  0.00    +0.009 C 
ATOM     19  C   LIG A   1      -5.445  -2.620 124.336  0.00  0.00    +0.009 C 
ENDBRANCH  16  17
ENDBRANCH  14  16
ENDBRANCH   1  13
TORSDOF 4
ENDMDL
MODEL 8
REMARK VINA RESULT:      -5.7      2.738      7.797
REMARK  Name = NuBBE_24
REMARK  6 active torsions:
REMARK  status: ('A' for Active; 'I' for Inactive)
REMARK    1  A    between atoms: C_2  and  C_9
REMARK    2  A    between atoms: N_3  and  C_5
REMARK    3  A    between atoms: C_5  and  C_6
REMARK    4  A    between atoms: C_6  and  C_7
REMARK    5  A    between atoms: C_6  and  C_8
REMARK    6  A    between atoms: C_10  and  C_11
REMARK                            x       y       z     vdW  Elec       q    Type
REMARK                         _______ _______ _______ _____ _____    ______ ____
ROOT
ATOM      1  C   LIG A   1      -5.973   6.643 131.721  0.00  0.00    +0.068 C 
ATOM      2  C   LIG A   1      -6.912   6.622 130.763  0.00  0.00    +0.013 C 
ENDROOT
BRANCH   2   3
ATOM      3  C   LIG A   1      -8.339   6.585 131.087  0.00  0.00    -0.021 A 
ATOM      4  C   LIG A   1      -9.272   7.174 130.221  0.00  0.00    +0.057 A 
ATOM      5  C   LIG A   1     -10.605   7.112 130.572  0.00  0.00    +0.167 A 
ATOM      6  O   LIG A   1     -11.641   7.625 129.854  0.00  0.00    -0.453 OA
ATOM      7  C   LIG A   1     -12.760   7.266 130.693  0.00  0.00    +0.466 C 
ATOM      8  O   LIG A   1     -12.376   6.547 131.882  0.00  0.00    -0.453 OA
ATOM      9  C   LIG A   1     -11.025   6.499 131.728  0.00  0.00    +0.166 A 
ATOM     10  C   LIG A   1     -10.135   5.914 132.602  0.00  0.00    +0.050 A 
ATOM     11  C   LIG A   1      -8.775   5.962 132.276  0.00  0.00    +0.012 A 
ENDBRANCH   2   3
BRANCH   1  13
ATOM     12  O   LIG A   1      -4.106   6.353 130.270  0.00  0.00    -0.271 OA
ATOM     13  C   LIG A   1      -4.533   6.713 131.357  0.00  0.00    +0.237 C 
ATOM     14  N   LIG A   1      -3.761   7.240 132.364  0.00  0.00    -0.312 N 
ATOM     15  H   LIG A   1      -4.201   7.549 133.219  0.00  0.00    +0.149 HD
BRANCH  14  16
ATOM     16  C   LIG A   1      -2.347   7.536 132.194  0.00  0.00    +0.107 C 
BRANCH  16  17
ATOM     17  C   LIG A   1      -1.849   8.592 133.195  0.00  0.00    +0.000 C 
ATOM     18  C   LIG A   1      -2.545   8.470 134.553  0.00  0.00    +0.009 C 
ATOM     19  C   LIG A   1      -0.333   8.487 133.385  0.00  0.00    +0.009 C 
ENDBRANCH  16  17
ENDBRANCH  14  16
ENDBRANCH   1  13
TORSDOF 4
ENDMDL
MODEL 9
REMARK VINA RESULT:      -5.6      6.956      7.858
REMARK  Name = NuBBE_24
REMARK  6 active torsions:
REMARK  status: ('A' for Active; 'I' for Inactive)
REMARK    1  A    between atoms: C_2  and  C_9
REMARK    2  A    between atoms: N_3  and  C_5
REMARK    3  A    between atoms: C_5  and  C_6
REMARK    4  A    between atoms: C_6  and  C_7
REMARK    5  A    between atoms: C_6  and  C_8
REMARK    6  A    between atoms: C_10  and  C_11
REMARK                            x       y       z     vdW  Elec       q    Type
REMARK                         _______ _______ _______ _____ _____    ______ ____
ROOT
ATOM      1  C   LIG A   1      -5.917   1.547 125.970  0.00  0.00    +0.068 C 
ATOM      2  C   LIG A   1      -5.521   2.757 125.546  0.00  0.00    +0.013 C 
ENDROOT
BRANCH   2   3
ATOM      3  C   LIG A   1      -4.575   3.568 126.315  0.00  0.00    -0.021 A 
ATOM      4  C   LIG A   1      -4.941   4.851 126.748  0.00  0.00    +0.057 A 
ATOM      5  C   LIG A   1      -4.015   5.575 127.470  0.00  0.00    +0.167 A 
ATOM      6  O   LIG A   1      -4.199   6.828 127.969  0.00  0.00    -0.453 OA
ATOM      7  C   LIG A   1      -2.925   7.058 128.608  0.00  0.00    +0.466 C 
ATOM      8  O   LIG A   1      -2.015   5.946 128.487  0.00  0.00    -0.453 OA
ATOM      9  C   LIG A   1      -2.770   5.074 127.765  0.00  0.00    +0.166 A 
ATOM     10  C   LIG A   1      -2.377   3.820 127.352  0.00  0.00    +0.050 A 
ATOM     11  C   LIG A   1      -3.293   3.061 126.615  0.00  0.00    +0.012 A 
ENDBRANCH   2   3
BRANCH   1  13
ATOM     12  O   LIG A   1      -6.487  -0.207 124.461  0.00  0.00    -0.271 OA
ATOM     13  C   LIG A   1      -6.854   0.735 125.149  0.00  0.00    +0.237 C 
ATOM     14  N   LIG A   1      -8.158   1.151 125.272  0.00  0.00    -0.312 N 
ATOM     15  H   LIG A   1      -8.380   1.916 125.893  0.00  0.00    +0.149 HD
BRANCH  14  16
ATOM     16  C   LIG A   1      -9.270   0.429 124.675  0.00  0.00    +0.107 C 
BRANCH  16  17
ATOM     17  C   LIG A   1      -9.928   1.218 123.530  0.00  0.00    +0.000 C 
ATOM     18  C   LIG A   1      -9.063   2.395 123.072  0.00  0.00    +0.009 C 
ATOM     19  C   LIG A   1     -10.219   0.301 122.338  0.00  0.00    +0.009 C 
ENDBRANCH  16  17
ENDBRANCH  14  16
ENDBRANCH   1  13
TORSDOF 4
ENDMDL
