MODEL 1
REMARK VINA RESULT:      -8.6      0.000      0.000
REMARK  Name = NuBBE_2009
REMARK  6 active torsions:
REMARK  status: ('A' for Active; 'I' for Inactive)
REMARK    1  A    between atoms: C_1  and  O_2
REMARK    2  A    between atoms: O_2  and  C_3
REMARK    3  A    between atoms: C_6  and  C_8
REMARK    4  A    between atoms: C_9  and  C_12
REMARK    5  A    between atoms: C_23  and  C_24
REMARK    6  A    between atoms: C_24  and  C_25
REMARK                            x       y       z     vdW  Elec       q    Type
REMARK                         _______ _______ _______ _____ _____    ______ ____
ROOT
ATOM      1  C   LIG A   1      -7.657  -0.681 126.051  0.00  0.00    +0.166 A 
ATOM      2  C   LIG A   1      -7.527   0.312 125.070  0.00  0.00    +0.204 A 
ATOM      3  O   LIG A   1      -7.957   1.578 125.350  0.00  0.00    -0.478 OA
ATOM      4  C   LIG A   1      -7.333   2.578 124.534  0.00  0.00    +0.216 C 
ATOM      5  C   LIG A   1      -8.076   3.866 124.872  0.00  0.00    +0.056 C 
ATOM      6  C   LIG A   1      -7.424   2.181 123.047  0.00  0.00    +0.244 C 
ATOM      7  O   LIG A   1      -6.780   0.909 122.818  0.00  0.00    -0.477 OA
ATOM      8  C   LIG A   1      -6.960  -0.003 123.829  0.00  0.00    +0.167 A 
ATOM      9  C   LIG A   1      -6.511  -1.302 123.569  0.00  0.00    +0.053 A 
ATOM     10  C   LIG A   1      -6.614  -2.300 124.548  0.00  0.00    -0.036 A 
ATOM     11  C   LIG A   1      -7.183  -1.972 125.786  0.00  0.00    +0.053 A 
ENDROOT
BRANCH   6  12
ATOM     12  C   LIG A   1      -6.754   3.179 122.108  0.00  0.00    -0.000 A 
ATOM     13  C   LIG A   1      -5.536   3.808 122.472  0.00  0.00    +0.011 A 
ATOM     14  C   LIG A   1      -4.899   4.716 121.616  0.00  0.00    +0.050 A 
ATOM     15  C   LIG A   1      -5.490   4.976 120.401  0.00  0.00    +0.166 A 
ATOM     16  C   LIG A   1      -6.668   4.373 120.030  0.00  0.00    +0.167 A 
ATOM     17  O   LIG A   1      -7.078   4.765 118.792  0.00  0.00    -0.453 OA
ATOM     18  C   LIG A   1      -6.008   5.661 118.419  0.00  0.00    +0.466 C 
ATOM     19  O   LIG A   1      -5.009   5.818 119.448  0.00  0.00    -0.453 OA
ATOM     20  C   LIG A   1      -7.322   3.476 120.855  0.00  0.00    +0.057 A 
ENDBRANCH   6  12
BRANCH   1  22
ATOM     21  C   LIG A   1      -7.250  -0.050 128.313  0.00  0.00    +0.277 C 
ATOM     22  O   LIG A   1      -8.150  -0.533 127.323  0.00  0.00    -0.491 OA
ENDBRANCH   1  22
BRANCH  10  23
ATOM     23  C   LIG A   1      -6.148  -3.712 124.273  0.00  0.00    +0.061 C 
BRANCH  23  24
ATOM     24  C   LIG A   1      -4.842  -3.758 123.529  0.00  0.00    -0.030 C 
ATOM     25  C   LIG A   1      -4.037  -4.822 123.474  0.00  0.00    +0.004 C 
ENDBRANCH  23  24
ENDBRANCH  10  23
TORSDOF 4
ENDMDL
MODEL 2
REMARK VINA RESULT:      -7.6      4.836      9.583
REMARK  Name = NuBBE_2009
REMARK  6 active torsions:
REMARK  status: ('A' for Active; 'I' for Inactive)
REMARK    1  A    between atoms: C_1  and  O_2
REMARK    2  A    between atoms: O_2  and  C_3
REMARK    3  A    between atoms: C_6  and  C_8
REMARK    4  A    between atoms: C_9  and  C_12
REMARK    5  A    between atoms: C_23  and  C_24
REMARK    6  A    between atoms: C_24  and  C_25
REMARK                            x       y       z     vdW  Elec       q    Type
REMARK                         _______ _______ _______ _____ _____    ______ ____
ROOT
ATOM      1  C   LIG A   1      -7.950  -1.189 125.902  0.00  0.00    +0.166 A 
ATOM      2  C   LIG A   1      -7.299  -1.547 127.091  0.00  0.00    +0.204 A 
ATOM      3  O   LIG A   1      -7.865  -1.201 128.284  0.00  0.00    -0.478 OA
ATOM      4  C   LIG A   1      -7.427  -2.023 129.374  0.00  0.00    +0.216 C 
ATOM      5  C   LIG A   1      -8.021  -1.363 130.615  0.00  0.00    +0.056 C 
ATOM      6  C   LIG A   1      -5.889  -2.105 129.392  0.00  0.00    +0.244 C 
ATOM      7  O   LIG A   1      -5.392  -2.653 128.151  0.00  0.00    -0.477 OA
ATOM      8  C   LIG A   1      -6.089  -2.250 127.039  0.00  0.00    +0.167 A 
ATOM      9  C   LIG A   1      -5.535  -2.608 125.806  0.00  0.00    +0.053 A 
ATOM     10  C   LIG A   1      -6.186  -2.278 124.609  0.00  0.00    -0.036 A 
ATOM     11  C   LIG A   1      -7.396  -1.574 124.675  0.00  0.00    +0.053 A 
ENDROOT
BRANCH   6  12
ATOM     12  C   LIG A   1      -5.338  -2.989 130.506  0.00  0.00    -0.000 A 
ATOM     13  C   LIG A   1      -5.850  -4.295 130.712  0.00  0.00    +0.011 A 
ATOM     14  C   LIG A   1      -5.347  -5.126 131.721  0.00  0.00    +0.050 A 
ATOM     15  C   LIG A   1      -4.328  -4.638 132.506  0.00  0.00    +0.166 A 
ATOM     16  C   LIG A   1      -3.817  -3.376 132.319  0.00  0.00    +0.167 A 
ATOM     17  O   LIG A   1      -2.816  -3.092 133.198  0.00  0.00    -0.453 OA
ATOM     18  C   LIG A   1      -2.741  -4.330 133.938  0.00  0.00    +0.466 C 
ATOM     19  O   LIG A   1      -3.717  -5.307 133.520  0.00  0.00    -0.453 OA
ATOM     20  C   LIG A   1      -4.296  -2.531 131.335  0.00  0.00    +0.057 A 
ENDBRANCH   6  12
BRANCH   1  22
ATOM     21  C   LIG A   1      -9.119   0.882 125.744  0.00  0.00    +0.277 C 
ATOM     22  O   LIG A   1      -9.152  -0.539 125.776  0.00  0.00    -0.491 OA
ENDBRANCH   1  22
BRANCH  10  23
ATOM     23  C   LIG A   1      -5.588  -2.644 123.270  0.00  0.00    +0.061 C 
BRANCH  23  24
ATOM     24  C   LIG A   1      -4.371  -3.518 123.397  0.00  0.00    -0.030 C 
ATOM     25  C   LIG A   1      -4.400  -4.850 123.485  0.00  0.00    +0.004 C 
ENDBRANCH  23  24
ENDBRANCH  10  23
TORSDOF 4
ENDMDL
MODEL 3
REMARK VINA RESULT:      -7.5      4.663      5.473
REMARK  Name = NuBBE_2009
REMARK  6 active torsions:
REMARK  status: ('A' for Active; 'I' for Inactive)
REMARK    1  A    between atoms: C_1  and  O_2
REMARK    2  A    between atoms: O_2  and  C_3
REMARK    3  A    between atoms: C_6  and  C_8
REMARK    4  A    between atoms: C_9  and  C_12
REMARK    5  A    between atoms: C_23  and  C_24
REMARK    6  A    between atoms: C_24  and  C_25
REMARK                            x       y       z     vdW  Elec       q    Type
REMARK                         _______ _______ _______ _____ _____    ______ ____
ROOT
ATOM      1  C   LIG A   1      -7.133  -1.897 127.075  0.00  0.00    +0.166 A 
ATOM      2  C   LIG A   1      -6.622  -0.602 127.243  0.00  0.00    +0.204 A 
ATOM      3  O   LIG A   1      -6.866   0.057 128.413  0.00  0.00    -0.478 OA
ATOM      4  C   LIG A   1      -5.914   1.095 128.683  0.00  0.00    +0.216 C 
ATOM      5  C   LIG A   1      -6.466   1.811 129.912  0.00  0.00    +0.056 C 
ATOM      6  C   LIG A   1      -5.762   2.008 127.451  0.00  0.00    +0.244 C 
ATOM      7  O   LIG A   1      -5.326   1.248 126.303  0.00  0.00    -0.477 OA
ATOM      8  C   LIG A   1      -5.875  -0.008 126.218  0.00  0.00    +0.167 A 
ATOM      9  C   LIG A   1      -5.624  -0.707 125.033  0.00  0.00    +0.053 A 
ATOM     10  C   LIG A   1      -6.108  -2.011 124.859  0.00  0.00    -0.036 A 
ATOM     11  C   LIG A   1      -6.854  -2.594 125.892  0.00  0.00    +0.053 A 
ENDROOT
BRANCH   6  12
ATOM     12  C   LIG A   1      -4.742   3.125 127.642  0.00  0.00    -0.000 A 
ATOM     13  C   LIG A   1      -3.361   2.889 127.420  0.00  0.00    +0.011 A 
ATOM     14  C   LIG A   1      -2.411   3.906 127.577  0.00  0.00    +0.050 A 
ATOM     15  C   LIG A   1      -2.861   5.152 127.947  0.00  0.00    +0.166 A 
ATOM     16  C   LIG A   1      -4.195   5.401 128.163  0.00  0.00    +0.167 A 
ATOM     17  O   LIG A   1      -4.426   6.696 128.518  0.00  0.00    -0.453 OA
ATOM     18  C   LIG A   1      -3.087   7.235 128.473  0.00  0.00    +0.466 C 
ATOM     19  O   LIG A   1      -2.085   6.253 128.135  0.00  0.00    -0.453 OA
ATOM     20  C   LIG A   1      -5.155   4.416 128.021  0.00  0.00    +0.057 A 
ENDBRANCH   6  12
BRANCH   1  22
ATOM     21  C   LIG A   1      -8.692  -3.654 127.472  0.00  0.00    +0.277 C 
ATOM     22  O   LIG A   1      -7.845  -2.634 127.986  0.00  0.00    -0.491 OA
ENDBRANCH   1  22
BRANCH  10  23
ATOM     23  C   LIG A   1      -5.859  -2.771 123.576  0.00  0.00    +0.061 C 
BRANCH  23  24
ATOM     24  C   LIG A   1      -4.522  -3.460 123.560  0.00  0.00    -0.030 C 
ATOM     25  C   LIG A   1      -4.351  -4.784 123.555  0.00  0.00    +0.004 C 
ENDBRANCH  23  24
ENDBRANCH  10  23
TORSDOF 4
ENDMDL
MODEL 4
REMARK VINA RESULT:      -7.5      3.796      5.657
REMARK  Name = NuBBE_2009
REMARK  6 active torsions:
REMARK  status: ('A' for Active; 'I' for Inactive)
REMARK    1  A    between atoms: C_1  and  O_2
REMARK    2  A    between atoms: O_2  and  C_3
REMARK    3  A    between atoms: C_6  and  C_8
REMARK    4  A    between atoms: C_9  and  C_12
REMARK    5  A    between atoms: C_23  and  C_24
REMARK    6  A    between atoms: C_24  and  C_25
REMARK                            x       y       z     vdW  Elec       q    Type
REMARK                         _______ _______ _______ _____ _____    ______ ____
ROOT
ATOM      1  C   LIG A   1      -8.553  -0.796 125.185  0.00  0.00    +0.166 A 
ATOM      2  C   LIG A   1      -7.489   0.082 125.432  0.00  0.00    +0.204 A 
ATOM      3  O   LIG A   1      -7.262   1.108 124.559  0.00  0.00    -0.478 OA
ATOM      4  C   LIG A   1      -6.533   2.194 125.145  0.00  0.00    +0.216 C 
ATOM      5  C   LIG A   1      -6.232   3.128 123.977  0.00  0.00    +0.056 C 
ATOM      6  C   LIG A   1      -5.273   1.664 125.857  0.00  0.00    +0.244 C 
ATOM      7  O   LIG A   1      -5.628   0.718 126.887  0.00  0.00    -0.477 OA
ATOM      8  C   LIG A   1      -6.680  -0.101 126.561  0.00  0.00    +0.167 A 
ATOM      9  C   LIG A   1      -6.940  -1.149 127.450  0.00  0.00    +0.053 A 
ATOM     10  C   LIG A   1      -8.015  -2.022 127.229  0.00  0.00    -0.036 A 
ATOM     11  C   LIG A   1      -8.816  -1.827 126.096  0.00  0.00    +0.053 A 
ENDROOT
BRANCH   6  12
ATOM     12  C   LIG A   1      -4.453   2.756 126.537  0.00  0.00    -0.000 A 
ATOM     13  C   LIG A   1      -3.035   2.733 126.486  0.00  0.00    +0.011 A 
ATOM     14  C   LIG A   1      -2.266   3.734 127.092  0.00  0.00    +0.050 A 
ATOM     15  C   LIG A   1      -2.931   4.752 127.736  0.00  0.00    +0.166 A 
ATOM     16  C   LIG A   1      -4.303   4.794 127.793  0.00  0.00    +0.167 A 
ATOM     17  O   LIG A   1      -4.757   5.883 128.472  0.00  0.00    -0.453 OA
ATOM     18  C   LIG A   1      -3.513   6.533 128.811  0.00  0.00    +0.466 C 
ATOM     19  O   LIG A   1      -2.348   5.807 128.367  0.00  0.00    -0.453 OA
ATOM     20  C   LIG A   1      -5.089   3.818 127.208  0.00  0.00    +0.057 A 
ENDBRANCH   6  12
BRANCH   1  22
ATOM     21  C   LIG A   1      -9.122  -1.423 122.957  0.00  0.00    +0.277 C 
ATOM     22  O   LIG A   1      -9.458  -0.736 124.156  0.00  0.00    -0.491 OA
ENDBRANCH   1  22
BRANCH  10  23
ATOM     23  C   LIG A   1      -8.295  -3.168 128.173  0.00  0.00    +0.061 C 
BRANCH  23  24
ATOM     24  C   LIG A   1      -7.759  -2.924 129.557  0.00  0.00    -0.030 C 
ATOM     25  C   LIG A   1      -6.819  -3.666 130.148  0.00  0.00    +0.004 C 
ENDBRANCH  23  24
ENDBRANCH  10  23
TORSDOF 4
ENDMDL
MODEL 5
REMARK VINA RESULT:      -7.5      3.793      5.502
REMARK  Name = NuBBE_2009
REMARK  6 active torsions:
REMARK  status: ('A' for Active; 'I' for Inactive)
REMARK    1  A    between atoms: C_1  and  O_2
REMARK    2  A    between atoms: O_2  and  C_3
REMARK    3  A    between atoms: C_6  and  C_8
REMARK    4  A    between atoms: C_9  and  C_12
REMARK    5  A    between atoms: C_23  and  C_24
REMARK    6  A    between atoms: C_24  and  C_25
REMARK                            x       y       z     vdW  Elec       q    Type
REMARK                         _______ _______ _______ _____ _____    ______ ____
ROOT
ATOM      1  C   LIG A   1      -8.441  -0.126 124.273  0.00  0.00    +0.166 A 
ATOM      2  C   LIG A   1      -7.570   0.788 124.883  0.00  0.00    +0.204 A 
ATOM      3  O   LIG A   1      -8.002   2.063 125.107  0.00  0.00    -0.478 OA
ATOM      4  C   LIG A   1      -7.277   2.728 126.150  0.00  0.00    +0.216 C 
ATOM      5  C   LIG A   1      -7.781   4.168 126.109  0.00  0.00    +0.056 C 
ATOM      6  C   LIG A   1      -5.761   2.595 125.910  0.00  0.00    +0.244 C 
ATOM      7  O   LIG A   1      -5.371   1.205 125.868  0.00  0.00    -0.477 OA
ATOM      8  C   LIG A   1      -6.282   0.383 125.253  0.00  0.00    +0.167 A 
ATOM      9  C   LIG A   1      -5.866  -0.933 125.030  0.00  0.00    +0.053 A 
ATOM     10  C   LIG A   1      -6.733  -1.865 124.441  0.00  0.00    -0.036 A 
ATOM     11  C   LIG A   1      -8.019  -1.447 124.075  0.00  0.00    +0.053 A 
ENDROOT
BRANCH   6  12
ATOM     12  C   LIG A   1      -4.912   3.250 126.995  0.00  0.00    -0.000 A 
ATOM     13  C   LIG A   1      -4.664   2.581 128.220  0.00  0.00    +0.011 A 
ATOM     14  C   LIG A   1      -3.875   3.161 129.222  0.00  0.00    +0.050 A 
ATOM     15  C   LIG A   1      -3.338   4.404 128.977  0.00  0.00    +0.166 A 
ATOM     16  C   LIG A   1      -3.564   5.065 127.795  0.00  0.00    +0.167 A 
ATOM     17  O   LIG A   1      -2.940   6.275 127.755  0.00  0.00    -0.453 OA
ATOM     18  C   LIG A   1      -2.276   6.283 129.037  0.00  0.00    +0.466 C 
ATOM     19  O   LIG A   1      -2.544   5.108 129.828  0.00  0.00    -0.453 OA
ATOM     20  C   LIG A   1      -4.342   4.520 126.789  0.00  0.00    +0.057 A 
ENDBRANCH   6  12
BRANCH   1  22
ATOM     21  C   LIG A   1     -10.002   0.124 122.489  0.00  0.00    +0.277 C 
ATOM     22  O   LIG A   1      -9.739   0.094 123.886  0.00  0.00    -0.491 OA
ENDBRANCH   1  22
BRANCH  10  23
ATOM     23  C   LIG A   1      -6.289  -3.286 124.178  0.00  0.00    +0.061 C 
BRANCH  23  24
ATOM     24  C   LIG A   1      -4.900  -3.362 123.605  0.00  0.00    -0.030 C 
ATOM     25  C   LIG A   1      -4.154  -4.469 123.570  0.00  0.00    +0.004 C 
ENDBRANCH  23  24
ENDBRANCH  10  23
TORSDOF 4
ENDMDL
MODEL 6
REMARK VINA RESULT:      -7.4      5.219     10.992
REMARK  Name = NuBBE_2009
REMARK  6 active torsions:
REMARK  status: ('A' for Active; 'I' for Inactive)
REMARK    1  A    between atoms: C_1  and  O_2
REMARK    2  A    between atoms: O_2  and  C_3
REMARK    3  A    between atoms: C_6  and  C_8
REMARK    4  A    between atoms: C_9  and  C_12
REMARK    5  A    between atoms: C_23  and  C_24
REMARK    6  A    between atoms: C_24  and  C_25
REMARK                            x       y       z     vdW  Elec       q    Type
REMARK                         _______ _______ _______ _____ _____    ______ ____
ROOT
ATOM      1  C   LIG A   1      -6.158  -1.607 127.138  0.00  0.00    +0.166 A 
ATOM      2  C   LIG A   1      -6.095  -2.226 128.394  0.00  0.00    +0.204 A 
ATOM      3  O   LIG A   1      -5.017  -1.982 129.196  0.00  0.00    -0.478 OA
ATOM      4  C   LIG A   1      -5.283  -2.222 130.585  0.00  0.00    +0.216 C 
ATOM      5  C   LIG A   1      -3.927  -2.074 131.266  0.00  0.00    +0.056 C 
ATOM      6  C   LIG A   1      -5.922  -3.612 130.769  0.00  0.00    +0.244 C 
ATOM      7  O   LIG A   1      -7.154  -3.711 130.023  0.00  0.00    -0.477 OA
ATOM      8  C   LIG A   1      -7.128  -3.077 128.806  0.00  0.00    +0.167 A 
ATOM      9  C   LIG A   1      -8.230  -3.299 127.975  0.00  0.00    +0.053 A 
ATOM     10  C   LIG A   1      -8.320  -2.669 126.726  0.00  0.00    -0.036 A 
ATOM     11  C   LIG A   1      -7.279  -1.821 126.325  0.00  0.00    +0.053 A 
ENDROOT
BRANCH   6  12
ATOM     12  C   LIG A   1      -6.268  -3.936 132.219  0.00  0.00    -0.000 A 
ATOM     13  C   LIG A   1      -5.632  -5.010 132.891  0.00  0.00    +0.011 A 
ATOM     14  C   LIG A   1      -5.926  -5.313 134.227  0.00  0.00    +0.050 A 
ATOM     15  C   LIG A   1      -6.851  -4.527 134.874  0.00  0.00    +0.166 A 
ATOM     16  C   LIG A   1      -7.475  -3.480 134.241  0.00  0.00    +0.167 A 
ATOM     17  O   LIG A   1      -8.349  -2.831 135.059  0.00  0.00    -0.453 OA
ATOM     18  C   LIG A   1      -8.181  -3.576 136.285  0.00  0.00    +0.466 C 
ATOM     19  O   LIG A   1      -7.249  -4.670 136.167  0.00  0.00    -0.453 OA
ATOM     20  C   LIG A   1      -7.208  -3.159 132.922  0.00  0.00    +0.057 A 
ENDBRANCH   6  12
BRANCH   1  22
ATOM     21  C   LIG A   1      -5.789   0.435 125.966  0.00  0.00    +0.277 C 
ATOM     22  O   LIG A   1      -5.258  -0.722 126.600  0.00  0.00    -0.491 OA
ENDBRANCH   1  22
BRANCH  10  23
ATOM     23  C   LIG A   1      -9.497  -2.916 125.811  0.00  0.00    +0.061 C 
BRANCH  23  24
ATOM     24  C   LIG A   1      -9.095  -3.545 124.504  0.00  0.00    -0.030 C 
ATOM     25  C   LIG A   1      -9.429  -3.072 123.301  0.00  0.00    +0.004 C 
ENDBRANCH  23  24
ENDBRANCH  10  23
TORSDOF 4
ENDMDL
MODEL 7
REMARK VINA RESULT:      -7.3      8.617     11.589
REMARK  Name = NuBBE_2009
REMARK  6 active torsions:
REMARK  status: ('A' for Active; 'I' for Inactive)
REMARK    1  A    between atoms: C_1  and  O_2
REMARK    2  A    between atoms: O_2  and  C_3
REMARK    3  A    between atoms: C_6  and  C_8
REMARK    4  A    between atoms: C_9  and  C_12
REMARK    5  A    between atoms: C_23  and  C_24
REMARK    6  A    between atoms: C_24  and  C_25
REMARK                            x       y       z     vdW  Elec       q    Type
REMARK                         _______ _______ _______ _____ _____    ______ ____
ROOT
ATOM      1  C   LIG A   1      -6.267   3.469 133.876  0.00  0.00    +0.166 A 
ATOM      2  C   LIG A   1      -7.122   4.249 133.086  0.00  0.00    +0.204 A 
ATOM      3  O   LIG A   1      -7.373   3.860 131.802  0.00  0.00    -0.478 OA
ATOM      4  C   LIG A   1      -8.598   4.393 131.281  0.00  0.00    +0.216 C 
ATOM      5  C   LIG A   1      -8.592   3.998 129.808  0.00  0.00    +0.056 C 
ATOM      6  C   LIG A   1      -8.655   5.915 131.515  0.00  0.00    +0.244 C 
ATOM      7  O   LIG A   1      -8.563   6.219 132.924  0.00  0.00    -0.477 OA
ATOM      8  C   LIG A   1      -7.704   5.406 133.620  0.00  0.00    +0.167 A 
ATOM      9  C   LIG A   1      -7.446   5.777 134.943  0.00  0.00    +0.053 A 
ATOM     10  C   LIG A   1      -6.611   4.995 135.753  0.00  0.00    -0.036 A 
ATOM     11  C   LIG A   1      -6.035   3.840 135.207  0.00  0.00    +0.053 A 
ENDROOT
BRANCH   6  12
ATOM     12  C   LIG A   1      -9.945   6.560 131.017  0.00  0.00    -0.000 A 
ATOM     13  C   LIG A   1     -11.155   6.408 131.741  0.00  0.00    +0.011 A 
ATOM     14  C   LIG A   1     -12.345   7.005 131.307  0.00  0.00    +0.050 A 
ATOM     15  C   LIG A   1     -12.304   7.755 130.154  0.00  0.00    +0.166 A 
ATOM     16  C   LIG A   1     -11.141   7.917 129.442  0.00  0.00    +0.167 A 
ATOM     17  O   LIG A   1     -11.317   8.696 128.339  0.00  0.00    -0.453 OA
ATOM     18  C   LIG A   1     -12.718   9.025 128.457  0.00  0.00    +0.466 C 
ATOM     19  O   LIG A   1     -13.357   8.410 129.595  0.00  0.00    -0.453 OA
ATOM     20  C   LIG A   1      -9.951   7.336 129.843  0.00  0.00    +0.057 A 
ENDBRANCH   6  12
BRANCH   1  22
ATOM     21  C   LIG A   1      -6.026   1.126 134.243  0.00  0.00    +0.277 C 
ATOM     22  O   LIG A   1      -5.650   2.295 133.525  0.00  0.00    -0.491 OA
ENDBRANCH   1  22
BRANCH  10  23
ATOM     23  C   LIG A   1      -6.310   5.396 137.180  0.00  0.00    +0.061 C 
BRANCH  23  24
ATOM     24  C   LIG A   1      -7.283   6.410 137.715  0.00  0.00    -0.030 C 
ATOM     25  C   LIG A   1      -7.728   6.445 138.973  0.00  0.00    +0.004 C 
ENDBRANCH  23  24
ENDBRANCH  10  23
TORSDOF 4
ENDMDL
MODEL 8
REMARK VINA RESULT:      -7.3      3.264      8.881
REMARK  Name = NuBBE_2009
REMARK  6 active torsions:
REMARK  status: ('A' for Active; 'I' for Inactive)
REMARK    1  A    between atoms: C_1  and  O_2
REMARK    2  A    between atoms: O_2  and  C_3
REMARK    3  A    between atoms: C_6  and  C_8
REMARK    4  A    between atoms: C_9  and  C_12
REMARK    5  A    between atoms: C_23  and  C_24
REMARK    6  A    between atoms: C_24  and  C_25
REMARK                            x       y       z     vdW  Elec       q    Type
REMARK                         _______ _______ _______ _____ _____    ______ ____
ROOT
ATOM      1  C   LIG A   1      -8.654  -0.027 124.029  0.00  0.00    +0.166 A 
ATOM      2  C   LIG A   1      -8.188  -0.599 125.221  0.00  0.00    +0.204 A 
ATOM      3  O   LIG A   1      -8.789  -1.732 125.689  0.00  0.00    -0.478 OA
ATOM      4  C   LIG A   1      -7.951  -2.492 126.570  0.00  0.00    +0.216 C 
ATOM      5  C   LIG A   1      -8.860  -3.590 127.112  0.00  0.00    +0.056 C 
ATOM      6  C   LIG A   1      -7.363  -1.577 127.662  0.00  0.00    +0.244 C 
ATOM      7  O   LIG A   1      -6.592  -0.508 127.072  0.00  0.00    -0.477 OA
ATOM      8  C   LIG A   1      -7.121  -0.008 125.909  0.00  0.00    +0.167 A 
ATOM      9  C   LIG A   1      -6.509   1.144 125.403  0.00  0.00    +0.053 A 
ATOM     10  C   LIG A   1      -6.949   1.715 124.200  0.00  0.00    -0.036 A 
ATOM     11  C   LIG A   1      -8.017   1.113 123.522  0.00  0.00    +0.053 A 
ENDROOT
BRANCH   6  12
ATOM     12  C   LIG A   1      -6.431  -2.301 128.627  0.00  0.00    -0.000 A 
ATOM     13  C   LIG A   1      -5.076  -2.539 128.281  0.00  0.00    +0.011 A 
ATOM     14  C   LIG A   1      -4.201  -3.190 129.161  0.00  0.00    +0.050 A 
ATOM     15  C   LIG A   1      -4.697  -3.587 130.381  0.00  0.00    +0.166 A 
ATOM     16  C   LIG A   1      -6.005  -3.362 130.735  0.00  0.00    +0.167 A 
ATOM     17  O   LIG A   1      -6.288  -3.830 131.982  0.00  0.00    -0.453 OA
ATOM     18  C   LIG A   1      -5.000  -4.349 132.380  0.00  0.00    +0.466 C 
ATOM     19  O   LIG A   1      -3.991  -4.220 131.357  0.00  0.00    -0.453 OA
ATOM     20  C   LIG A   1      -6.893  -2.726 129.887  0.00  0.00    +0.057 A 
ENDBRANCH   6  12
BRANCH   1  22
ATOM     21  C   LIG A   1     -10.314   0.452 122.387  0.00  0.00    +0.277 C 
ATOM     22  O   LIG A   1      -9.655  -0.497 123.217  0.00  0.00    -0.491 OA
ENDBRANCH   1  22
BRANCH  10  23
ATOM     23  C   LIG A   1      -6.307   2.969 123.652  0.00  0.00    +0.061 C 
BRANCH  23  24
ATOM     24  C   LIG A   1      -6.559   3.154 122.180  0.00  0.00    -0.030 C 
ATOM     25  C   LIG A   1      -5.614   3.437 121.280  0.00  0.00    +0.004 C 
ENDBRANCH  23  24
ENDBRANCH  10  23
TORSDOF 4
ENDMDL
MODEL 9
REMARK VINA RESULT:      -7.2      7.667     12.332
REMARK  Name = NuBBE_2009
REMARK  6 active torsions:
REMARK  status: ('A' for Active; 'I' for Inactive)
REMARK    1  A    between atoms: C_1  and  O_2
REMARK    2  A    between atoms: O_2  and  C_3
REMARK    3  A    between atoms: C_6  and  C_8
REMARK    4  A    between atoms: C_9  and  C_12
REMARK    5  A    between atoms: C_23  and  C_24
REMARK    6  A    between atoms: C_24  and  C_25
REMARK                            x       y       z     vdW  Elec       q    Type
REMARK                         _______ _______ _______ _____ _____    ______ ____
ROOT
ATOM      1  C   LIG A   1     -10.630   6.863 128.286  0.00  0.00    +0.166 A 
ATOM      2  C   LIG A   1      -9.966   6.156 129.298  0.00  0.00    +0.204 A 
ATOM      3  O   LIG A   1      -8.957   5.302 128.953  0.00  0.00    -0.478 OA
ATOM      4  C   LIG A   1      -8.044   5.047 130.029  0.00  0.00    +0.216 C 
ATOM      5  C   LIG A   1      -7.126   3.950 129.500  0.00  0.00    +0.056 C 
ATOM      6  C   LIG A   1      -8.820   4.648 131.299  0.00  0.00    +0.244 C 
ATOM      7  O   LIG A   1      -9.735   5.694 131.689  0.00  0.00    -0.477 OA
ATOM      8  C   LIG A   1     -10.340   6.333 130.635  0.00  0.00    +0.167 A 
ATOM      9  C   LIG A   1     -11.365   7.225 130.967  0.00  0.00    +0.053 A 
ATOM     10  C   LIG A   1     -12.024   7.958 129.969  0.00  0.00    -0.036 A 
ATOM     11  C   LIG A   1     -11.640   7.770 128.635  0.00  0.00    +0.053 A 
ENDROOT
BRANCH   6  12
ATOM     12  C   LIG A   1      -7.922   4.388 132.505  0.00  0.00    -0.000 A 
ATOM     13  C   LIG A   1      -7.769   3.077 133.023  0.00  0.00    +0.011 A 
ATOM     14  C   LIG A   1      -6.937   2.817 134.120  0.00  0.00    +0.050 A 
ATOM     15  C   LIG A   1      -6.264   3.878 134.679  0.00  0.00    +0.166 A 
ATOM     16  C   LIG A   1      -6.397   5.155 134.189  0.00  0.00    +0.167 A 
ATOM     17  O   LIG A   1      -5.644   6.053 134.883  0.00  0.00    -0.453 OA
ATOM     18  C   LIG A   1      -5.003   5.188 135.846  0.00  0.00    +0.466 C 
ATOM     19  O   LIG A   1      -5.412   3.809 135.737  0.00  0.00    -0.453 OA
ATOM     20  C   LIG A   1      -7.213   5.443 133.111  0.00  0.00    +0.057 A 
ENDBRANCH   6  12
BRANCH   1  22
ATOM     21  C   LIG A   1     -11.027   7.800 126.131  0.00  0.00    +0.277 C 
ATOM     22  O   LIG A   1     -10.365   6.836 126.941  0.00  0.00    -0.491 OA
ENDBRANCH   1  22
BRANCH  10  23
ATOM     23  C   LIG A   1     -13.145   8.911 130.313  0.00  0.00    +0.061 C 
BRANCH  23  24
ATOM     24  C   LIG A   1     -13.171  10.123 129.422  0.00  0.00    -0.030 C 
ATOM     25  C   LIG A   1     -13.699  11.302 129.760  0.00  0.00    +0.004 C 
ENDBRANCH  23  24
ENDBRANCH  10  23
TORSDOF 4
ENDMDL
