MODEL 1
REMARK VINA RESULT:      -7.7      0.000      0.000
REMARK  Name = NuBBE_1547
REMARK  6 active torsions:
REMARK  status: ('A' for Active; 'I' for Inactive)
REMARK    1  A    between atoms: C_1  and  C_2
REMARK    2  A    between atoms: C_7  and  C_9
REMARK    3  A    between atoms: C_9  and  C_10
REMARK    4  A    between atoms: C_16  and  C_29
REMARK    5  A    between atoms: C_20  and  O_22
REMARK    6  A    between atoms: C_23  and  O_25
REMARK                            x       y       z     vdW  Elec       q    Type
REMARK                         _______ _______ _______ _____ _____    ______ ____
ROOT
ATOM      1  C   LIG A   1      -7.248  -0.167 129.224  0.00  0.00    +0.012 C 
ATOM      2  C   LIG A   1      -6.998  -1.684 129.404  0.00  0.00    -0.019 C 
ATOM      3  C   LIG A   1      -5.706  -2.206 128.741  0.00  0.00    +0.006 C 
ATOM      4  C   LIG A   1      -4.564  -1.621 129.565  0.00  0.00    +0.079 C 
ATOM      5  C   LIG A   1      -5.181  -1.651 130.947  0.00  0.00    +0.137 C 
ATOM      6  C   LIG A   1      -6.691  -1.908 130.922  0.00  0.00    +0.061 C 
ATOM      7  O   LIG A   1      -4.536  -1.475 131.976  0.00  0.00    -0.297 OA
ATOM      8  C   LIG A   1      -5.638  -2.124 127.207  0.00  0.00    -0.003 C 
ATOM      9  C   LIG A   1      -6.889  -2.798 126.573  0.00  0.00    -0.001 C 
ATOM     10  C   LIG A   1      -6.886  -2.669 125.005  0.00  0.00    -0.024 C 
ATOM     11  C   LIG A   1      -6.874  -1.172 124.550  0.00  0.00    -0.002 C 
ATOM     12  C   LIG A   1      -8.240  -0.578 124.127  0.00  0.00    +0.038 C 
ATOM     13  C   LIG A   1      -9.088  -1.510 123.286  0.00  0.00    +0.143 C 
ATOM     14  C   LIG A   1      -9.332  -2.810 124.047  0.00  0.00    +0.144 C 
ATOM     15  C   LIG A   1      -8.020  -3.524 124.357  0.00  0.00    +0.041 C 
ATOM     16  C   LIG A   1      -6.253  -0.198 125.578  0.00  0.00    +0.004 C 
ATOM     17  C   LIG A   1      -5.262  -0.771 126.584  0.00  0.00    +0.004 C 
ATOM     18  C   LIG A   1      -5.565  -3.324 124.477  0.00  0.00    +0.012 C 
ATOM     19  C   LIG A   1      -8.212  -2.374 127.259  0.00  0.00    +0.005 C 
ATOM     20  C   LIG A   1      -8.173  -2.465 128.796  0.00  0.00    +0.008 C 
ENDROOT
BRANCH   6  21
ATOM     21  C   LIG A   1      -6.969  -3.294 131.521  0.00  0.00    +0.008 C 
ATOM     22  C   LIG A   1      -7.499  -3.221 132.947  0.00  0.00    +0.004 C 
ENDBRANCH   6  21
BRANCH  13  23
ATOM     23  O   LIG A   1      -8.434  -1.777 122.045  0.00  0.00    -0.389 OA
ATOM     24  H   LIG A   1      -8.000  -0.934 121.807  0.00  0.00    +0.210 HD
ENDBRANCH  13  23
BRANCH  14  25
ATOM     25  O   LIG A   1     -10.138  -3.662 123.223  0.00  0.00    -0.389 OA
ATOM     26  H   LIG A   1      -9.795  -4.568 123.323  0.00  0.00    +0.210 HD
ENDBRANCH  14  25
TORSDOF 3
ENDMDL
MODEL 2
REMARK VINA RESULT:      -7.6      3.590      5.449
REMARK  Name = NuBBE_1547
REMARK  6 active torsions:
REMARK  status: ('A' for Active; 'I' for Inactive)
REMARK    1  A    between atoms: C_1  and  C_2
REMARK    2  A    between atoms: C_7  and  C_9
REMARK    3  A    between atoms: C_9  and  C_10
REMARK    4  A    between atoms: C_16  and  C_29
REMARK    5  A    between atoms: C_20  and  O_22
REMARK    6  A    between atoms: C_23  and  O_25
REMARK                            x       y       z     vdW  Elec       q    Type
REMARK                         _______ _______ _______ _____ _____    ______ ____
ROOT
ATOM      1  C   LIG A   1      -6.089   2.296 128.104  0.00  0.00    +0.012 C 
ATOM      2  C   LIG A   1      -5.281   2.427 126.791  0.00  0.00    -0.019 C 
ATOM      3  C   LIG A   1      -6.079   2.995 125.598  0.00  0.00    +0.006 C 
ATOM      4  C   LIG A   1      -6.327   4.460 125.939  0.00  0.00    +0.079 C 
ATOM      5  C   LIG A   1      -5.038   4.795 126.659  0.00  0.00    +0.137 C 
ATOM      6  C   LIG A   1      -4.221   3.553 127.030  0.00  0.00    +0.061 C 
ATOM      7  O   LIG A   1      -4.693   5.942 126.925  0.00  0.00    -0.297 OA
ATOM      8  C   LIG A   1      -7.250   2.140 125.085  0.00  0.00    -0.003 C 
ATOM      9  C   LIG A   1      -6.769   0.691 124.782  0.00  0.00    -0.001 C 
ATOM     10  C   LIG A   1      -7.959  -0.230 124.321  0.00  0.00    -0.024 C 
ATOM     11  C   LIG A   1      -9.074  -0.321 125.415  0.00  0.00    -0.002 C 
ATOM     12  C   LIG A   1      -9.055  -1.588 126.303  0.00  0.00    +0.038 C 
ATOM     13  C   LIG A   1      -8.775  -2.871 125.548  0.00  0.00    +0.143 C 
ATOM     14  C   LIG A   1      -7.437  -2.759 124.824  0.00  0.00    +0.144 C 
ATOM     15  C   LIG A   1      -7.449  -1.615 123.814  0.00  0.00    +0.041 C 
ATOM     16  C   LIG A   1      -9.139   0.899 126.364  0.00  0.00    +0.004 C 
ATOM     17  C   LIG A   1      -8.578   2.220 125.852  0.00  0.00    +0.004 C 
ATOM     18  C   LIG A   1      -8.605   0.426 123.055  0.00  0.00    +0.012 C 
ATOM     19  C   LIG A   1      -5.890   0.101 125.912  0.00  0.00    +0.005 C 
ATOM     20  C   LIG A   1      -4.761   1.042 126.377  0.00  0.00    +0.008 C 
ENDROOT
BRANCH   6  21
ATOM     21  C   LIG A   1      -2.938   3.532 126.189  0.00  0.00    +0.008 C 
ATOM     22  C   LIG A   1      -1.720   3.081 126.986  0.00  0.00    +0.004 C 
ENDBRANCH   6  21
BRANCH  13  23
ATOM     23  O   LIG A   1      -9.824  -3.126 124.614  0.00  0.00    -0.389 OA
ATOM     24  H   LIG A   1      -9.983  -2.266 124.177  0.00  0.00    +0.210 HD
ENDBRANCH  13  23
BRANCH  14  25
ATOM     25  O   LIG A   1      -7.206  -3.989 124.125  0.00  0.00    -0.389 OA
ATOM     26  H   LIG A   1      -6.275  -3.988 123.838  0.00  0.00    +0.210 HD
ENDBRANCH  14  25
TORSDOF 3
ENDMDL
MODEL 3
REMARK VINA RESULT:      -7.6      1.426      7.031
REMARK  Name = NuBBE_1547
REMARK  6 active torsions:
REMARK  status: ('A' for Active; 'I' for Inactive)
REMARK    1  A    between atoms: C_1  and  C_2
REMARK    2  A    between atoms: C_7  and  C_9
REMARK    3  A    between atoms: C_9  and  C_10
REMARK    4  A    between atoms: C_16  and  C_29
REMARK    5  A    between atoms: C_20  and  O_22
REMARK    6  A    between atoms: C_23  and  O_25
REMARK                            x       y       z     vdW  Elec       q    Type
REMARK                         _______ _______ _______ _____ _____    ______ ____
ROOT
ATOM      1  C   LIG A   1      -7.982  -0.450 126.919  0.00  0.00    +0.012 C 
ATOM      2  C   LIG A   1      -7.188  -1.655 126.358  0.00  0.00    -0.019 C 
ATOM      3  C   LIG A   1      -7.622  -3.027 126.916  0.00  0.00    +0.006 C 
ATOM      4  C   LIG A   1      -9.003  -3.284 126.325  0.00  0.00    +0.079 C 
ATOM      5  C   LIG A   1      -8.838  -2.656 124.958  0.00  0.00    +0.137 C 
ATOM      6  C   LIG A   1      -7.582  -1.785 124.849  0.00  0.00    +0.061 C 
ATOM      7  O   LIG A   1      -9.635  -2.820 124.040  0.00  0.00    -0.297 OA
ATOM      8  C   LIG A   1      -7.398  -3.260 128.419  0.00  0.00    -0.003 C 
ATOM      9  C   LIG A   1      -5.919  -2.957 128.799  0.00  0.00    -0.001 C 
ATOM     10  C   LIG A   1      -5.673  -3.117 130.345  0.00  0.00    -0.024 C 
ATOM     11  C   LIG A   1      -6.582  -2.152 131.177  0.00  0.00    -0.002 C 
ATOM     12  C   LIG A   1      -5.912  -0.852 131.681  0.00  0.00    +0.038 C 
ATOM     13  C   LIG A   1      -4.506  -1.043 132.211  0.00  0.00    +0.143 C 
ATOM     14  C   LIG A   1      -3.627  -1.659 131.126  0.00  0.00    +0.144 C 
ATOM     15  C   LIG A   1      -4.155  -3.025 130.697  0.00  0.00    +0.041 C 
ATOM     16  C   LIG A   1      -7.894  -1.744 130.469  0.00  0.00    +0.004 C 
ATOM     17  C   LIG A   1      -8.435  -2.676 129.391  0.00  0.00    +0.004 C 
ATOM     18  C   LIG A   1      -6.068  -4.580 130.740  0.00  0.00    +0.012 C 
ATOM     19  C   LIG A   1      -5.403  -1.628 128.193  0.00  0.00    +0.005 C 
ATOM     20  C   LIG A   1      -5.699  -1.476 126.688  0.00  0.00    +0.008 C 
ENDROOT
BRANCH   6  21
ATOM     21  C   LIG A   1      -6.588  -2.463 123.896  0.00  0.00    +0.008 C 
ATOM     22  C   LIG A   1      -6.490  -1.756 122.551  0.00  0.00    +0.004 C 
ENDBRANCH   6  21
BRANCH  13  23
ATOM     23  O   LIG A   1      -4.530  -1.883 133.365  0.00  0.00    -0.389 OA
ATOM     24  H   LIG A   1      -5.006  -2.687 133.078  0.00  0.00    +0.210 HD
ENDBRANCH  13  23
BRANCH  14  25
ATOM     25  O   LIG A   1      -2.308  -1.822 131.662  0.00  0.00    -0.389 OA
ATOM     26  H   LIG A   1      -1.753  -1.117 131.284  0.00  0.00    +0.210 HD
ENDBRANCH  14  25
TORSDOF 3
ENDMDL
MODEL 4
REMARK VINA RESULT:      -7.5      3.016      4.806
REMARK  Name = NuBBE_1547
REMARK  6 active torsions:
REMARK  status: ('A' for Active; 'I' for Inactive)
REMARK    1  A    between atoms: C_1  and  C_2
REMARK    2  A    between atoms: C_7  and  C_9
REMARK    3  A    between atoms: C_9  and  C_10
REMARK    4  A    between atoms: C_16  and  C_29
REMARK    5  A    between atoms: C_20  and  O_22
REMARK    6  A    between atoms: C_23  and  O_25
REMARK                            x       y       z     vdW  Elec       q    Type
REMARK                         _______ _______ _______ _____ _____    ______ ____
ROOT
ATOM      1  C   LIG A   1      -6.251  -2.181 126.308  0.00  0.00    +0.012 C 
ATOM      2  C   LIG A   1      -7.373  -1.658 127.236  0.00  0.00    -0.019 C 
ATOM      3  C   LIG A   1      -8.788  -1.701 126.623  0.00  0.00    +0.006 C 
ATOM      4  C   LIG A   1      -9.146  -3.180 126.534  0.00  0.00    +0.079 C 
ATOM      5  C   LIG A   1      -8.475  -3.699 127.789  0.00  0.00    +0.137 C 
ATOM      6  C   LIG A   1      -7.501  -2.690 128.406  0.00  0.00    +0.061 C 
ATOM      7  O   LIG A   1      -8.684  -4.815 128.251  0.00  0.00    -0.297 OA
ATOM      8  C   LIG A   1      -9.036  -0.799 125.401  0.00  0.00    -0.003 C 
ATOM      9  C   LIG A   1      -8.621   0.667 125.718  0.00  0.00    -0.001 C 
ATOM     10  C   LIG A   1      -8.795   1.602 124.465  0.00  0.00    -0.024 C 
ATOM     11  C   LIG A   1      -7.927   1.116 123.258  0.00  0.00    -0.002 C 
ATOM     12  C   LIG A   1      -6.588   1.859 123.039  0.00  0.00    +0.038 C 
ATOM     13  C   LIG A   1      -6.675   3.362 123.218  0.00  0.00    +0.143 C 
ATOM     14  C   LIG A   1      -7.191   3.682 124.617  0.00  0.00    +0.144 C 
ATOM     15  C   LIG A   1      -8.586   3.104 124.837  0.00  0.00    +0.041 C 
ATOM     16  C   LIG A   1      -7.612  -0.397 123.266  0.00  0.00    +0.004 C 
ATOM     17  C   LIG A   1      -8.562  -1.311 124.032  0.00  0.00    +0.004 C 
ATOM     18  C   LIG A   1     -10.294   1.526 124.019  0.00  0.00    +0.012 C 
ATOM     19  C   LIG A   1      -7.241   0.763 126.415  0.00  0.00    +0.005 C 
ATOM     20  C   LIG A   1      -7.079  -0.197 127.610  0.00  0.00    +0.008 C 
ENDROOT
BRANCH   6  21
ATOM     21  C   LIG A   1      -8.073  -2.201 129.744  0.00  0.00    +0.008 C 
ATOM     22  C   LIG A   1      -7.400  -2.855 130.944  0.00  0.00    +0.004 C 
ENDBRANCH   6  21
BRANCH  13  23
ATOM     23  O   LIG A   1      -7.539   3.921 122.229  0.00  0.00    -0.389 OA
ATOM     24  H   LIG A   1      -8.007   4.645 122.690  0.00  0.00    +0.210 HD
ENDBRANCH  13  23
BRANCH  14  25
ATOM     25  O   LIG A   1      -7.257   5.108 124.750  0.00  0.00    -0.389 OA
ATOM     26  H   LIG A   1      -7.499   5.301 125.673  0.00  0.00    +0.210 HD
ENDBRANCH  14  25
TORSDOF 3
ENDMDL
MODEL 5
REMARK VINA RESULT:      -7.5      1.883      3.013
REMARK  Name = NuBBE_1547
REMARK  6 active torsions:
REMARK  status: ('A' for Active; 'I' for Inactive)
REMARK    1  A    between atoms: C_1  and  C_2
REMARK    2  A    between atoms: C_7  and  C_9
REMARK    3  A    between atoms: C_9  and  C_10
REMARK    4  A    between atoms: C_16  and  C_29
REMARK    5  A    between atoms: C_20  and  O_22
REMARK    6  A    between atoms: C_23  and  O_25
REMARK                            x       y       z     vdW  Elec       q    Type
REMARK                         _______ _______ _______ _____ _____    ______ ____
ROOT
ATOM      1  C   LIG A   1      -5.912   0.365 129.982  0.00  0.00    +0.012 C 
ATOM      2  C   LIG A   1      -7.434   0.126 130.127  0.00  0.00    -0.019 C 
ATOM      3  C   LIG A   1      -7.858  -1.357 130.101  0.00  0.00    +0.006 C 
ATOM      4  C   LIG A   1      -7.343  -1.948 131.408  0.00  0.00    +0.079 C 
ATOM      5  C   LIG A   1      -7.532  -0.766 132.336  0.00  0.00    +0.137 C 
ATOM      6  C   LIG A   1      -7.814   0.541 131.588  0.00  0.00    +0.061 C 
ATOM      7  O   LIG A   1      -7.455  -0.850 133.557  0.00  0.00    -0.297 OA
ATOM      8  C   LIG A   1      -7.611  -2.120 128.789  0.00  0.00    -0.003 C 
ATOM      9  C   LIG A   1      -8.237  -1.350 127.589  0.00  0.00    -0.001 C 
ATOM     10  C   LIG A   1      -7.941  -2.068 126.221  0.00  0.00    -0.024 C 
ATOM     11  C   LIG A   1      -6.404  -2.189 125.955  0.00  0.00    -0.002 C 
ATOM     12  C   LIG A   1      -5.795  -1.137 124.997  0.00  0.00    +0.038 C 
ATOM     13  C   LIG A   1      -6.647  -0.837 123.780  0.00  0.00    +0.143 C 
ATOM     14  C   LIG A   1      -8.025  -0.356 124.226  0.00  0.00    +0.144 C 
ATOM     15  C   LIG A   1      -8.743  -1.422 125.049  0.00  0.00    +0.041 C 
ATOM     16  C   LIG A   1      -5.533  -2.199 127.232  0.00  0.00    +0.004 C 
ATOM     17  C   LIG A   1      -6.192  -2.649 128.531  0.00  0.00    +0.004 C 
ATOM     18  C   LIG A   1      -8.510  -3.524 126.315  0.00  0.00    +0.012 C 
ATOM     19  C   LIG A   1      -7.914   0.164 127.613  0.00  0.00    +0.005 C 
ATOM     20  C   LIG A   1      -8.168   0.833 128.978  0.00  0.00    +0.008 C 
ENDROOT
BRANCH   6  21
ATOM     21  C   LIG A   1      -9.260   0.971 131.867  0.00  0.00    +0.008 C 
ATOM     22  C   LIG A   1      -9.345   2.301 132.605  0.00  0.00    +0.004 C 
ENDBRANCH   6  21
BRANCH  13  23
ATOM     23  O   LIG A   1      -6.767  -2.006 122.970  0.00  0.00    -0.389 OA
ATOM     24  H   LIG A   1      -7.723  -2.078 122.779  0.00  0.00    +0.210 HD
ENDBRANCH  13  23
BRANCH  14  25
ATOM     25  O   LIG A   1      -8.800  -0.081 123.051  0.00  0.00    -0.389 OA
ATOM     26  H   LIG A   1      -9.679  -0.477 123.186  0.00  0.00    +0.210 HD
ENDBRANCH  14  25
TORSDOF 3
ENDMDL
MODEL 6
REMARK VINA RESULT:      -7.3      7.323     10.766
REMARK  Name = NuBBE_1547
REMARK  6 active torsions:
REMARK  status: ('A' for Active; 'I' for Inactive)
REMARK    1  A    between atoms: C_1  and  C_2
REMARK    2  A    between atoms: C_7  and  C_9
REMARK    3  A    between atoms: C_9  and  C_10
REMARK    4  A    between atoms: C_16  and  C_29
REMARK    5  A    between atoms: C_20  and  O_22
REMARK    6  A    between atoms: C_23  and  O_25
REMARK                            x       y       z     vdW  Elec       q    Type
REMARK                         _______ _______ _______ _____ _____    ______ ____
ROOT
ATOM      1  C   LIG A   1     -10.408   6.379 132.506  0.00  0.00    +0.012 C 
ATOM      2  C   LIG A   1      -9.720   6.220 131.129  0.00  0.00    -0.019 C 
ATOM      3  C   LIG A   1      -9.604   4.763 130.632  0.00  0.00    +0.006 C 
ATOM      4  C   LIG A   1     -11.029   4.335 130.300  0.00  0.00    +0.079 C 
ATOM      5  C   LIG A   1     -11.589   5.637 129.768  0.00  0.00    +0.137 C 
ATOM      6  C   LIG A   1     -10.691   6.841 130.070  0.00  0.00    +0.061 C 
ATOM      7  O   LIG A   1     -12.656   5.716 129.168  0.00  0.00    -0.297 OA
ATOM      8  C   LIG A   1      -8.716   3.822 131.463  0.00  0.00    -0.003 C 
ATOM      9  C   LIG A   1      -7.304   4.447 131.663  0.00  0.00    -0.001 C 
ATOM     10  C   LIG A   1      -6.393   3.540 132.570  0.00  0.00    -0.024 C 
ATOM     11  C   LIG A   1      -7.020   3.326 133.987  0.00  0.00    -0.002 C 
ATOM     12  C   LIG A   1      -6.458   4.216 135.122  0.00  0.00    +0.038 C 
ATOM     13  C   LIG A   1      -4.952   4.380 135.092  0.00  0.00    +0.143 C 
ATOM     14  C   LIG A   1      -4.526   4.969 133.750  0.00  0.00    +0.144 C 
ATOM     15  C   LIG A   1      -4.919   4.052 132.596  0.00  0.00    +0.041 C 
ATOM     16  C   LIG A   1      -8.561   3.455 134.029  0.00  0.00    +0.004 C 
ATOM     17  C   LIG A   1      -9.324   3.209 132.733  0.00  0.00    +0.004 C 
ATOM     18  C   LIG A   1      -6.295   2.132 131.890  0.00  0.00    +0.012 C 
ATOM     19  C   LIG A   1      -7.361   5.937 132.080  0.00  0.00    +0.005 C 
ATOM     20  C   LIG A   1      -8.297   6.793 131.205  0.00  0.00    +0.008 C 
ENDROOT
BRANCH   6  21
ATOM     21  C   LIG A   1     -10.095   7.360 128.755  0.00  0.00    +0.008 C 
ATOM     22  C   LIG A   1     -10.838   8.573 128.211  0.00  0.00    +0.004 C 
ENDBRANCH   6  21
BRANCH  13  23
ATOM     23  O   LIG A   1      -4.319   3.119 135.304  0.00  0.00    -0.389 OA
ATOM     24  H   LIG A   1      -4.979   2.589 135.793  0.00  0.00    +0.210 HD
ENDBRANCH  13  23
BRANCH  14  25
ATOM     25  O   LIG A   1      -3.100   5.113 133.761  0.00  0.00    -0.389 OA
ATOM     26  H   LIG A   1      -2.844   5.518 132.914  0.00  0.00    +0.210 HD
ENDBRANCH  14  25
TORSDOF 3
ENDMDL
MODEL 7
REMARK VINA RESULT:      -7.2      1.595      6.697
REMARK  Name = NuBBE_1547
REMARK  6 active torsions:
REMARK  status: ('A' for Active; 'I' for Inactive)
REMARK    1  A    between atoms: C_1  and  C_2
REMARK    2  A    between atoms: C_7  and  C_9
REMARK    3  A    between atoms: C_9  and  C_10
REMARK    4  A    between atoms: C_16  and  C_29
REMARK    5  A    between atoms: C_20  and  O_22
REMARK    6  A    between atoms: C_23  and  O_25
REMARK                            x       y       z     vdW  Elec       q    Type
REMARK                         _______ _______ _______ _____ _____    ______ ____
ROOT
ATOM      1  C   LIG A   1      -6.458   0.694 125.204  0.00  0.00    +0.012 C 
ATOM      2  C   LIG A   1      -7.003  -0.740 124.997  0.00  0.00    -0.019 C 
ATOM      3  C   LIG A   1      -8.183  -1.119 125.916  0.00  0.00    +0.006 C 
ATOM      4  C   LIG A   1      -9.360  -0.283 125.427  0.00  0.00    +0.079 C 
ATOM      5  C   LIG A   1      -9.087  -0.270 123.938  0.00  0.00    +0.137 C 
ATOM      6  C   LIG A   1      -7.679  -0.761 123.586  0.00  0.00    +0.061 C 
ATOM      7  O   LIG A   1      -9.906   0.106 123.106  0.00  0.00    -0.297 OA
ATOM      8  C   LIG A   1      -7.887  -1.181 127.424  0.00  0.00    -0.003 C 
ATOM      9  C   LIG A   1      -6.662  -2.101 127.698  0.00  0.00    -0.001 C 
ATOM     10  C   LIG A   1      -6.289  -2.130 129.226  0.00  0.00    -0.024 C 
ATOM     11  C   LIG A   1      -5.936  -0.703 129.761  0.00  0.00    -0.002 C 
ATOM     12  C   LIG A   1      -4.428  -0.374 129.880  0.00  0.00    +0.038 C 
ATOM     13  C   LIG A   1      -3.588  -1.506 130.436  0.00  0.00    +0.143 C 
ATOM     14  C   LIG A   1      -3.753  -2.745 129.561  0.00  0.00    +0.144 C 
ATOM     15  C   LIG A   1      -5.206  -3.211 129.531  0.00  0.00    +0.041 C 
ATOM     16  C   LIG A   1      -6.593   0.454 128.973  0.00  0.00    +0.004 C 
ATOM     17  C   LIG A   1      -7.870   0.145 128.200  0.00  0.00    +0.004 C 
ATOM     18  C   LIG A   1      -7.550  -2.621 130.015  0.00  0.00    +0.012 C 
ATOM     19  C   LIG A   1      -5.476  -1.821 126.743  0.00  0.00    +0.005 C 
ATOM     20  C   LIG A   1      -5.876  -1.751 125.257  0.00  0.00    +0.008 C 
ENDROOT
BRANCH   6  21
ATOM     21  C   LIG A   1      -7.789  -2.105 122.854  0.00  0.00    +0.008 C 
ATOM     22  C   LIG A   1      -8.961  -2.946 123.345  0.00  0.00    +0.004 C 
ENDBRANCH   6  21
BRANCH  13  23
ATOM     23  O   LIG A   1      -3.982  -1.791 131.778  0.00  0.00    -0.389 OA
ATOM     24  H   LIG A   1      -4.926  -1.541 131.819  0.00  0.00    +0.210 HD
ENDBRANCH  13  23
BRANCH  14  25
ATOM     25  O   LIG A   1      -2.944  -3.791 130.115  0.00  0.00    -0.389 OA
ATOM     26  H   LIG A   1      -2.856  -4.480 129.433  0.00  0.00    +0.210 HD
ENDBRANCH  14  25
TORSDOF 3
ENDMDL
MODEL 8
REMARK VINA RESULT:      -7.0      7.164     10.433
REMARK  Name = NuBBE_1547
REMARK  6 active torsions:
REMARK  status: ('A' for Active; 'I' for Inactive)
REMARK    1  A    between atoms: C_1  and  C_2
REMARK    2  A    between atoms: C_7  and  C_9
REMARK    3  A    between atoms: C_9  and  C_10
REMARK    4  A    between atoms: C_16  and  C_29
REMARK    5  A    between atoms: C_20  and  O_22
REMARK    6  A    between atoms: C_23  and  O_25
REMARK                            x       y       z     vdW  Elec       q    Type
REMARK                         _______ _______ _______ _____ _____    ______ ____
ROOT
ATOM      1  C   LIG A   1      -7.350   3.720 132.521  0.00  0.00    +0.012 C 
ATOM      2  C   LIG A   1      -7.699   4.952 131.651  0.00  0.00    -0.019 C 
ATOM      3  C   LIG A   1      -7.195   4.875 130.194  0.00  0.00    +0.006 C 
ATOM      4  C   LIG A   1      -8.044   3.797 129.530  0.00  0.00    +0.079 C 
ATOM      5  C   LIG A   1      -9.370   4.026 130.225  0.00  0.00    +0.137 C 
ATOM      6  C   LIG A   1      -9.251   4.934 131.453  0.00  0.00    +0.061 C 
ATOM      7  O   LIG A   1     -10.423   3.525 129.846  0.00  0.00    -0.297 OA
ATOM      8  C   LIG A   1      -5.671   4.854 129.995  0.00  0.00    -0.003 C 
ATOM      9  C   LIG A   1      -5.010   6.050 130.740  0.00  0.00    -0.001 C 
ATOM     10  C   LIG A   1      -3.442   6.017 130.614  0.00  0.00    -0.024 C 
ATOM     11  C   LIG A   1      -2.844   4.700 131.210  0.00  0.00    -0.002 C 
ATOM     12  C   LIG A   1      -2.258   4.805 132.639  0.00  0.00    +0.038 C 
ATOM     13  C   LIG A   1      -1.448   6.061 132.887  0.00  0.00    +0.143 C 
ATOM     14  C   LIG A   1      -2.313   7.290 132.620  0.00  0.00    +0.144 C 
ATOM     15  C   LIG A   1      -2.795   7.322 131.173  0.00  0.00    +0.041 C 
ATOM     16  C   LIG A   1      -3.815   3.497 131.204  0.00  0.00    +0.004 C 
ATOM     17  C   LIG A   1      -4.948   3.511 130.184  0.00  0.00    +0.004 C 
ATOM     18  C   LIG A   1      -3.087   6.038 129.089  0.00  0.00    +0.012 C 
ATOM     19  C   LIG A   1      -5.544   6.227 132.183  0.00  0.00    +0.005 C 
ATOM     20  C   LIG A   1      -7.081   6.208 132.284  0.00  0.00    +0.008 C 
ENDROOT
BRANCH   6  21
ATOM     21  C   LIG A   1      -9.961   6.262 131.160  0.00  0.00    +0.008 C 
ATOM     22  C   LIG A   1     -11.307   6.377 131.864  0.00  0.00    +0.004 C 
ENDBRANCH   6  21
BRANCH  13  23
ATOM     23  O   LIG A   1      -0.296   6.073 132.045  0.00  0.00    -0.389 OA
ATOM     24  H   LIG A   1      -0.356   5.244 131.531  0.00  0.00    +0.210 HD
ENDBRANCH  13  23
BRANCH  14  25
ATOM     25  O   LIG A   1      -1.516   8.456 132.868  0.00  0.00    -0.389 OA
ATOM     26  H   LIG A   1      -2.084   9.101 133.326  0.00  0.00    +0.210 HD
ENDBRANCH  14  25
TORSDOF 3
ENDMDL
MODEL 9
REMARK VINA RESULT:      -6.9      2.531      3.959
REMARK  Name = NuBBE_1547
REMARK  6 active torsions:
REMARK  status: ('A' for Active; 'I' for Inactive)
REMARK    1  A    between atoms: C_1  and  C_2
REMARK    2  A    between atoms: C_7  and  C_9
REMARK    3  A    between atoms: C_9  and  C_10
REMARK    4  A    between atoms: C_16  and  C_29
REMARK    5  A    between atoms: C_20  and  O_22
REMARK    6  A    between atoms: C_23  and  O_25
REMARK                            x       y       z     vdW  Elec       q    Type
REMARK                         _______ _______ _______ _____ _____    ______ ____
ROOT
ATOM      1  C   LIG A   1      -6.135   2.193 127.876  0.00  0.00    +0.012 C 
ATOM      2  C   LIG A   1      -7.476   1.935 128.603  0.00  0.00    -0.019 C 
ATOM      3  C   LIG A   1      -7.451   0.758 129.601  0.00  0.00    +0.006 C 
ATOM      4  C   LIG A   1      -6.576   1.227 130.757  0.00  0.00    +0.079 C 
ATOM      5  C   LIG A   1      -6.941   2.696 130.798  0.00  0.00    +0.137 C 
ATOM      6  C   LIG A   1      -7.710   3.155 129.555  0.00  0.00    +0.061 C 
ATOM      7  O   LIG A   1      -6.640   3.439 131.726  0.00  0.00    -0.297 OA
ATOM      8  C   LIG A   1      -7.217  -0.641 129.007  0.00  0.00    -0.003 C 
ATOM      9  C   LIG A   1      -8.231  -0.918 127.859  0.00  0.00    -0.001 C 
ATOM     10  C   LIG A   1      -7.972  -2.315 127.182  0.00  0.00    -0.024 C 
ATOM     11  C   LIG A   1      -6.533  -2.404 126.574  0.00  0.00    -0.002 C 
ATOM     12  C   LIG A   1      -6.423  -2.171 125.048  0.00  0.00    +0.038 C 
ATOM     13  C   LIG A   1      -7.516  -2.838 124.238  0.00  0.00    +0.143 C 
ATOM     14  C   LIG A   1      -8.880  -2.344 124.713  0.00  0.00    +0.144 C 
ATOM     15  C   LIG A   1      -9.111  -2.687 126.182  0.00  0.00    +0.041 C 
ATOM     16  C   LIG A   1      -5.496  -1.479 127.252  0.00  0.00    +0.004 C 
ATOM     17  C   LIG A   1      -5.770  -1.044 128.687  0.00  0.00    +0.004 C 
ATOM     18  C   LIG A   1      -8.072  -3.410 128.298  0.00  0.00    +0.012 C 
ATOM     19  C   LIG A   1      -8.359   0.269 126.872  0.00  0.00    +0.005 C 
ATOM     20  C   LIG A   1      -8.564   1.631 127.562  0.00  0.00    +0.008 C 
ENDROOT
BRANCH   6  21
ATOM     21  C   LIG A   1      -9.151   3.495 129.959  0.00  0.00    +0.008 C 
ATOM     22  C   LIG A   1      -9.446   4.987 129.880  0.00  0.00    +0.004 C 
ENDBRANCH   6  21
BRANCH  13  23
ATOM     23  O   LIG A   1      -7.427  -4.256 124.373  0.00  0.00    -0.389 OA
ATOM     24  H   LIG A   1      -7.017  -4.560 123.539  0.00  0.00    +0.210 HD
ENDBRANCH  13  23
BRANCH  14  25
ATOM     25  O   LIG A   1      -9.886  -2.993 123.924  0.00  0.00    -0.389 OA
ATOM     26  H   LIG A   1      -9.521  -3.848 123.637  0.00  0.00    +0.210 HD
ENDBRANCH  14  25
TORSDOF 3
ENDMDL
