MODEL 1
REMARK VINA RESULT:      -8.7      0.000      0.000
REMARK  Name = NuBBE_1589
REMARK  5 active torsions:
REMARK  status: ('A' for Active; 'I' for Inactive)
REMARK    1  A    between atoms: C_6  and  C_7
REMARK    2  A    between atoms: C_18  and  O_19
REMARK    3  A    between atoms: O_19  and  C_20
REMARK    4  A    between atoms: C_24  and  C_25
REMARK    5  A    between atoms: C_24  and  C_26
REMARK                            x       y       z     vdW  Elec       q    Type
REMARK                         _______ _______ _______ _____ _____    ______ ____
ROOT
ATOM      1  O   LIG A   1      -8.087   5.200 134.475  0.00  0.00    -0.287 OA
ATOM      2  C   LIG A   1      -8.020   5.690 133.357  0.00  0.00    +0.197 A 
ATOM      3  C   LIG A   1      -6.765   6.112 132.691  0.00  0.00    +0.106 A 
ATOM      4  C   LIG A   1      -6.870   6.699 131.431  0.00  0.00    +0.146 A 
ATOM      5  O   LIG A   1      -8.066   6.891 130.780  0.00  0.00    -0.454 OA
ATOM      6  C   LIG A   1      -9.232   6.453 131.385  0.00  0.00    +0.139 A 
ATOM      7  C   LIG A   1      -9.267   5.889 132.599  0.00  0.00    +0.098 A 
ATOM      8  C   LIG A   1      -5.730   7.132 130.749  0.00  0.00    +0.093 A 
ATOM      9  C   LIG A   1      -4.464   6.974 131.320  0.00  0.00    +0.134 A 
ATOM     10  C   LIG A   1      -4.348   6.374 132.594  0.00  0.00    +0.059 A 
ATOM     11  C   LIG A   1      -5.501   5.948 133.278  0.00  0.00    +0.147 A 
ATOM     12  O   LIG A   1      -5.441   5.333 134.497  0.00  0.00    -0.481 OA
ATOM     13  C   LIG A   1      -4.218   5.322 135.250  0.00  0.00    +0.123 C 
ATOM     14  C   LIG A   1      -4.393   6.304 136.414  0.00  0.00    +0.060 C 
ATOM     15  C   LIG A   1      -4.076   3.896 135.794  0.00  0.00    +0.060 C 
ATOM     16  C   LIG A   1      -2.988   5.682 134.458  0.00  0.00    +0.020 C 
ATOM     17  C   LIG A   1      -3.041   6.168 133.216  0.00  0.00    +0.015 C 
ENDROOT
BRANCH   6  18
ATOM     18  C   LIG A   1     -10.463   6.683 130.591  0.00  0.00    +0.021 A 
ATOM     19  C   LIG A   1     -11.714   6.913 131.217  0.00  0.00    +0.015 A 
ATOM     20  C   LIG A   1     -12.880   7.126 130.471  0.00  0.00    +0.050 A 
ATOM     21  C   LIG A   1     -12.776   7.094 129.100  0.00  0.00    +0.166 A 
ATOM     22  O   LIG A   1     -13.796   7.273 128.221  0.00  0.00    -0.453 OA
ATOM     23  C   LIG A   1     -13.100   7.130 126.966  0.00  0.00    +0.466 C 
ATOM     24  O   LIG A   1     -11.690   6.865 127.120  0.00  0.00    -0.453 OA
ATOM     25  C   LIG A   1     -11.576   6.860 128.475  0.00  0.00    +0.167 A 
ATOM     26  C   LIG A   1     -10.410   6.651 129.186  0.00  0.00    +0.061 A 
ENDBRANCH   6  18
BRANCH   9  27
ATOM     27  O   LIG A   1      -3.295   7.369 130.720  0.00  0.00    -0.494 OA
ATOM     28  C   LIG A   1      -2.928   6.741 129.497  0.00  0.00    +0.277 C 
ENDBRANCH   9  27
TORSDOF 2
ENDMDL
MODEL 2
REMARK VINA RESULT:      -8.6      8.894     10.446
REMARK  Name = NuBBE_1589
REMARK  5 active torsions:
REMARK  status: ('A' for Active; 'I' for Inactive)
REMARK    1  A    between atoms: C_6  and  C_7
REMARK    2  A    between atoms: C_18  and  O_19
REMARK    3  A    between atoms: O_19  and  C_20
REMARK    4  A    between atoms: C_24  and  C_25
REMARK    5  A    between atoms: C_24  and  C_26
REMARK                            x       y       z     vdW  Elec       q    Type
REMARK                         _______ _______ _______ _____ _____    ______ ____
ROOT
ATOM      1  O   LIG A   1      -6.039   2.252 127.048  0.00  0.00    -0.287 OA
ATOM      2  C   LIG A   1      -6.334   1.888 125.918  0.00  0.00    +0.197 A 
ATOM      3  C   LIG A   1      -6.936   0.576 125.582  0.00  0.00    +0.106 A 
ATOM      4  C   LIG A   1      -7.165   0.298 124.235  0.00  0.00    +0.146 A 
ATOM      5  O   LIG A   1      -6.875   1.178 123.219  0.00  0.00    -0.454 OA
ATOM      6  C   LIG A   1      -6.355   2.421 123.540  0.00  0.00    +0.139 A 
ATOM      7  C   LIG A   1      -6.075   2.802 124.793  0.00  0.00    +0.098 A 
ATOM      8  C   LIG A   1      -7.720  -0.923 123.844  0.00  0.00    +0.093 A 
ATOM      9  C   LIG A   1      -8.060  -1.882 124.801  0.00  0.00    +0.134 A 
ATOM     10  C   LIG A   1      -7.837  -1.607 126.169  0.00  0.00    +0.059 A 
ATOM     11  C   LIG A   1      -7.272  -0.378 126.555  0.00  0.00    +0.147 A 
ATOM     12  O   LIG A   1      -7.065  -0.050 127.865  0.00  0.00    -0.481 OA
ATOM     13  C   LIG A   1      -7.182  -1.044 128.895  0.00  0.00    +0.123 C 
ATOM     14  C   LIG A   1      -5.762  -1.375 129.369  0.00  0.00    +0.060 C 
ATOM     15  C   LIG A   1      -7.963  -0.377 130.033  0.00  0.00    +0.060 C 
ATOM     16  C   LIG A   1      -7.887  -2.306 128.474  0.00  0.00    +0.020 C 
ATOM     17  C   LIG A   1      -8.201  -2.573 127.204  0.00  0.00    +0.015 C 
ENDROOT
BRANCH   6  18
ATOM     18  C   LIG A   1      -6.102   3.303 122.376  0.00  0.00    +0.021 A 
ATOM     19  C   LIG A   1      -5.001   4.197 122.353  0.00  0.00    +0.015 A 
ATOM     20  C   LIG A   1      -4.761   5.035 121.257  0.00  0.00    +0.050 A 
ATOM     21  C   LIG A   1      -5.637   4.972 120.200  0.00  0.00    +0.166 A 
ATOM     22  O   LIG A   1      -5.565   5.711 119.062  0.00  0.00    -0.453 OA
ATOM     23  C   LIG A   1      -6.722   5.226 118.349  0.00  0.00    +0.466 C 
ATOM     24  O   LIG A   1      -7.459   4.218 119.073  0.00  0.00    -0.453 OA
ATOM     25  C   LIG A   1      -6.716   4.122 120.209  0.00  0.00    +0.167 A 
ATOM     26  C   LIG A   1      -6.975   3.282 121.274  0.00  0.00    +0.061 A 
ENDBRANCH   6  18
BRANCH   9  27
ATOM     27  O   LIG A   1      -8.610  -3.104 124.504  0.00  0.00    -0.494 OA
ATOM     28  C   LIG A   1      -9.404  -3.211 123.330  0.00  0.00    +0.277 C 
ENDBRANCH   9  27
TORSDOF 2
ENDMDL
MODEL 3
REMARK VINA RESULT:      -8.5      8.110      9.400
REMARK  Name = NuBBE_1589
REMARK  5 active torsions:
REMARK  status: ('A' for Active; 'I' for Inactive)
REMARK    1  A    between atoms: C_6  and  C_7
REMARK    2  A    between atoms: C_18  and  O_19
REMARK    3  A    between atoms: O_19  and  C_20
REMARK    4  A    between atoms: C_24  and  C_25
REMARK    5  A    between atoms: C_24  and  C_26
REMARK                            x       y       z     vdW  Elec       q    Type
REMARK                         _______ _______ _______ _____ _____    ______ ____
ROOT
ATOM      1  O   LIG A   1      -6.828  -1.644 125.277  0.00  0.00    -0.287 OA
ATOM      2  C   LIG A   1      -7.140  -0.463 125.324  0.00  0.00    +0.197 A 
ATOM      3  C   LIG A   1      -7.542   0.258 126.554  0.00  0.00    +0.106 A 
ATOM      4  C   LIG A   1      -7.916   1.595 126.425  0.00  0.00    +0.146 A 
ATOM      5  O   LIG A   1      -7.916   2.271 125.228  0.00  0.00    -0.454 OA
ATOM      6  C   LIG A   1      -7.497   1.607 124.087  0.00  0.00    +0.139 A 
ATOM      7  C   LIG A   1      -7.129   0.319 124.076  0.00  0.00    +0.098 A 
ATOM      8  C   LIG A   1      -8.316   2.334 127.542  0.00  0.00    +0.093 A 
ATOM      9  C   LIG A   1      -8.341   1.742 128.807  0.00  0.00    +0.134 A 
ATOM     10  C   LIG A   1      -7.958   0.390 128.948  0.00  0.00    +0.059 A 
ATOM     11  C   LIG A   1      -7.562  -0.350 127.820  0.00  0.00    +0.147 A 
ATOM     12  O   LIG A   1      -7.153  -1.650 127.906  0.00  0.00    -0.481 OA
ATOM     13  C   LIG A   1      -7.347  -2.399 129.116  0.00  0.00    +0.123 C 
ATOM     14  C   LIG A   1      -8.484  -3.394 128.857  0.00  0.00    +0.060 C 
ATOM     15  C   LIG A   1      -6.038  -3.161 129.351  0.00  0.00    +0.060 C 
ATOM     16  C   LIG A   1      -7.665  -1.563 130.329  0.00  0.00    +0.020 C 
ATOM     17  C   LIG A   1      -7.946  -0.260 130.258  0.00  0.00    +0.015 C 
ENDROOT
BRANCH   6  18
ATOM     18  C   LIG A   1      -7.510   2.430 122.854  0.00  0.00    +0.021 A 
ATOM     19  C   LIG A   1      -8.724   2.755 122.197  0.00  0.00    +0.015 A 
ATOM     20  C   LIG A   1      -8.740   3.529 121.030  0.00  0.00    +0.050 A 
ATOM     21  C   LIG A   1      -7.534   3.958 120.530  0.00  0.00    +0.166 A 
ATOM     22  O   LIG A   1      -7.358   4.709 119.411  0.00  0.00    -0.453 OA
ATOM     23  C   LIG A   1      -5.921   4.837 119.393  0.00  0.00    +0.466 C 
ATOM     24  O   LIG A   1      -5.273   4.160 120.490  0.00  0.00    -0.453 OA
ATOM     25  C   LIG A   1      -6.347   3.644 121.145  0.00  0.00    +0.167 A 
ATOM     26  C   LIG A   1      -6.301   2.886 122.299  0.00  0.00    +0.061 A 
ENDBRANCH   6  18
BRANCH   9  27
ATOM     27  O   LIG A   1      -8.719   2.395 129.954  0.00  0.00    -0.494 OA
ATOM     28  C   LIG A   1      -7.824   3.354 130.502  0.00  0.00    +0.277 C 
ENDBRANCH   9  27
TORSDOF 2
ENDMDL
MODEL 4
REMARK VINA RESULT:      -8.4      7.164      8.306
REMARK  Name = NuBBE_1589
REMARK  5 active torsions:
REMARK  status: ('A' for Active; 'I' for Inactive)
REMARK    1  A    between atoms: C_6  and  C_7
REMARK    2  A    between atoms: C_18  and  O_19
REMARK    3  A    between atoms: O_19  and  C_20
REMARK    4  A    between atoms: C_24  and  C_25
REMARK    5  A    between atoms: C_24  and  C_26
REMARK                            x       y       z     vdW  Elec       q    Type
REMARK                         _______ _______ _______ _____ _____    ______ ____
ROOT
ATOM      1  O   LIG A   1      -7.366   0.348 126.182  0.00  0.00    -0.287 OA
ATOM      2  C   LIG A   1      -6.754   1.307 125.734  0.00  0.00    +0.197 A 
ATOM      3  C   LIG A   1      -5.739   2.086 126.480  0.00  0.00    +0.106 A 
ATOM      4  C   LIG A   1      -5.168   3.184 125.836  0.00  0.00    +0.146 A 
ATOM      5  O   LIG A   1      -5.490   3.564 124.554  0.00  0.00    -0.454 OA
ATOM      6  C   LIG A   1      -6.407   2.806 123.844  0.00  0.00    +0.139 A 
ATOM      7  C   LIG A   1      -7.036   1.740 124.355  0.00  0.00    +0.098 A 
ATOM      8  C   LIG A   1      -4.212   3.972 126.482  0.00  0.00    +0.093 A 
ATOM      9  C   LIG A   1      -3.808   3.664 127.784  0.00  0.00    +0.134 A 
ATOM     10  C   LIG A   1      -4.376   2.549 128.441  0.00  0.00    +0.059 A 
ATOM     11  C   LIG A   1      -5.343   1.765 127.787  0.00  0.00    +0.147 A 
ATOM     12  O   LIG A   1      -5.899   0.660 128.366  0.00  0.00    -0.481 OA
ATOM     13  C   LIG A   1      -5.708   0.392 129.765  0.00  0.00    +0.123 C 
ATOM     14  C   LIG A   1      -7.033   0.701 130.471  0.00  0.00    +0.060 C 
ATOM     15  C   LIG A   1      -5.406  -1.107 129.865  0.00  0.00    +0.060 C 
ATOM     16  C   LIG A   1      -4.592   1.174 130.408  0.00  0.00    +0.020 C 
ATOM     17  C   LIG A   1      -3.962   2.178 129.794  0.00  0.00    +0.015 C 
ENDROOT
BRANCH   6  18
ATOM     18  C   LIG A   1      -6.665   3.284 122.465  0.00  0.00    +0.021 A 
ATOM     19  C   LIG A   1      -5.615   3.758 121.639  0.00  0.00    +0.015 A 
ATOM     20  C   LIG A   1      -5.856   4.214 120.336  0.00  0.00    +0.050 A 
ATOM     21  C   LIG A   1      -7.154   4.199 119.884  0.00  0.00    +0.166 A 
ATOM     22  O   LIG A   1      -7.573   4.607 118.657  0.00  0.00    -0.453 OA
ATOM     23  C   LIG A   1      -8.991   4.366 118.761  0.00  0.00    +0.466 C 
ATOM     24  O   LIG A   1      -9.388   3.827 120.040  0.00  0.00    -0.453 OA
ATOM     25  C   LIG A   1      -8.186   3.756 120.673  0.00  0.00    +0.167 A 
ATOM     26  C   LIG A   1      -7.977   3.297 121.959  0.00  0.00    +0.061 A 
ENDBRANCH   6  18
BRANCH   9  27
ATOM     27  O   LIG A   1      -2.875   4.382 128.490  0.00  0.00    -0.494 OA
ATOM     28  C   LIG A   1      -2.515   5.668 128.004  0.00  0.00    +0.277 C 
ENDBRANCH   9  27
TORSDOF 2
ENDMDL
MODEL 5
REMARK VINA RESULT:      -8.3      7.262      9.422
REMARK  Name = NuBBE_1589
REMARK  5 active torsions:
REMARK  status: ('A' for Active; 'I' for Inactive)
REMARK    1  A    between atoms: C_6  and  C_7
REMARK    2  A    between atoms: C_18  and  O_19
REMARK    3  A    between atoms: O_19  and  C_20
REMARK    4  A    between atoms: C_24  and  C_25
REMARK    5  A    between atoms: C_24  and  C_26
REMARK                            x       y       z     vdW  Elec       q    Type
REMARK                         _______ _______ _______ _____ _____    ______ ____
ROOT
ATOM      1  O   LIG A   1      -7.240  -1.538 128.150  0.00  0.00    -0.287 OA
ATOM      2  C   LIG A   1      -7.740  -0.443 127.936  0.00  0.00    +0.197 A 
ATOM      3  C   LIG A   1      -8.213   0.027 126.614  0.00  0.00    +0.106 A 
ATOM      4  C   LIG A   1      -8.715   1.326 126.533  0.00  0.00    +0.146 A 
ATOM      5  O   LIG A   1      -8.801   2.175 127.612  0.00  0.00    -0.454 OA
ATOM      6  C   LIG A   1      -8.399   1.716 128.855  0.00  0.00    +0.139 A 
ATOM      7  C   LIG A   1      -7.886   0.496 129.061  0.00  0.00    +0.098 A 
ATOM      8  C   LIG A   1      -9.169   1.841 125.316  0.00  0.00    +0.093 A 
ATOM      9  C   LIG A   1      -9.134   1.055 124.161  0.00  0.00    +0.134 A 
ATOM     10  C   LIG A   1      -8.634  -0.264 124.235  0.00  0.00    +0.059 A 
ATOM     11  C   LIG A   1      -8.172  -0.773 125.462  0.00  0.00    +0.147 A 
ATOM     12  O   LIG A   1      -7.709  -2.052 125.593  0.00  0.00    -0.481 OA
ATOM     13  C   LIG A   1      -7.436  -2.854 124.433  0.00  0.00    +0.123 C 
ATOM     14  C   LIG A   1      -5.913  -2.946 124.292  0.00  0.00    +0.060 C 
ATOM     15  C   LIG A   1      -8.011  -4.241 124.741  0.00  0.00    +0.060 C 
ATOM     16  C   LIG A   1      -8.037  -2.334 123.154  0.00  0.00    +0.020 C 
ATOM     17  C   LIG A   1      -8.603  -1.128 123.055  0.00  0.00    +0.015 C 
ENDROOT
BRANCH   6  18
ATOM     18  C   LIG A   1      -8.555   2.697 129.955  0.00  0.00    +0.021 A 
ATOM     19  C   LIG A   1      -7.619   2.772 131.017  0.00  0.00    +0.015 A 
ATOM     20  C   LIG A   1      -7.765   3.695 132.060  0.00  0.00    +0.050 A 
ATOM     21  C   LIG A   1      -8.860   4.527 132.029  0.00  0.00    +0.166 A 
ATOM     22  O   LIG A   1      -9.165   5.474 132.954  0.00  0.00    -0.453 OA
ATOM     23  C   LIG A   1     -10.389   6.004 132.405  0.00  0.00    +0.466 C 
ATOM     24  O   LIG A   1     -10.790   5.364 131.175  0.00  0.00    -0.453 OA
ATOM     25  C   LIG A   1      -9.784   4.462 131.016  0.00  0.00    +0.167 A 
ATOM     26  C   LIG A   1      -9.663   3.564 129.973  0.00  0.00    +0.061 A 
ENDBRANCH   6  18
BRANCH   9  27
ATOM     27  O   LIG A   1      -9.561   1.480 122.928  0.00  0.00    -0.494 OA
ATOM     28  C   LIG A   1      -8.922   2.613 122.354  0.00  0.00    +0.277 C 
ENDBRANCH   9  27
TORSDOF 2
ENDMDL
MODEL 6
REMARK VINA RESULT:      -8.1      7.506     10.219
REMARK  Name = NuBBE_1589
REMARK  5 active torsions:
REMARK  status: ('A' for Active; 'I' for Inactive)
REMARK    1  A    between atoms: C_6  and  C_7
REMARK    2  A    between atoms: C_18  and  O_19
REMARK    3  A    between atoms: O_19  and  C_20
REMARK    4  A    between atoms: C_24  and  C_25
REMARK    5  A    between atoms: C_24  and  C_26
REMARK                            x       y       z     vdW  Elec       q    Type
REMARK                         _______ _______ _______ _____ _____    ______ ____
ROOT
ATOM      1  O   LIG A   1      -6.392  -0.214 124.897  0.00  0.00    -0.287 OA
ATOM      2  C   LIG A   1      -6.135   0.191 126.022  0.00  0.00    +0.197 A 
ATOM      3  C   LIG A   1      -6.578  -0.460 127.277  0.00  0.00    +0.106 A 
ATOM      4  C   LIG A   1      -6.239   0.160 128.479  0.00  0.00    +0.146 A 
ATOM      5  O   LIG A   1      -5.512   1.324 128.554  0.00  0.00    -0.454 OA
ATOM      6  C   LIG A   1      -5.061   1.905 127.380  0.00  0.00    +0.139 A 
ATOM      7  C   LIG A   1      -5.333   1.417 126.163  0.00  0.00    +0.098 A 
ATOM      8  C   LIG A   1      -6.632  -0.392 129.702  0.00  0.00    +0.093 A 
ATOM      9  C   LIG A   1      -7.367  -1.579 129.735  0.00  0.00    +0.134 A 
ATOM     10  C   LIG A   1      -7.709  -2.218 128.522  0.00  0.00    +0.059 A 
ATOM     11  C   LIG A   1      -7.316  -1.654 127.296  0.00  0.00    +0.147 A 
ATOM     12  O   LIG A   1      -7.594  -2.248 126.097  0.00  0.00    -0.481 OA
ATOM     13  C   LIG A   1      -8.518  -3.345 126.021  0.00  0.00    +0.123 C 
ATOM     14  C   LIG A   1      -9.806  -2.810 125.383  0.00  0.00    +0.060 C 
ATOM     15  C   LIG A   1      -7.870  -4.374 125.090  0.00  0.00    +0.060 C 
ATOM     16  C   LIG A   1      -8.835  -3.993 127.344  0.00  0.00    +0.020 C 
ATOM     17  C   LIG A   1      -8.455  -3.476 128.515  0.00  0.00    +0.015 C 
ENDROOT
BRANCH   6  18
ATOM     18  C   LIG A   1      -4.265   3.142 127.570  0.00  0.00    +0.021 A 
ATOM     19  C   LIG A   1      -2.885   3.189 127.248  0.00  0.00    +0.015 A 
ATOM     20  C   LIG A   1      -2.129   4.354 127.429  0.00  0.00    +0.050 A 
ATOM     21  C   LIG A   1      -2.768   5.457 127.944  0.00  0.00    +0.166 A 
ATOM     22  O   LIG A   1      -2.196   6.664 128.192  0.00  0.00    -0.453 OA
ATOM     23  C   LIG A   1      -3.324   7.397 128.713  0.00  0.00    +0.466 C 
ATOM     24  O   LIG A   1      -4.537   6.617 128.769  0.00  0.00    -0.453 OA
ATOM     25  C   LIG A   1      -4.101   5.428 128.274  0.00  0.00    +0.167 A 
ATOM     26  C   LIG A   1      -4.871   4.294 128.102  0.00  0.00    +0.061 A 
ENDBRANCH   6  18
BRANCH   9  27
ATOM     27  O   LIG A   1      -7.791  -2.189 130.890  0.00  0.00    -0.494 OA
ATOM     28  C   LIG A   1      -6.803  -2.666 131.794  0.00  0.00    +0.277 C 
ENDBRANCH   9  27
TORSDOF 2
ENDMDL
MODEL 7
REMARK VINA RESULT:      -8.1      6.275      7.349
REMARK  Name = NuBBE_1589
REMARK  5 active torsions:
REMARK  status: ('A' for Active; 'I' for Inactive)
REMARK    1  A    between atoms: C_6  and  C_7
REMARK    2  A    between atoms: C_18  and  O_19
REMARK    3  A    between atoms: O_19  and  C_20
REMARK    4  A    between atoms: C_24  and  C_25
REMARK    5  A    between atoms: C_24  and  C_26
REMARK                            x       y       z     vdW  Elec       q    Type
REMARK                         _______ _______ _______ _____ _____    ______ ____
ROOT
ATOM      1  O   LIG A   1      -9.512   3.034 129.467  0.00  0.00    -0.287 OA
ATOM      2  C   LIG A   1      -8.499   2.723 128.857  0.00  0.00    +0.197 A 
ATOM      3  C   LIG A   1      -7.208   3.446 128.936  0.00  0.00    +0.106 A 
ATOM      4  C   LIG A   1      -6.162   2.987 128.136  0.00  0.00    +0.146 A 
ATOM      5  O   LIG A   1      -6.267   1.902 127.298  0.00  0.00    -0.454 OA
ATOM      6  C   LIG A   1      -7.461   1.201 127.261  0.00  0.00    +0.139 A 
ATOM      7  C   LIG A   1      -8.544   1.550 127.968  0.00  0.00    +0.098 A 
ATOM      8  C   LIG A   1      -4.920   3.627 128.151  0.00  0.00    +0.093 A 
ATOM      9  C   LIG A   1      -4.707   4.734 128.976  0.00  0.00    +0.134 A 
ATOM     10  C   LIG A   1      -5.759   5.202 129.795  0.00  0.00    +0.059 A 
ATOM     11  C   LIG A   1      -7.008   4.557 129.770  0.00  0.00    +0.147 A 
ATOM     12  O   LIG A   1      -8.048   4.950 130.565  0.00  0.00    -0.481 OA
ATOM     13  C   LIG A   1      -7.993   6.195 131.279  0.00  0.00    +0.123 C 
ATOM     14  C   LIG A   1      -8.942   7.168 130.569  0.00  0.00    +0.060 C 
ATOM     15  C   LIG A   1      -8.519   5.894 132.686  0.00  0.00    +0.060 C 
ATOM     16  C   LIG A   1      -6.618   6.803 131.377  0.00  0.00    +0.020 C 
ATOM     17  C   LIG A   1      -5.570   6.342 130.691  0.00  0.00    +0.015 C 
ENDROOT
BRANCH   6  18
ATOM     18  C   LIG A   1      -7.464   0.034 126.347  0.00  0.00    +0.021 A 
ATOM     19  C   LIG A   1      -6.276  -0.408 125.712  0.00  0.00    +0.015 A 
ATOM     20  C   LIG A   1      -6.274  -1.508 124.844  0.00  0.00    +0.050 A 
ATOM     21  C   LIG A   1      -7.472  -2.144 124.616  0.00  0.00    +0.166 A 
ATOM     22  O   LIG A   1      -7.660  -3.217 123.804  0.00  0.00    -0.453 OA
ATOM     23  C   LIG A   1      -9.079  -3.429 123.960  0.00  0.00    +0.466 C 
ATOM     24  O   LIG A   1      -9.705  -2.482 124.851  0.00  0.00    -0.453 OA
ATOM     25  C   LIG A   1      -8.635  -1.723 125.212  0.00  0.00    +0.167 A 
ATOM     26  C   LIG A   1      -8.665  -0.644 126.074  0.00  0.00    +0.061 A 
ENDBRANCH   6  18
BRANCH   9  27
ATOM     27  O   LIG A   1      -3.520   5.419 129.053  0.00  0.00    -0.494 OA
ATOM     28  C   LIG A   1      -2.534   5.161 128.061  0.00  0.00    +0.277 C 
ENDBRANCH   9  27
TORSDOF 2
ENDMDL
MODEL 8
REMARK VINA RESULT:      -8.1      6.640      7.981
REMARK  Name = NuBBE_1589
REMARK  5 active torsions:
REMARK  status: ('A' for Active; 'I' for Inactive)
REMARK    1  A    between atoms: C_6  and  C_7
REMARK    2  A    between atoms: C_18  and  O_19
REMARK    3  A    between atoms: O_19  and  C_20
REMARK    4  A    between atoms: C_24  and  C_25
REMARK    5  A    between atoms: C_24  and  C_26
REMARK                            x       y       z     vdW  Elec       q    Type
REMARK                         _______ _______ _______ _____ _____    ______ ____
ROOT
ATOM      1  O   LIG A   1      -9.012   3.699 128.727  0.00  0.00    -0.287 OA
ATOM      2  C   LIG A   1      -8.577   2.585 128.983  0.00  0.00    +0.197 A 
ATOM      3  C   LIG A   1      -8.138   2.137 130.326  0.00  0.00    +0.106 A 
ATOM      4  C   LIG A   1      -7.620   0.848 130.437  0.00  0.00    +0.146 A 
ATOM      5  O   LIG A   1      -7.510  -0.021 129.377  0.00  0.00    -0.454 OA
ATOM      6  C   LIG A   1      -7.963   0.386 128.133  0.00  0.00    +0.139 A 
ATOM      7  C   LIG A   1      -8.466   1.603 127.892  0.00  0.00    +0.098 A 
ATOM      8  C   LIG A   1      -7.177   0.361 131.670  0.00  0.00    +0.093 A 
ATOM      9  C   LIG A   1      -7.254   1.162 132.813  0.00  0.00    +0.134 A 
ATOM     10  C   LIG A   1      -7.784   2.468 132.710  0.00  0.00    +0.059 A 
ATOM     11  C   LIG A   1      -8.222   2.953 131.465  0.00  0.00    +0.147 A 
ATOM     12  O   LIG A   1      -8.771   4.195 131.318  0.00  0.00    -0.481 OA
ATOM     13  C   LIG A   1      -8.696   5.159 132.381  0.00  0.00    +0.123 C 
ATOM     14  C   LIG A   1      -7.664   6.213 131.964  0.00  0.00    +0.060 C 
ATOM     15  C   LIG A   1     -10.085   5.800 132.463  0.00  0.00    +0.060 C 
ATOM     16  C   LIG A   1      -8.327   4.585 133.724  0.00  0.00    +0.020 C 
ATOM     17  C   LIG A   1      -7.906   3.329 133.886  0.00  0.00    +0.015 C 
ENDROOT
BRANCH   6  18
ATOM     18  C   LIG A   1      -7.824  -0.631 127.063  0.00  0.00    +0.021 A 
ATOM     19  C   LIG A   1      -6.623  -1.367 126.896  0.00  0.00    +0.015 A 
ATOM     20  C   LIG A   1      -6.486  -2.326 125.885  0.00  0.00    +0.050 A 
ATOM     21  C   LIG A   1      -7.556  -2.526 125.044  0.00  0.00    +0.166 A 
ATOM     22  O   LIG A   1      -7.600  -3.406 124.009  0.00  0.00    -0.453 OA
ATOM     23  C   LIG A   1      -8.934  -3.171 123.511  0.00  0.00    +0.466 C 
ATOM     24  O   LIG A   1      -9.651  -2.160 124.250  0.00  0.00    -0.453 OA
ATOM     25  C   LIG A   1      -8.722  -1.815 125.182  0.00  0.00    +0.167 A 
ATOM     26  C   LIG A   1      -8.886  -0.867 126.173  0.00  0.00    +0.061 A 
ENDBRANCH   6  18
BRANCH   9  27
ATOM     27  O   LIG A   1      -6.844   0.764 134.061  0.00  0.00    -0.494 OA
ATOM     28  C   LIG A   1      -6.039  -0.404 134.157  0.00  0.00    +0.277 C 
ENDBRANCH   9  27
TORSDOF 2
ENDMDL
MODEL 9
REMARK VINA RESULT:      -7.9      8.977     11.607
REMARK  Name = NuBBE_1589
REMARK  5 active torsions:
REMARK  status: ('A' for Active; 'I' for Inactive)
REMARK    1  A    between atoms: C_6  and  C_7
REMARK    2  A    between atoms: C_18  and  O_19
REMARK    3  A    between atoms: O_19  and  C_20
REMARK    4  A    between atoms: C_24  and  C_25
REMARK    5  A    between atoms: C_24  and  C_26
REMARK                            x       y       z     vdW  Elec       q    Type
REMARK                         _______ _______ _______ _____ _____    ______ ____
ROOT
ATOM      1  O   LIG A   1      -8.388   0.809 128.342  0.00  0.00    -0.287 OA
ATOM      2  C   LIG A   1      -7.723  -0.209 128.218  0.00  0.00    +0.197 A 
ATOM      3  C   LIG A   1      -7.163  -0.703 126.938  0.00  0.00    +0.106 A 
ATOM      4  C   LIG A   1      -6.468  -1.911 126.963  0.00  0.00    +0.146 A 
ATOM      5  O   LIG A   1      -6.268  -2.649 128.106  0.00  0.00    -0.454 OA
ATOM      6  C   LIG A   1      -6.754  -2.161 129.308  0.00  0.00    +0.139 A 
ATOM      7  C   LIG A   1      -7.451  -1.023 129.414  0.00  0.00    +0.098 A 
ATOM      8  C   LIG A   1      -5.921  -2.444 125.792  0.00  0.00    +0.093 A 
ATOM      9  C   LIG A   1      -6.060  -1.766 124.578  0.00  0.00    +0.134 A 
ATOM     10  C   LIG A   1      -6.758  -0.538 124.545  0.00  0.00    +0.059 A 
ATOM     11  C   LIG A   1      -7.311  -0.012 125.726  0.00  0.00    +0.147 A 
ATOM     12  O   LIG A   1      -7.967   1.186 125.753  0.00  0.00    -0.481 OA
ATOM     13  C   LIG A   1      -8.342   1.843 124.532  0.00  0.00    +0.123 C 
ATOM     14  C   LIG A   1      -9.860   1.687 124.381  0.00  0.00    +0.060 C 
ATOM     15  C   LIG A   1      -7.992   3.322 124.729  0.00  0.00    +0.060 C 
ATOM     16  C   LIG A   1      -7.650   1.322 123.300  0.00  0.00    +0.020 C 
ATOM     17  C   LIG A   1      -6.904   0.215 123.299  0.00  0.00    +0.015 C 
ENDROOT
BRANCH   6  18
ATOM     18  C   LIG A   1      -6.464  -3.017 130.483  0.00  0.00    +0.021 A 
ATOM     19  C   LIG A   1      -5.601  -4.137 130.386  0.00  0.00    +0.015 A 
ATOM     20  C   LIG A   1      -5.328  -4.951 131.493  0.00  0.00    +0.050 A 
ATOM     21  C   LIG A   1      -5.937  -4.635 132.684  0.00  0.00    +0.166 A 
ATOM     22  O   LIG A   1      -5.794  -5.311 133.854  0.00  0.00    -0.453 OA
ATOM     23  C   LIG A   1      -6.650  -4.537 134.720  0.00  0.00    +0.466 C 
ATOM     24  O   LIG A   1      -7.284  -3.425 134.054  0.00  0.00    -0.453 OA
ATOM     25  C   LIG A   1      -6.786  -3.561 132.796  0.00  0.00    +0.167 A 
ATOM     26  C   LIG A   1      -7.069  -2.740 131.722  0.00  0.00    +0.061 A 
ENDBRANCH   6  18
BRANCH   9  27
ATOM     27  O   LIG A   1      -5.554  -2.216 123.384  0.00  0.00    -0.494 OA
ATOM     28  C   LIG A   1      -4.692  -3.346 123.407  0.00  0.00    +0.277 C 
ENDBRANCH   9  27
TORSDOF 2
ENDMDL
