MODEL 1
REMARK VINA RESULT:      -8.0      0.000      0.000
REMARK  Name = NuBBE_1550
REMARK  10 active torsions:
REMARK  status: ('A' for Active; 'I' for Inactive)
REMARK    1  A    between atoms: C_5  and  C_6
REMARK    2  A    between atoms: C_9  and  O_11
REMARK    3  A    between atoms: C_12  and  C_13
REMARK    4  A    between atoms: C_17  and  C_18
REMARK    5  A    between atoms: C_22  and  C_24
REMARK    6  A    between atoms: C_24  and  C_25
REMARK    7  A    between atoms: C_25  and  C_26
REMARK    8  A    between atoms: C_26  and  O_27
REMARK    9  A    between atoms: C_30  and  C_31
REMARK   10  A    between atoms: C_30  and  C_32
REMARK                            x       y       z     vdW  Elec       q    Type
REMARK                         _______ _______ _______ _____ _____    ______ ____
ROOT
ATOM      1  O   LIG A   1      -5.584  -4.707 130.375  0.00  0.00    -0.292 OA
ATOM      2  C   LIG A   1      -5.776  -3.621 129.827  0.00  0.00    +0.162 C 
ATOM      3  C   LIG A   1      -4.713  -3.101 128.936  0.00  0.00    +0.043 C 
ATOM      4  C   LIG A   1      -4.920  -2.071 128.106  0.00  0.00    -0.016 C 
ATOM      5  C   LIG A   1      -6.241  -1.314 127.986  0.00  0.00    -0.006 C 
ATOM      6  C   LIG A   1      -7.031  -2.040 126.878  0.00  0.00    +0.016 C 
ATOM      7  C   LIG A   1      -6.913  -1.380 129.405  0.00  0.00    +0.014 C 
ATOM      8  C   LIG A   1      -8.196  -0.525 129.461  0.00  0.00    +0.037 C 
ATOM      9  C   LIG A   1      -7.887   0.950 129.185  0.00  0.00    +0.122 C 
ATOM     10  C   LIG A   1      -7.185   1.195 127.810  0.00  0.00    +0.007 C 
ATOM     11  C   LIG A   1      -8.272   1.003 126.717  0.00  0.00    +0.014 C 
ATOM     12  C   LIG A   1      -5.969   0.213 127.643  0.00  0.00    +0.008 C 
ATOM     13  C   LIG A   1      -5.300   0.473 126.273  0.00  0.00    +0.005 C 
ATOM     14  C   LIG A   1      -4.665   1.861 126.229  0.00  0.00    +0.008 C 
ATOM     15  C   LIG A   1      -5.556   3.039 126.685  0.00  0.00    -0.018 C 
ATOM     16  C   LIG A   1      -4.594   4.115 127.268  0.00  0.00    +0.012 C 
ATOM     17  C   LIG A   1      -6.597   2.658 127.787  0.00  0.00    +0.070 C 
ATOM     18  C   LIG A   1      -7.669   3.705 127.570  0.00  0.00    +0.138 C 
ATOM     19  C   LIG A   1      -7.526   4.435 126.267  0.00  0.00    +0.079 C 
ATOM     20  C   LIG A   1      -6.421   3.651 125.536  0.00  0.00    +0.010 C 
ATOM     21  O   LIG A   1      -8.575   3.938 128.373  0.00  0.00    -0.297 OA
ATOM     22  C   LIG A   1      -7.063  -2.809 130.029  0.00  0.00    +0.031 C 
ATOM     23  C   LIG A   1      -7.250  -2.681 131.564  0.00  0.00    +0.019 C 
ATOM     24  C   LIG A   1      -8.246  -3.624 129.488  0.00  0.00    +0.019 C 
ENDROOT
BRANCH   9  25
ATOM     25  O   LIG A   1      -7.054   1.410 130.253  0.00  0.00    -0.391 OA
ATOM     26  H   LIG A   1      -7.082   0.730 130.949  0.00  0.00    +0.210 HD
ENDBRANCH   9  25
BRANCH  20  27
ATOM     27  C   LIG A   1      -5.669   4.535 124.520  0.00  0.00    +0.081 C 
BRANCH  27  28
ATOM     28  C   LIG A   1      -5.890   4.126 123.069  0.00  0.00    +0.159 C 
ATOM     29  O   LIG A   1      -5.260   4.620 122.132  0.00  0.00    -0.295 OA
BRANCH  28  30
ATOM     30  C   LIG A   1      -6.988   3.094 122.818  0.00  0.00    +0.229 C 
BRANCH  30  31
ATOM     31  O   LIG A   1      -8.268   3.679 122.644  0.00  0.00    -0.388 OA
ATOM     32  H   LIG A   1      -8.135   4.494 122.123  0.00  0.00    +0.210 HD
ENDBRANCH  30  31
ENDBRANCH  28  30
ENDBRANCH  27  28
ENDBRANCH  20  27
TORSDOF 5
ENDMDL
MODEL 2
REMARK VINA RESULT:      -8.0      3.082      6.208
REMARK  Name = NuBBE_1550
REMARK  10 active torsions:
REMARK  status: ('A' for Active; 'I' for Inactive)
REMARK    1  A    between atoms: C_5  and  C_6
REMARK    2  A    between atoms: C_9  and  O_11
REMARK    3  A    between atoms: C_12  and  C_13
REMARK    4  A    between atoms: C_17  and  C_18
REMARK    5  A    between atoms: C_22  and  C_24
REMARK    6  A    between atoms: C_24  and  C_25
REMARK    7  A    between atoms: C_25  and  C_26
REMARK    8  A    between atoms: C_26  and  O_27
REMARK    9  A    between atoms: C_30  and  C_31
REMARK   10  A    between atoms: C_30  and  C_32
REMARK                            x       y       z     vdW  Elec       q    Type
REMARK                         _______ _______ _______ _____ _____    ______ ____
ROOT
ATOM      1  O   LIG A   1      -8.311  -4.189 124.614  0.00  0.00    -0.292 OA
ATOM      2  C   LIG A   1      -8.198  -3.310 125.470  0.00  0.00    +0.162 C 
ATOM      3  C   LIG A   1      -8.583  -3.648 126.860  0.00  0.00    +0.043 C 
ATOM      4  C   LIG A   1      -8.267  -2.863 127.898  0.00  0.00    -0.016 C 
ATOM      5  C   LIG A   1      -7.500  -1.548 127.779  0.00  0.00    -0.006 C 
ATOM      6  C   LIG A   1      -6.012  -1.924 127.934  0.00  0.00    +0.016 C 
ATOM      7  C   LIG A   1      -7.871  -0.950 126.373  0.00  0.00    +0.014 C 
ATOM      8  C   LIG A   1      -7.272   0.459 126.185  0.00  0.00    +0.037 C 
ATOM      9  C   LIG A   1      -7.813   1.433 127.236  0.00  0.00    +0.122 C 
ATOM     10  C   LIG A   1      -7.551   0.973 128.707  0.00  0.00    +0.007 C 
ATOM     11  C   LIG A   1      -6.038   1.197 128.978  0.00  0.00    +0.014 C 
ATOM     12  C   LIG A   1      -7.991  -0.525 128.891  0.00  0.00    +0.008 C 
ATOM     13  C   LIG A   1      -7.713  -0.953 130.351  0.00  0.00    +0.005 C 
ATOM     14  C   LIG A   1      -8.600  -0.183 131.325  0.00  0.00    +0.008 C 
ATOM     15  C   LIG A   1      -8.636   1.354 131.156  0.00  0.00    -0.018 C 
ATOM     16  C   LIG A   1     -10.040   1.816 131.645  0.00  0.00    +0.012 C 
ATOM     17  C   LIG A   1      -8.443   1.834 129.681  0.00  0.00    +0.070 C 
ATOM     18  C   LIG A   1      -7.891   3.229 129.884  0.00  0.00    +0.138 C 
ATOM     19  C   LIG A   1      -7.434   3.485 131.290  0.00  0.00    +0.079 C 
ATOM     20  C   LIG A   1      -7.514   2.097 131.951  0.00  0.00    +0.010 C 
ATOM     21  O   LIG A   1      -7.815   4.075 128.991  0.00  0.00    -0.297 OA
ATOM     22  C   LIG A   1      -7.673  -1.904 125.147  0.00  0.00    +0.031 C 
ATOM     23  C   LIG A   1      -8.525  -1.393 123.956  0.00  0.00    +0.019 C 
ATOM     24  C   LIG A   1      -6.223  -2.025 124.656  0.00  0.00    +0.019 C 
ENDROOT
BRANCH   9  25
ATOM     25  O   LIG A   1      -9.219   1.561 127.004  0.00  0.00    -0.391 OA
ATOM     26  H   LIG A   1      -9.341   2.324 126.411  0.00  0.00    +0.210 HD
ENDBRANCH   9  25
BRANCH  20  27
ATOM     27  C   LIG A   1      -7.720   2.201 133.476  0.00  0.00    +0.081 C 
BRANCH  27  28
ATOM     28  C   LIG A   1      -7.231   3.515 134.073  0.00  0.00    +0.159 C 
ATOM     29  O   LIG A   1      -6.037   3.804 134.166  0.00  0.00    -0.295 OA
BRANCH  28  30
ATOM     30  C   LIG A   1      -8.309   4.455 134.610  0.00  0.00    +0.229 C 
BRANCH  30  31
ATOM     31  O   LIG A   1      -9.616   4.084 134.208  0.00  0.00    -0.388 OA
ATOM     32  H   LIG A   1      -9.627   3.109 134.150  0.00  0.00    +0.210 HD
ENDBRANCH  30  31
ENDBRANCH  28  30
ENDBRANCH  27  28
ENDBRANCH  20  27
TORSDOF 5
ENDMDL
MODEL 3
REMARK VINA RESULT:      -8.0      2.897      5.945
REMARK  Name = NuBBE_1550
REMARK  10 active torsions:
REMARK  status: ('A' for Active; 'I' for Inactive)
REMARK    1  A    between atoms: C_5  and  C_6
REMARK    2  A    between atoms: C_9  and  O_11
REMARK    3  A    between atoms: C_12  and  C_13
REMARK    4  A    between atoms: C_17  and  C_18
REMARK    5  A    between atoms: C_22  and  C_24
REMARK    6  A    between atoms: C_24  and  C_25
REMARK    7  A    between atoms: C_25  and  C_26
REMARK    8  A    between atoms: C_26  and  O_27
REMARK    9  A    between atoms: C_30  and  C_31
REMARK   10  A    between atoms: C_30  and  C_32
REMARK                            x       y       z     vdW  Elec       q    Type
REMARK                         _______ _______ _______ _____ _____    ______ ____
ROOT
ATOM      1  O   LIG A   1      -9.656  -3.626 123.292  0.00  0.00    -0.292 OA
ATOM      2  C   LIG A   1      -9.260  -2.737 124.047  0.00  0.00    +0.162 C 
ATOM      3  C   LIG A   1      -9.419  -2.949 125.505  0.00  0.00    +0.043 C 
ATOM      4  C   LIG A   1      -8.804  -2.176 126.408  0.00  0.00    -0.016 C 
ATOM      5  C   LIG A   1      -7.894  -1.000 126.058  0.00  0.00    -0.006 C 
ATOM      6  C   LIG A   1      -6.473  -1.593 125.969  0.00  0.00    +0.016 C 
ATOM      7  C   LIG A   1      -8.436  -0.417 124.702  0.00  0.00    +0.014 C 
ATOM      8  C   LIG A   1      -7.689   0.874 124.307  0.00  0.00    +0.037 C 
ATOM      9  C   LIG A   1      -7.878   1.966 125.365  0.00  0.00    +0.122 C 
ATOM     10  C   LIG A   1      -7.410   1.538 126.794  0.00  0.00    +0.007 C 
ATOM     11  C   LIG A   1      -5.857   1.539 126.771  0.00  0.00    +0.014 C 
ATOM     12  C   LIG A   1      -8.017   0.135 127.162  0.00  0.00    +0.008 C 
ATOM     13  C   LIG A   1      -7.531  -0.264 128.576  0.00  0.00    +0.005 C 
ATOM     14  C   LIG A   1      -8.100   0.676 129.635  0.00  0.00    +0.008 C 
ATOM     15  C   LIG A   1      -7.948   2.191 129.364  0.00  0.00    -0.018 C 
ATOM     16  C   LIG A   1      -9.155   2.884 130.062  0.00  0.00    +0.012 C 
ATOM     17  C   LIG A   1      -7.971   2.569 127.847  0.00  0.00    +0.070 C 
ATOM     18  C   LIG A   1      -7.198   3.871 127.846  0.00  0.00    +0.138 C 
ATOM     19  C   LIG A   1      -6.452   4.116 129.124  0.00  0.00    +0.079 C 
ATOM     20  C   LIG A   1      -6.602   2.788 129.887  0.00  0.00    +0.010 C 
ATOM     21  O   LIG A   1      -7.172   4.654 126.893  0.00  0.00    -0.297 OA
ATOM     22  C   LIG A   1      -8.611  -1.445 123.533  0.00  0.00    +0.031 C 
ATOM     23  C   LIG A   1      -9.591  -0.864 122.481  0.00  0.00    +0.019 C 
ATOM     24  C   LIG A   1      -7.312  -1.808 122.799  0.00  0.00    +0.019 C 
ENDROOT
BRANCH   9  25
ATOM     25  O   LIG A   1      -9.269   2.297 125.380  0.00  0.00    -0.391 OA
ATOM     26  H   LIG A   1      -9.333   3.263 125.271  0.00  0.00    +0.210 HD
ENDBRANCH   9  25
BRANCH  20  27
ATOM     27  C   LIG A   1      -6.500   2.991 131.413  0.00  0.00    +0.081 C 
BRANCH  27  28
ATOM     28  C   LIG A   1      -5.887   1.807 132.150  0.00  0.00    +0.159 C 
ATOM     29  O   LIG A   1      -4.749   1.394 131.923  0.00  0.00    -0.295 OA
BRANCH  28  30
ATOM     30  C   LIG A   1      -6.786   1.107 133.168  0.00  0.00    +0.229 C 
BRANCH  30  31
ATOM     31  O   LIG A   1      -8.063   1.712 133.286  0.00  0.00    -0.388 OA
ATOM     32  H   LIG A   1      -8.441   1.746 132.387  0.00  0.00    +0.210 HD
ENDBRANCH  30  31
ENDBRANCH  28  30
ENDBRANCH  27  28
ENDBRANCH  20  27
TORSDOF 5
ENDMDL
MODEL 4
REMARK VINA RESULT:      -8.0      2.137      7.682
REMARK  Name = NuBBE_1550
REMARK  10 active torsions:
REMARK  status: ('A' for Active; 'I' for Inactive)
REMARK    1  A    between atoms: C_5  and  C_6
REMARK    2  A    between atoms: C_9  and  O_11
REMARK    3  A    between atoms: C_12  and  C_13
REMARK    4  A    between atoms: C_17  and  C_18
REMARK    5  A    between atoms: C_22  and  C_24
REMARK    6  A    between atoms: C_24  and  C_25
REMARK    7  A    between atoms: C_25  and  C_26
REMARK    8  A    between atoms: C_26  and  O_27
REMARK    9  A    between atoms: C_30  and  C_31
REMARK   10  A    between atoms: C_30  and  C_32
REMARK                            x       y       z     vdW  Elec       q    Type
REMARK                         _______ _______ _______ _____ _____    ______ ____
ROOT
ATOM      1  O   LIG A   1      -5.381   4.928 122.425  0.00  0.00    -0.292 OA
ATOM      2  C   LIG A   1      -5.730   3.980 123.129  0.00  0.00    +0.162 C 
ATOM      3  C   LIG A   1      -5.241   3.942 124.527  0.00  0.00    +0.043 C 
ATOM      4  C   LIG A   1      -5.754   3.106 125.439  0.00  0.00    -0.016 C 
ATOM      5  C   LIG A   1      -6.872   2.105 125.156  0.00  0.00    -0.006 C 
ATOM      6  C   LIG A   1      -8.184   2.853 125.471  0.00  0.00    +0.016 C 
ATOM      7  C   LIG A   1      -6.714   1.688 123.649  0.00  0.00    +0.014 C 
ATOM      8  C   LIG A   1      -7.699   0.563 123.270  0.00  0.00    +0.037 C 
ATOM      9  C   LIG A   1      -7.447  -0.696 124.106  0.00  0.00    +0.122 C 
ATOM     10  C   LIG A   1      -7.540  -0.451 125.647  0.00  0.00    +0.007 C 
ATOM     11  C   LIG A   1      -9.048  -0.281 125.979  0.00  0.00    +0.014 C 
ATOM     12  C   LIG A   1      -6.681   0.804 126.046  0.00  0.00    +0.008 C 
ATOM     13  C   LIG A   1      -6.798   1.026 127.573  0.00  0.00    +0.005 C 
ATOM     14  C   LIG A   1      -6.156  -0.125 128.344  0.00  0.00    +0.008 C 
ATOM     15  C   LIG A   1      -6.571  -1.553 127.920  0.00  0.00    -0.018 C 
ATOM     16  C   LIG A   1      -5.354  -2.473 128.229  0.00  0.00    +0.012 C 
ATOM     17  C   LIG A   1      -6.920  -1.688 126.402  0.00  0.00    +0.070 C 
ATOM     18  C   LIG A   1      -7.850  -2.883 126.408  0.00  0.00    +0.138 C 
ATOM     19  C   LIG A   1      -8.338  -3.245 127.780  0.00  0.00    +0.079 C 
ATOM     20  C   LIG A   1      -7.848  -2.077 128.655  0.00  0.00    +0.010 C 
ATOM     21  O   LIG A   1      -8.184  -3.499 125.394  0.00  0.00    -0.297 OA
ATOM     22  C   LIG A   1      -6.647   2.861 122.614  0.00  0.00    +0.031 C 
ATOM     23  C   LIG A   1      -5.999   2.351 121.300  0.00  0.00    +0.019 C 
ATOM     24  C   LIG A   1      -8.007   3.473 122.249  0.00  0.00    +0.019 C 
ENDROOT
BRANCH   9  25
ATOM     25  O   LIG A   1      -6.143  -1.173 123.761  0.00  0.00    -0.391 OA
ATOM     26  H   LIG A   1      -5.685  -0.445 123.304  0.00  0.00    +0.210 HD
ENDBRANCH   9  25
BRANCH  20  27
ATOM     27  C   LIG A   1      -7.655  -2.506 130.124  0.00  0.00    +0.081 C 
BRANCH  27  28
ATOM     28  C   LIG A   1      -7.841  -1.370 131.124  0.00  0.00    +0.159 C 
ATOM     29  O   LIG A   1      -8.555  -0.392 130.898  0.00  0.00    -0.295 OA
BRANCH  28  30
ATOM     30  C   LIG A   1      -7.045  -1.478 132.423  0.00  0.00    +0.229 C 
BRANCH  30  31
ATOM     31  O   LIG A   1      -7.448  -0.531 133.398  0.00  0.00    -0.388 OA
ATOM     32  H   LIG A   1      -8.412  -0.637 133.510  0.00  0.00    +0.210 HD
ENDBRANCH  30  31
ENDBRANCH  28  30
ENDBRANCH  27  28
ENDBRANCH  20  27
TORSDOF 5
ENDMDL
MODEL 5
REMARK VINA RESULT:      -7.8      2.903      6.707
REMARK  Name = NuBBE_1550
REMARK  10 active torsions:
REMARK  status: ('A' for Active; 'I' for Inactive)
REMARK    1  A    between atoms: C_5  and  C_6
REMARK    2  A    between atoms: C_9  and  O_11
REMARK    3  A    between atoms: C_12  and  C_13
REMARK    4  A    between atoms: C_17  and  C_18
REMARK    5  A    between atoms: C_22  and  C_24
REMARK    6  A    between atoms: C_24  and  C_25
REMARK    7  A    between atoms: C_25  and  C_26
REMARK    8  A    between atoms: C_26  and  O_27
REMARK    9  A    between atoms: C_30  and  C_31
REMARK   10  A    between atoms: C_30  and  C_32
REMARK                            x       y       z     vdW  Elec       q    Type
REMARK                         _______ _______ _______ _____ _____    ______ ____
ROOT
ATOM      1  O   LIG A   1      -9.371  -3.201 123.072  0.00  0.00    -0.292 OA
ATOM      2  C   LIG A   1      -9.008  -2.629 124.101  0.00  0.00    +0.162 C 
ATOM      3  C   LIG A   1      -9.203  -3.336 125.388  0.00  0.00    +0.043 C 
ATOM      4  C   LIG A   1      -8.623  -2.923 126.522  0.00  0.00    -0.016 C 
ATOM      5  C   LIG A   1      -7.721  -1.695 126.630  0.00  0.00    -0.006 C 
ATOM      6  C   LIG A   1      -6.290  -2.213 126.383  0.00  0.00    +0.016 C 
ATOM      7  C   LIG A   1      -8.235  -0.679 125.547  0.00  0.00    +0.014 C 
ATOM      8  C   LIG A   1      -7.496   0.672 125.647  0.00  0.00    +0.037 C 
ATOM      9  C   LIG A   1      -7.729   1.327 127.013  0.00  0.00    +0.122 C 
ATOM     10  C   LIG A   1      -7.293   0.431 128.217  0.00  0.00    +0.007 C 
ATOM     11  C   LIG A   1      -5.740   0.446 128.242  0.00  0.00    +0.014 C 
ATOM     12  C   LIG A   1      -7.889  -1.016 128.056  0.00  0.00    +0.008 C 
ATOM     13  C   LIG A   1      -7.435  -1.880 129.256  0.00  0.00    +0.005 C 
ATOM     14  C   LIG A   1      -8.046  -1.370 130.560  0.00  0.00    +0.008 C 
ATOM     15  C   LIG A   1      -7.908   0.145 130.836  0.00  0.00    -0.018 C 
ATOM     16  C   LIG A   1      -9.143   0.547 131.696  0.00  0.00    +0.012 C 
ATOM     17  C   LIG A   1      -7.896   1.028 129.546  0.00  0.00    +0.070 C 
ATOM     18  C   LIG A   1      -7.142   2.252 130.021  0.00  0.00    +0.138 C 
ATOM     19  C   LIG A   1      -6.434   2.040 131.326  0.00  0.00    +0.079 C 
ATOM     20  C   LIG A   1      -6.586   0.529 131.575  0.00  0.00    +0.010 C 
ATOM     21  O   LIG A   1      -7.103   3.318 129.401  0.00  0.00    -0.297 OA
ATOM     22  C   LIG A   1      -8.364  -1.236 124.089  0.00  0.00    +0.031 C 
ATOM     23  C   LIG A   1      -9.324  -0.329 123.276  0.00  0.00    +0.019 C 
ATOM     24  C   LIG A   1      -7.041  -1.316 123.313  0.00  0.00    +0.019 C 
ENDROOT
BRANCH   9  25
ATOM     25  O   LIG A   1      -9.125   1.626 127.101  0.00  0.00    -0.391 OA
ATOM     26  H   LIG A   1      -9.232   2.276 127.819  0.00  0.00    +0.210 HD
ENDBRANCH   9  25
BRANCH  20  27
ATOM     27  C   LIG A   1      -6.526   0.189 133.078  0.00  0.00    +0.081 C 
BRANCH  27  28
ATOM     28  C   LIG A   1      -5.879  -1.158 133.378  0.00  0.00    +0.159 C 
ATOM     29  O   LIG A   1      -4.880  -1.567 132.782  0.00  0.00    -0.295 OA
BRANCH  28  30
ATOM     30  C   LIG A   1      -6.568  -2.018 134.435  0.00  0.00    +0.229 C 
BRANCH  30  31
ATOM     31  O   LIG A   1      -7.920  -2.305 134.120  0.00  0.00    -0.388 OA
ATOM     32  H   LIG A   1      -7.906  -2.961 133.396  0.00  0.00    +0.210 HD
ENDBRANCH  30  31
ENDBRANCH  28  30
ENDBRANCH  27  28
ENDBRANCH  20  27
TORSDOF 5
ENDMDL
MODEL 6
REMARK VINA RESULT:      -7.7      3.395      7.151
REMARK  Name = NuBBE_1550
REMARK  10 active torsions:
REMARK  status: ('A' for Active; 'I' for Inactive)
REMARK    1  A    between atoms: C_5  and  C_6
REMARK    2  A    between atoms: C_9  and  O_11
REMARK    3  A    between atoms: C_12  and  C_13
REMARK    4  A    between atoms: C_17  and  C_18
REMARK    5  A    between atoms: C_22  and  C_24
REMARK    6  A    between atoms: C_24  and  C_25
REMARK    7  A    between atoms: C_25  and  C_26
REMARK    8  A    between atoms: C_26  and  O_27
REMARK    9  A    between atoms: C_30  and  C_31
REMARK   10  A    between atoms: C_30  and  C_32
REMARK                            x       y       z     vdW  Elec       q    Type
REMARK                         _______ _______ _______ _____ _____    ______ ____
ROOT
ATOM      1  O   LIG A   1      -8.989   6.303 133.924  0.00  0.00    -0.292 OA
ATOM      2  C   LIG A   1      -8.750   5.359 133.171  0.00  0.00    +0.162 C 
ATOM      3  C   LIG A   1      -9.009   3.991 133.677  0.00  0.00    +0.043 C 
ATOM      4  C   LIG A   1      -9.024   2.924 132.868  0.00  0.00    -0.016 C 
ATOM      5  C   LIG A   1      -8.772   2.980 131.363  0.00  0.00    -0.006 C 
ATOM      6  C   LIG A   1     -10.160   3.173 130.720  0.00  0.00    +0.016 C 
ATOM      7  C   LIG A   1      -7.781   4.179 131.131  0.00  0.00    +0.014 C 
ATOM      8  C   LIG A   1      -7.328   4.257 129.658  0.00  0.00    +0.037 C 
ATOM      9  C   LIG A   1      -6.585   2.982 129.243  0.00  0.00    +0.122 C 
ATOM     10  C   LIG A   1      -7.426   1.679 129.436  0.00  0.00    +0.007 C 
ATOM     11  C   LIG A   1      -8.497   1.671 128.311  0.00  0.00    +0.014 C 
ATOM     12  C   LIG A   1      -8.052   1.650 130.878  0.00  0.00    +0.008 C 
ATOM     13  C   LIG A   1      -8.883   0.355 131.037  0.00  0.00    +0.005 C 
ATOM     14  C   LIG A   1      -7.984  -0.879 130.997  0.00  0.00    +0.008 C 
ATOM     15  C   LIG A   1      -6.980  -0.961 129.825  0.00  0.00    -0.018 C 
ATOM     16  C   LIG A   1      -5.760  -1.775 130.349  0.00  0.00    +0.012 C 
ATOM     17  C   LIG A   1      -6.469   0.430 129.328  0.00  0.00    +0.070 C 
ATOM     18  C   LIG A   1      -6.085   0.122 127.897  0.00  0.00    +0.138 C 
ATOM     19  C   LIG A   1      -6.620  -1.193 127.412  0.00  0.00    +0.079 C 
ATOM     20  C   LIG A   1      -7.568  -1.633 128.542  0.00  0.00    +0.010 C 
ATOM     21  O   LIG A   1      -5.406   0.871 127.190  0.00  0.00    -0.297 OA
ATOM     22  C   LIG A   1      -8.210   5.553 131.747  0.00  0.00    +0.031 C 
ATOM     23  C   LIG A   1      -6.962   6.465 131.885  0.00  0.00    +0.019 C 
ATOM     24  C   LIG A   1      -9.255   6.325 130.929  0.00  0.00    +0.019 C 
ENDROOT
BRANCH   9  25
ATOM     25  O   LIG A   1      -5.390   2.919 130.027  0.00  0.00    -0.391 OA
ATOM     26  H   LIG A   1      -4.705   3.411 129.540  0.00  0.00    +0.210 HD
ENDBRANCH   9  25
BRANCH  20  27
ATOM     27  C   LIG A   1      -7.725  -3.166 128.592  0.00  0.00    +0.081 C 
BRANCH  27  28
ATOM     28  C   LIG A   1      -8.908  -3.689 127.785  0.00  0.00    +0.159 C 
ATOM     29  O   LIG A   1      -9.839  -4.317 128.294  0.00  0.00    -0.295 OA
BRANCH  28  30
ATOM     30  C   LIG A   1      -8.861  -3.440 126.279  0.00  0.00    +0.229 C 
BRANCH  30  31
ATOM     31  O   LIG A   1     -10.084  -2.944 125.762  0.00  0.00    -0.388 OA
ATOM     32  H   LIG A   1     -10.622  -2.668 126.529  0.00  0.00    +0.210 HD
ENDBRANCH  30  31
ENDBRANCH  28  30
ENDBRANCH  27  28
ENDBRANCH  20  27
TORSDOF 5
ENDMDL
MODEL 7
REMARK VINA RESULT:      -7.7      4.971      8.281
REMARK  Name = NuBBE_1550
REMARK  10 active torsions:
REMARK  status: ('A' for Active; 'I' for Inactive)
REMARK    1  A    between atoms: C_5  and  C_6
REMARK    2  A    between atoms: C_9  and  O_11
REMARK    3  A    between atoms: C_12  and  C_13
REMARK    4  A    between atoms: C_17  and  C_18
REMARK    5  A    between atoms: C_22  and  C_24
REMARK    6  A    between atoms: C_24  and  C_25
REMARK    7  A    between atoms: C_25  and  C_26
REMARK    8  A    between atoms: C_26  and  O_27
REMARK    9  A    between atoms: C_30  and  C_31
REMARK   10  A    between atoms: C_30  and  C_32
REMARK                            x       y       z     vdW  Elec       q    Type
REMARK                         _______ _______ _______ _____ _____    ______ ____
ROOT
ATOM      1  O   LIG A   1      -1.045   7.149 133.909  0.00  0.00    -0.292 OA
ATOM      2  C   LIG A   1      -2.060   6.663 133.407  0.00  0.00    +0.162 C 
ATOM      3  C   LIG A   1      -3.367   7.040 133.994  0.00  0.00    +0.043 C 
ATOM      4  C   LIG A   1      -4.526   6.776 133.377  0.00  0.00    -0.016 C 
ATOM      5  C   LIG A   1      -4.643   6.061 132.033  0.00  0.00    -0.006 C 
ATOM      6  C   LIG A   1      -4.621   7.178 130.970  0.00  0.00    +0.016 C 
ATOM      7  C   LIG A   1      -3.422   5.073 131.956  0.00  0.00    +0.014 C 
ATOM      8  C   LIG A   1      -3.501   4.178 130.702  0.00  0.00    +0.037 C 
ATOM      9  C   LIG A   1      -4.768   3.315 130.720  0.00  0.00    +0.122 C 
ATOM     10  C   LIG A   1      -6.088   4.146 130.822  0.00  0.00    +0.007 C 
ATOM     11  C   LIG A   1      -6.306   4.805 129.433  0.00  0.00    +0.014 C 
ATOM     12  C   LIG A   1      -5.975   5.197 131.987  0.00  0.00    +0.008 C 
ATOM     13  C   LIG A   1      -7.291   6.008 132.059  0.00  0.00    +0.005 C 
ATOM     14  C   LIG A   1      -8.460   5.117 132.473  0.00  0.00    +0.008 C 
ATOM     15  C   LIG A   1      -8.624   3.791 131.695  0.00  0.00    -0.018 C 
ATOM     16  C   LIG A   1      -9.286   2.784 132.681  0.00  0.00    +0.012 C 
ATOM     17  C   LIG A   1      -7.276   3.179 131.193  0.00  0.00    +0.070 C 
ATOM     18  C   LIG A   1      -7.737   2.354 130.010  0.00  0.00    +0.138 C 
ATOM     19  C   LIG A   1      -9.134   2.680 129.571  0.00  0.00    +0.079 C 
ATOM     20  C   LIG A   1      -9.488   3.929 130.400  0.00  0.00    +0.010 C 
ATOM     21  O   LIG A   1      -7.041   1.502 129.453  0.00  0.00    -0.297 OA
ATOM     22  C   LIG A   1      -2.012   5.704 132.210  0.00  0.00    +0.031 C 
ATOM     23  C   LIG A   1      -1.012   4.584 132.601  0.00  0.00    +0.019 C 
ATOM     24  C   LIG A   1      -1.417   6.451 131.008  0.00  0.00    +0.019 C 
ENDROOT
BRANCH   9  25
ATOM     25  O   LIG A   1      -4.655   2.430 131.838  0.00  0.00    -0.391 OA
ATOM     26  H   LIG A   1      -5.362   1.766 131.747  0.00  0.00    +0.210 HD
ENDBRANCH   9  25
BRANCH  20  27
ATOM     27  C   LIG A   1     -11.010   4.061 130.612  0.00  0.00    +0.081 C 
BRANCH  27  28
ATOM     28  C   LIG A   1     -11.553   5.453 130.310  0.00  0.00    +0.159 C 
ATOM     29  O   LIG A   1     -11.776   5.849 129.164  0.00  0.00    -0.295 OA
BRANCH  28  30
ATOM     30  C   LIG A   1     -11.763   6.371 131.512  0.00  0.00    +0.229 C 
BRANCH  30  31
ATOM     31  O   LIG A   1     -13.025   7.017 131.500  0.00  0.00    -0.388 OA
ATOM     32  H   LIG A   1     -13.106   7.490 132.351  0.00  0.00    +0.210 HD
ENDBRANCH  30  31
ENDBRANCH  28  30
ENDBRANCH  27  28
ENDBRANCH  20  27
TORSDOF 5
ENDMDL
MODEL 8
REMARK VINA RESULT:      -7.6      2.644      4.131
REMARK  Name = NuBBE_1550
REMARK  10 active torsions:
REMARK  status: ('A' for Active; 'I' for Inactive)
REMARK    1  A    between atoms: C_5  and  C_6
REMARK    2  A    between atoms: C_9  and  O_11
REMARK    3  A    between atoms: C_12  and  C_13
REMARK    4  A    between atoms: C_17  and  C_18
REMARK    5  A    between atoms: C_22  and  C_24
REMARK    6  A    between atoms: C_24  and  C_25
REMARK    7  A    between atoms: C_25  and  C_26
REMARK    8  A    between atoms: C_26  and  O_27
REMARK    9  A    between atoms: C_30  and  C_31
REMARK   10  A    between atoms: C_30  and  C_32
REMARK                            x       y       z     vdW  Elec       q    Type
REMARK                         _______ _______ _______ _____ _____    ______ ____
ROOT
ATOM      1  O   LIG A   1      -4.368  -5.361 133.606  0.00  0.00    -0.292 OA
ATOM      2  C   LIG A   1      -4.743  -4.600 132.713  0.00  0.00    +0.162 C 
ATOM      3  C   LIG A   1      -5.294  -5.205 131.478  0.00  0.00    +0.043 C 
ATOM      4  C   LIG A   1      -5.954  -4.481 130.565  0.00  0.00    -0.016 C 
ATOM      5  C   LIG A   1      -6.205  -2.979 130.673  0.00  0.00    -0.006 C 
ATOM      6  C   LIG A   1      -7.561  -2.840 131.396  0.00  0.00    +0.016 C 
ATOM      7  C   LIG A   1      -4.986  -2.389 131.471  0.00  0.00    +0.014 C 
ATOM      8  C   LIG A   1      -5.043  -0.848 131.526  0.00  0.00    +0.037 C 
ATOM      9  C   LIG A   1      -4.986  -0.243 130.120  0.00  0.00    +0.122 C 
ATOM     10  C   LIG A   1      -6.124  -0.749 129.176  0.00  0.00    +0.007 C 
ATOM     11  C   LIG A   1      -7.432  -0.055 129.647  0.00  0.00    +0.014 C 
ATOM     12  C   LIG A   1      -6.211  -2.319 129.229  0.00  0.00    +0.008 C 
ATOM     13  C   LIG A   1      -7.349  -2.789 128.293  0.00  0.00    +0.005 C 
ATOM     14  C   LIG A   1      -7.019  -2.484 126.834  0.00  0.00    +0.008 C 
ATOM     15  C   LIG A   1      -6.553  -1.043 126.521  0.00  0.00    -0.018 C 
ATOM     16  C   LIG A   1      -5.606  -1.147 125.289  0.00  0.00    +0.012 C 
ATOM     17  C   LIG A   1      -5.770  -0.361 127.690  0.00  0.00    +0.070 C 
ATOM     18  C   LIG A   1      -6.012   1.106 127.405  0.00  0.00    +0.138 C 
ATOM     19  C   LIG A   1      -7.110   1.341 126.409  0.00  0.00    +0.079 C 
ATOM     20  C   LIG A   1      -7.727  -0.057 126.220  0.00  0.00    +0.010 C 
ATOM     21  O   LIG A   1      -5.382   2.023 127.936  0.00  0.00    -0.297 OA
ATOM     22  C   LIG A   1      -4.667  -3.072 132.843  0.00  0.00    +0.031 C 
ATOM     23  C   LIG A   1      -3.204  -2.751 133.249  0.00  0.00    +0.019 C 
ATOM     24  C   LIG A   1      -5.572  -2.634 134.004  0.00  0.00    +0.019 C 
ENDROOT
BRANCH   9  25
ATOM     25  O   LIG A   1      -3.707  -0.577 129.572  0.00  0.00    -0.391 OA
ATOM     26  H   LIG A   1      -3.870  -1.094 128.762  0.00  0.00    +0.210 HD
ENDBRANCH   9  25
BRANCH  20  27
ATOM     27  C   LIG A   1      -8.398  -0.203 124.839  0.00  0.00    +0.081 C 
BRANCH  27  28
ATOM     28  C   LIG A   1      -9.675   0.614 124.687  0.00  0.00    +0.159 C 
ATOM     29  O   LIG A   1     -10.471   0.788 125.611  0.00  0.00    -0.295 OA
BRANCH  28  30
ATOM     30  C   LIG A   1      -9.955   1.177 123.294  0.00  0.00    +0.229 C 
BRANCH  30  31
ATOM     31  O   LIG A   1     -10.861   0.382 122.549  0.00  0.00    -0.388 OA
ATOM     32  H   LIG A   1     -10.828  -0.516 122.932  0.00  0.00    +0.210 HD
ENDBRANCH  30  31
ENDBRANCH  28  30
ENDBRANCH  27  28
ENDBRANCH  20  27
TORSDOF 5
ENDMDL
MODEL 9
REMARK VINA RESULT:      -7.6      3.201      7.612
REMARK  Name = NuBBE_1550
REMARK  10 active torsions:
REMARK  status: ('A' for Active; 'I' for Inactive)
REMARK    1  A    between atoms: C_5  and  C_6
REMARK    2  A    between atoms: C_9  and  O_11
REMARK    3  A    between atoms: C_12  and  C_13
REMARK    4  A    between atoms: C_17  and  C_18
REMARK    5  A    between atoms: C_22  and  C_24
REMARK    6  A    between atoms: C_24  and  C_25
REMARK    7  A    between atoms: C_25  and  C_26
REMARK    8  A    between atoms: C_26  and  O_27
REMARK    9  A    between atoms: C_30  and  C_31
REMARK   10  A    between atoms: C_30  and  C_32
REMARK                            x       y       z     vdW  Elec       q    Type
REMARK                         _______ _______ _______ _____ _____    ______ ____
ROOT
ATOM      1  O   LIG A   1      -9.646  -1.914 124.179  0.00  0.00    -0.292 OA
ATOM      2  C   LIG A   1      -9.060  -1.824 125.258  0.00  0.00    +0.162 C 
ATOM      3  C   LIG A   1      -9.029  -3.023 126.128  0.00  0.00    +0.043 C 
ATOM      4  C   LIG A   1      -8.218  -3.112 127.189  0.00  0.00    -0.016 C 
ATOM      5  C   LIG A   1      -7.256  -2.012 127.633  0.00  0.00    -0.006 C 
ATOM      6  C   LIG A   1      -5.928  -2.311 126.908  0.00  0.00    +0.016 C 
ATOM      7  C   LIG A   1      -7.926  -0.652 127.216  0.00  0.00    +0.014 C 
ATOM      8  C   LIG A   1      -7.120   0.556 127.737  0.00  0.00    +0.037 C 
ATOM      9  C   LIG A   1      -7.047   0.549 129.268  0.00  0.00    +0.122 C 
ATOM     10  C   LIG A   1      -6.424  -0.757 129.858  0.00  0.00    +0.007 C 
ATOM     11  C   LIG A   1      -4.898  -0.687 129.579  0.00  0.00    +0.014 C 
ATOM     12  C   LIG A   1      -7.107  -2.019 129.214  0.00  0.00    +0.008 C 
ATOM     13  C   LIG A   1      -6.466  -3.294 129.810  0.00  0.00    +0.005 C 
ATOM     14  C   LIG A   1      -6.782  -3.420 131.299  0.00  0.00    +0.008 C 
ATOM     15  C   LIG A   1      -6.522  -2.167 132.166  0.00  0.00    -0.018 C 
ATOM     16  C   LIG A   1      -7.542  -2.227 133.340  0.00  0.00    +0.012 C 
ATOM     17  C   LIG A   1      -6.724  -0.816 131.405  0.00  0.00    +0.070 C 
ATOM     18  C   LIG A   1      -5.835   0.118 132.199  0.00  0.00    +0.138 C 
ATOM     19  C   LIG A   1      -4.893  -0.603 133.118  0.00  0.00    +0.079 C 
ATOM     20  C   LIG A   1      -5.063  -2.080 132.719  0.00  0.00    +0.010 C 
ATOM     21  O   LIG A   1      -5.869   1.346 132.103  0.00  0.00    -0.297 OA
ATOM     22  C   LIG A   1      -8.367  -0.534 125.717  0.00  0.00    +0.031 C 
ATOM     23  C   LIG A   1      -9.425   0.591 125.581  0.00  0.00    +0.019 C 
ATOM     24  C   LIG A   1      -7.228  -0.215 124.737  0.00  0.00    +0.019 C 
ENDROOT
BRANCH   9  25
ATOM     25  O   LIG A   1      -8.382   0.720 129.751  0.00  0.00    -0.391 OA
ATOM     26  H   LIG A   1      -8.321   1.215 130.588  0.00  0.00    +0.210 HD
ENDBRANCH   9  25
BRANCH  20  27
ATOM     27  C   LIG A   1      -4.723  -3.030 133.885  0.00  0.00    +0.081 C 
BRANCH  27  28
ATOM     28  C   LIG A   1      -3.857  -4.216 133.479  0.00  0.00    +0.159 C 
ATOM     29  O   LIG A   1      -2.674  -4.099 133.154  0.00  0.00    -0.295 OA
BRANCH  28  30
ATOM     30  C   LIG A   1      -4.549  -5.577 133.444  0.00  0.00    +0.229 C 
BRANCH  30  31
ATOM     31  O   LIG A   1      -5.865  -5.542 133.971  0.00  0.00    -0.388 OA
ATOM     32  H   LIG A   1      -5.970  -6.346 134.516  0.00  0.00    +0.210 HD
ENDBRANCH  30  31
ENDBRANCH  28  30
ENDBRANCH  27  28
ENDBRANCH  20  27
TORSDOF 5
ENDMDL
