MODEL 1
REMARK VINA RESULT:      -7.2      0.000      0.000
REMARK  Name = NuBBE_552
REMARK  3 active torsions:
REMARK  status: ('A' for Active; 'I' for Inactive)
REMARK    1  A    between atoms: C_1  and  C_2
REMARK    2  A    between atoms: C_6  and  C_7
REMARK    3  A    between atoms: C_13  and  C_14
REMARK                            x       y       z     vdW  Elec       q    Type
REMARK                         _______ _______ _______ _____ _____    ______ ____
ROOT
ATOM      1  C   LIG A   1      -9.515  -3.299 123.674  0.00  0.00    +0.016 C 
ATOM      2  C   LIG A   1      -8.671  -2.505 124.733  0.00  0.00    +0.003 C 
ATOM      3  C   LIG A   1      -7.125  -2.681 124.879  0.00  0.00    +0.005 C 
ATOM      4  C   LIG A   1      -6.499  -2.238 126.193  0.00  0.00    +0.193 C 
ATOM      5  C   LIG A   1      -7.216  -2.703 127.333  0.00  0.00    +0.066 A 
ATOM      6  C   LIG A   1      -6.882  -2.868 128.706  0.00  0.00    -0.002 A 
ATOM      7  C   LIG A   1      -5.638  -2.453 129.399  0.00  0.00    +0.048 C 
ATOM      8  C   LIG A   1      -7.967  -3.524 129.257  0.00  0.00    +0.199 A 
ATOM      9  O   LIG A   1      -8.998  -3.593 128.368  0.00  0.00    -0.467 OA
ATOM     10  C   LIG A   1      -8.541  -3.025 127.226  0.00  0.00    +0.117 A 
ATOM     11  C   LIG A   1      -9.432  -2.870 126.062  0.00  0.00    +0.086 C 
ATOM     12  O   LIG A   1      -5.536  -1.466 126.276  0.00  0.00    -0.287 OA
ATOM     13  C   LIG A   1      -6.311  -2.655 123.799  0.00  0.00    -0.065 C 
ATOM     14  C   LIG A   1      -4.806  -2.692 123.791  0.00  0.00    +0.039 C 
ATOM     15  C   LIG A   1      -6.962  -2.224 122.517  0.00  0.00    +0.031 C 
ATOM     16  C   LIG A   1      -7.851  -0.981 122.827  0.00  0.00    +0.005 C 
ATOM     17  C   LIG A   1      -8.675  -1.051 124.181  0.00  0.00    +0.012 C 
ENDROOT
TORSDOF 0
ENDMDL
MODEL 2
REMARK VINA RESULT:      -7.1      1.488      5.263
REMARK  Name = NuBBE_552
REMARK  3 active torsions:
REMARK  status: ('A' for Active; 'I' for Inactive)
REMARK    1  A    between atoms: C_1  and  C_2
REMARK    2  A    between atoms: C_6  and  C_7
REMARK    3  A    between atoms: C_13  and  C_14
REMARK                            x       y       z     vdW  Elec       q    Type
REMARK                         _______ _______ _______ _____ _____    ______ ____
ROOT
ATOM      1  C   LIG A   1      -5.251  -2.316 128.624  0.00  0.00    +0.016 C 
ATOM      2  C   LIG A   1      -6.393  -1.864 127.646  0.00  0.00    +0.003 C 
ATOM      3  C   LIG A   1      -7.615  -2.776 127.303  0.00  0.00    +0.005 C 
ATOM      4  C   LIG A   1      -8.388  -2.448 126.034  0.00  0.00    +0.193 C 
ATOM      5  C   LIG A   1      -7.541  -2.219 124.911  0.00  0.00    +0.066 A 
ATOM      6  C   LIG A   1      -7.747  -2.233 123.504  0.00  0.00    -0.002 A 
ATOM      7  C   LIG A   1      -9.026  -2.380 122.770  0.00  0.00    +0.048 C 
ATOM      8  C   LIG A   1      -6.481  -2.099 122.962  0.00  0.00    +0.199 A 
ATOM      9  O   LIG A   1      -5.564  -1.817 123.929  0.00  0.00    -0.467 OA
ATOM     10  C   LIG A   1      -6.244  -1.827 125.101  0.00  0.00    +0.117 A 
ATOM     11  C   LIG A   1      -5.561  -1.489 126.363  0.00  0.00    +0.086 C 
ATOM     12  O   LIG A   1      -9.614  -2.286 125.992  0.00  0.00    -0.287 OA
ATOM     13  C   LIG A   1      -8.315  -3.405 128.274  0.00  0.00    -0.065 C 
ATOM     14  C   LIG A   1      -9.575  -4.213 128.112  0.00  0.00    +0.039 C 
ATOM     15  C   LIG A   1      -7.981  -2.989 129.676  0.00  0.00    +0.031 C 
ATOM     16  C   LIG A   1      -7.881  -1.433 129.702  0.00  0.00    +0.005 C 
ATOM     17  C   LIG A   1      -7.151  -0.775 128.455  0.00  0.00    +0.012 C 
ENDROOT
TORSDOF 0
ENDMDL
MODEL 3
REMARK VINA RESULT:      -6.9      2.683      4.830
REMARK  Name = NuBBE_552
REMARK  3 active torsions:
REMARK  status: ('A' for Active; 'I' for Inactive)
REMARK    1  A    between atoms: C_1  and  C_2
REMARK    2  A    between atoms: C_6  and  C_7
REMARK    3  A    between atoms: C_13  and  C_14
REMARK                            x       y       z     vdW  Elec       q    Type
REMARK                         _______ _______ _______ _____ _____    ______ ____
ROOT
ATOM      1  C   LIG A   1      -7.950  -3.911 124.695  0.00  0.00    +0.016 C 
ATOM      2  C   LIG A   1      -7.557  -2.539 124.040  0.00  0.00    +0.003 C 
ATOM      3  C   LIG A   1      -7.169  -1.284 124.885  0.00  0.00    +0.005 C 
ATOM      4  C   LIG A   1      -7.261   0.070 124.197  0.00  0.00    +0.193 C 
ATOM      5  C   LIG A   1      -8.479   0.246 123.479  0.00  0.00    +0.066 A 
ATOM      6  C   LIG A   1      -9.179   1.384 122.992  0.00  0.00    -0.002 A 
ATOM      7  C   LIG A   1      -8.735   2.799 122.995  0.00  0.00    +0.048 C 
ATOM      8  C   LIG A   1     -10.385   0.886 122.532  0.00  0.00    +0.199 A 
ATOM      9  O   LIG A   1     -10.381  -0.476 122.531  0.00  0.00    -0.467 OA
ATOM     10  C   LIG A   1      -9.183  -0.845 123.047  0.00  0.00    +0.117 A 
ATOM     11  C   LIG A   1      -8.813  -2.269 123.129  0.00  0.00    +0.086 C 
ATOM     12  O   LIG A   1      -6.339   0.894 124.164  0.00  0.00    -0.287 OA
ATOM     13  C   LIG A   1      -6.280  -1.370 125.902  0.00  0.00    -0.065 C 
ATOM     14  C   LIG A   1      -5.722  -0.238 126.723  0.00  0.00    +0.039 C 
ATOM     15  C   LIG A   1      -5.545  -2.674 126.000  0.00  0.00    +0.031 C 
ATOM     16  C   LIG A   1      -5.094  -3.079 124.563  0.00  0.00    +0.005 C 
ATOM     17  C   LIG A   1      -6.161  -2.824 123.416  0.00  0.00    +0.012 C 
ENDROOT
TORSDOF 0
ENDMDL
MODEL 4
REMARK VINA RESULT:      -6.9      5.215      8.150
REMARK  Name = NuBBE_552
REMARK  3 active torsions:
REMARK  status: ('A' for Active; 'I' for Inactive)
REMARK    1  A    between atoms: C_1  and  C_2
REMARK    2  A    between atoms: C_6  and  C_7
REMARK    3  A    between atoms: C_13  and  C_14
REMARK                            x       y       z     vdW  Elec       q    Type
REMARK                         _______ _______ _______ _____ _____    ______ ____
ROOT
ATOM      1  C   LIG A   1      -5.289   2.645 125.588  0.00  0.00    +0.016 C 
ATOM      2  C   LIG A   1      -6.286   3.224 124.522  0.00  0.00    +0.003 C 
ATOM      3  C   LIG A   1      -7.104   2.311 123.553  0.00  0.00    +0.005 C 
ATOM      4  C   LIG A   1      -7.661   2.961 122.295  0.00  0.00    +0.193 C 
ATOM      5  C   LIG A   1      -6.701   3.765 121.615  0.00  0.00    +0.066 A 
ATOM      6  C   LIG A   1      -6.602   4.267 120.287  0.00  0.00    -0.002 A 
ATOM      7  C   LIG A   1      -7.610   4.185 119.203  0.00  0.00    +0.048 C 
ATOM      8  C   LIG A   1      -5.343   4.835 120.219  0.00  0.00    +0.199 A 
ATOM      9  O   LIG A   1      -4.761   4.879 121.450  0.00  0.00    -0.467 OA
ATOM     10  C   LIG A   1      -5.636   4.285 122.296  0.00  0.00    +0.117 A 
ATOM     11  C   LIG A   1      -5.349   4.220 123.741  0.00  0.00    +0.086 C 
ATOM     12  O   LIG A   1      -8.847   2.896 121.949  0.00  0.00    -0.287 OA
ATOM     13  C   LIG A   1      -7.781   1.232 124.010  0.00  0.00    -0.065 C 
ATOM     14  C   LIG A   1      -8.701   0.334 123.226  0.00  0.00    +0.039 C 
ATOM     15  C   LIG A   1      -7.873   1.120 125.503  0.00  0.00    +0.031 C 
ATOM     16  C   LIG A   1      -8.224   2.530 126.069  0.00  0.00    +0.005 C 
ATOM     17  C   LIG A   1      -7.470   3.747 125.384  0.00  0.00    +0.012 C 
ENDROOT
TORSDOF 0
ENDMDL
MODEL 5
REMARK VINA RESULT:      -6.7      2.554      5.288
REMARK  Name = NuBBE_552
REMARK  3 active torsions:
REMARK  status: ('A' for Active; 'I' for Inactive)
REMARK    1  A    between atoms: C_1  and  C_2
REMARK    2  A    between atoms: C_6  and  C_7
REMARK    3  A    between atoms: C_13  and  C_14
REMARK                            x       y       z     vdW  Elec       q    Type
REMARK                         _______ _______ _______ _____ _____    ______ ____
ROOT
ATOM      1  C   LIG A   1      -5.860  -2.226 126.319  0.00  0.00    +0.016 C 
ATOM      2  C   LIG A   1      -7.014  -1.252 125.889  0.00  0.00    +0.003 C 
ATOM      3  C   LIG A   1      -7.849  -1.462 124.585  0.00  0.00    +0.005 C 
ATOM      4  C   LIG A   1      -8.593  -0.253 124.037  0.00  0.00    +0.193 C 
ATOM      5  C   LIG A   1      -7.787   0.920 123.990  0.00  0.00    +0.066 A 
ATOM      6  C   LIG A   1      -7.876   2.147 123.276  0.00  0.00    -0.002 A 
ATOM      7  C   LIG A   1      -8.984   2.623 122.413  0.00  0.00    +0.048 C 
ATOM      8  C   LIG A   1      -6.686   2.799 123.545  0.00  0.00    +0.199 A 
ATOM      9  O   LIG A   1      -5.980   2.145 124.510  0.00  0.00    -0.467 OA
ATOM     10  C   LIG A   1      -6.703   1.041 124.816  0.00  0.00    +0.117 A 
ATOM     11  C   LIG A   1      -6.257   0.130 125.886  0.00  0.00    +0.086 C 
ATOM     12  O   LIG A   1      -9.800  -0.249 123.762  0.00  0.00    -0.287 OA
ATOM     13  C   LIG A   1      -8.376  -2.670 124.277  0.00  0.00    -0.065 C 
ATOM     14  C   LIG A   1      -9.293  -2.998 123.129  0.00  0.00    +0.039 C 
ATOM     15  C   LIG A   1      -8.296  -3.699 125.365  0.00  0.00    +0.031 C 
ATOM     16  C   LIG A   1      -8.705  -3.013 126.704  0.00  0.00    +0.005 C 
ATOM     17  C   LIG A   1      -8.139  -1.546 126.921  0.00  0.00    +0.012 C 
ENDROOT
TORSDOF 0
ENDMDL
MODEL 6
REMARK VINA RESULT:      -6.5      2.348      3.488
REMARK  Name = NuBBE_552
REMARK  3 active torsions:
REMARK  status: ('A' for Active; 'I' for Inactive)
REMARK    1  A    between atoms: C_1  and  C_2
REMARK    2  A    between atoms: C_6  and  C_7
REMARK    3  A    between atoms: C_13  and  C_14
REMARK                            x       y       z     vdW  Elec       q    Type
REMARK                         _______ _______ _______ _____ _____    ______ ____
ROOT
ATOM      1  C   LIG A   1      -6.557  -3.235 124.076  0.00  0.00    +0.016 C 
ATOM      2  C   LIG A   1      -7.554  -2.482 125.027  0.00  0.00    +0.003 C 
ATOM      3  C   LIG A   1      -8.229  -1.129 124.635  0.00  0.00    +0.005 C 
ATOM      4  C   LIG A   1      -8.786  -0.279 125.768  0.00  0.00    +0.193 C 
ATOM      5  C   LIG A   1      -7.879  -0.145 126.858  0.00  0.00    +0.066 A 
ATOM      6  C   LIG A   1      -7.766   0.776 127.936  0.00  0.00    -0.002 A 
ATOM      7  C   LIG A   1      -8.706   1.857 128.316  0.00  0.00    +0.048 C 
ATOM      8  C   LIG A   1      -6.567   0.456 128.548  0.00  0.00    +0.199 A 
ATOM      9  O   LIG A   1      -6.053  -0.699 128.039  0.00  0.00    -0.467 OA
ATOM     10  C   LIG A   1      -6.904  -1.084 127.058  0.00  0.00    +0.117 A 
ATOM     11  C   LIG A   1      -6.684  -2.348 126.332  0.00  0.00    +0.086 C 
ATOM     12  O   LIG A   1      -9.942   0.162 125.799  0.00  0.00    -0.287 OA
ATOM     13  C   LIG A   1      -8.818  -0.962 123.428  0.00  0.00    -0.065 C 
ATOM     14  C   LIG A   1      -9.605   0.231 122.954  0.00  0.00    +0.039 C 
ATOM     15  C   LIG A   1      -8.970  -2.212 122.612  0.00  0.00    +0.031 C 
ATOM     16  C   LIG A   1      -9.487  -3.340 123.558  0.00  0.00    +0.005 C 
ATOM     17  C   LIG A   1      -8.825  -3.378 125.000  0.00  0.00    +0.012 C 
ENDROOT
TORSDOF 0
ENDMDL
MODEL 7
REMARK VINA RESULT:      -6.5      2.597      4.463
REMARK  Name = NuBBE_552
REMARK  3 active torsions:
REMARK  status: ('A' for Active; 'I' for Inactive)
REMARK    1  A    between atoms: C_1  and  C_2
REMARK    2  A    between atoms: C_6  and  C_7
REMARK    3  A    between atoms: C_13  and  C_14
REMARK                            x       y       z     vdW  Elec       q    Type
REMARK                         _______ _______ _______ _____ _____    ______ ____
ROOT
ATOM      1  C   LIG A   1      -8.983  -2.401 126.575  0.00  0.00    +0.016 C 
ATOM      2  C   LIG A   1      -8.721  -1.564 125.273  0.00  0.00    +0.003 C 
ATOM      3  C   LIG A   1      -7.297  -1.402 124.650  0.00  0.00    +0.005 C 
ATOM      4  C   LIG A   1      -7.086  -0.233 123.699  0.00  0.00    +0.193 C 
ATOM      5  C   LIG A   1      -7.608   0.993 124.204  0.00  0.00    +0.066 A 
ATOM      6  C   LIG A   1      -7.372   2.363 123.899  0.00  0.00    -0.002 A 
ATOM      7  C   LIG A   1      -6.546   2.925 122.804  0.00  0.00    +0.048 C 
ATOM      8  C   LIG A   1      -8.069   3.064 124.866  0.00  0.00    +0.199 A 
ATOM      9  O   LIG A   1      -8.852   2.228 125.605  0.00  0.00    -0.467 OA
ATOM     10  C   LIG A   1      -8.607   0.980 125.138  0.00  0.00    +0.117 A 
ATOM     11  C   LIG A   1      -9.347  -0.176 125.675  0.00  0.00    +0.086 C 
ATOM     12  O   LIG A   1      -6.613  -0.342 122.561  0.00  0.00    -0.287 OA
ATOM     13  C   LIG A   1      -6.490  -2.471 124.459  0.00  0.00    -0.065 C 
ATOM     14  C   LIG A   1      -5.152  -2.491 123.769  0.00  0.00    +0.039 C 
ATOM     15  C   LIG A   1      -7.137  -3.808 124.670  0.00  0.00    +0.031 C 
ATOM     16  C   LIG A   1      -8.532  -3.779 123.975  0.00  0.00    +0.005 C 
ATOM     17  C   LIG A   1      -9.355  -2.433 124.151  0.00  0.00    +0.012 C 
ENDROOT
TORSDOF 0
ENDMDL
MODEL 8
REMARK VINA RESULT:      -6.3      2.669      3.748
REMARK  Name = NuBBE_552
REMARK  3 active torsions:
REMARK  status: ('A' for Active; 'I' for Inactive)
REMARK    1  A    between atoms: C_1  and  C_2
REMARK    2  A    between atoms: C_6  and  C_7
REMARK    3  A    between atoms: C_13  and  C_14
REMARK                            x       y       z     vdW  Elec       q    Type
REMARK                         _______ _______ _______ _____ _____    ______ ____
ROOT
ATOM      1  C   LIG A   1      -8.914  -1.206 123.453  0.00  0.00    +0.016 C 
ATOM      2  C   LIG A   1      -8.076  -1.033 124.770  0.00  0.00    +0.003 C 
ATOM      3  C   LIG A   1      -8.454  -1.748 126.107  0.00  0.00    +0.005 C 
ATOM      4  C   LIG A   1      -7.878  -1.167 127.390  0.00  0.00    +0.193 C 
ATOM      5  C   LIG A   1      -8.014   0.249 127.467  0.00  0.00    +0.066 A 
ATOM      6  C   LIG A   1      -7.974   1.184 128.538  0.00  0.00    -0.002 A 
ATOM      7  C   LIG A   1      -7.631   0.932 129.958  0.00  0.00    +0.048 C 
ATOM      8  C   LIG A   1      -8.347   2.388 127.968  0.00  0.00    +0.199 A 
ATOM      9  O   LIG A   1      -8.422   2.283 126.612  0.00  0.00    -0.467 OA
ATOM     10  C   LIG A   1      -8.147   0.988 126.324  0.00  0.00    +0.117 A 
ATOM     11  C   LIG A   1      -8.074   0.535 124.923  0.00  0.00    +0.086 C 
ATOM     12  O   LIG A   1      -7.258  -1.828 128.232  0.00  0.00    -0.287 OA
ATOM     13  C   LIG A   1      -8.748  -3.069 126.137  0.00  0.00    -0.065 C 
ATOM     14  C   LIG A   1      -9.012  -3.916 127.353  0.00  0.00    +0.039 C 
ATOM     15  C   LIG A   1      -8.465  -3.816 124.867  0.00  0.00    +0.031 C 
ATOM     16  C   LIG A   1      -7.067  -3.363 124.346  0.00  0.00    +0.005 C 
ATOM     17  C   LIG A   1      -6.764  -1.810 124.468  0.00  0.00    +0.012 C 
ENDROOT
TORSDOF 0
ENDMDL
MODEL 9
REMARK VINA RESULT:      -6.3      1.941      3.506
REMARK  Name = NuBBE_552
REMARK  3 active torsions:
REMARK  status: ('A' for Active; 'I' for Inactive)
REMARK    1  A    between atoms: C_1  and  C_2
REMARK    2  A    between atoms: C_6  and  C_7
REMARK    3  A    between atoms: C_13  and  C_14
REMARK                            x       y       z     vdW  Elec       q    Type
REMARK                         _______ _______ _______ _____ _____    ______ ____
ROOT
ATOM      1  C   LIG A   1      -5.294   0.519 125.915  0.00  0.00    +0.016 C 
ATOM      2  C   LIG A   1      -6.267  -0.712 125.862  0.00  0.00    +0.003 C 
ATOM      3  C   LIG A   1      -7.812  -0.570 126.048  0.00  0.00    +0.005 C 
ATOM      4  C   LIG A   1      -8.580  -1.825 126.435  0.00  0.00    +0.193 C 
ATOM      5  C   LIG A   1      -7.962  -2.549 127.496  0.00  0.00    +0.066 A 
ATOM      6  C   LIG A   1      -8.424  -3.528 128.418  0.00  0.00    -0.002 A 
ATOM      7  C   LIG A   1      -9.744  -4.203 128.450  0.00  0.00    +0.048 C 
ATOM      8  C   LIG A   1      -7.374  -3.702 129.302  0.00  0.00    +0.199 A 
ATOM      9  O   LIG A   1      -6.259  -3.049 128.869  0.00  0.00    -0.467 OA
ATOM     10  C   LIG A   1      -6.622  -2.410 127.731  0.00  0.00    +0.117 A 
ATOM     11  C   LIG A   1      -5.627  -1.650 126.952  0.00  0.00    +0.086 C 
ATOM     12  O   LIG A   1      -9.575  -2.243 125.829  0.00  0.00    -0.287 OA
ATOM     13  C   LIG A   1      -8.516   0.370 125.377  0.00  0.00    -0.065 C 
ATOM     14  C   LIG A   1     -10.011   0.550 125.361  0.00  0.00    +0.039 C 
ATOM     15  C   LIG A   1      -7.759   1.088 124.299  0.00  0.00    +0.031 C 
ATOM     16  C   LIG A   1      -6.951   0.026 123.492  0.00  0.00    +0.005 C 
ATOM     17  C   LIG A   1      -6.262  -1.111 124.359  0.00  0.00    +0.012 C 
ENDROOT
TORSDOF 0
ENDMDL
