MODEL 1
REMARK VINA RESULT:      -6.9      0.000      0.000
REMARK  Name = NuBBE_942
REMARK  7 active torsions:
REMARK  status: ('A' for Active; 'I' for Inactive)
REMARK    1  A    between atoms: N_7  and  C_8
REMARK    2  A    between atoms: C_9  and  O_10
REMARK    3  A    between atoms: O_10  and  C_11
REMARK    4  A    between atoms: C_12  and  O_15
REMARK    5  A    between atoms: O_15  and  C_16
REMARK    6  A    between atoms: C_18  and  C_21
REMARK    7  A    between atoms: C_18  and  C_22
REMARK                            x       y       z     vdW  Elec       q    Type
REMARK                         _______ _______ _______ _____ _____    ______ ____
ROOT
ATOM      1  O   LIG A   1      -9.591  -2.983 124.279  0.00  0.00    -0.267 OA
ATOM      2  C   LIG A   1      -9.173  -2.014 124.910  0.00  0.00    +0.262 A 
ATOM      3  C   LIG A   1      -8.702  -2.214 126.312  0.00  0.00    +0.082 A 
ATOM      4  C   LIG A   1      -8.250  -1.178 127.031  0.00  0.00    +0.143 A 
ATOM      5  C   LIG A   1      -8.295   0.189 126.490  0.00  0.00    +0.045 A 
ATOM      6  C   LIG A   1      -8.716   0.422 125.163  0.00  0.00    +0.101 A 
ATOM      7  N   LIG A   1      -9.080  -0.730 124.370  0.00  0.00    -0.307 N 
ATOM      8  C   LIG A   1      -9.399  -0.601 122.957  0.00  0.00    +0.152 C 
ATOM      9  C   LIG A   1      -8.768   1.772 124.696  0.00  0.00    +0.186 A 
ATOM     10  C   LIG A   1      -8.422   2.842 125.557  0.00  0.00    +0.164 A 
ATOM     11  C   LIG A   1      -8.007   2.576 126.861  0.00  0.00    +0.050 A 
ATOM     12  C   LIG A   1      -7.937   1.265 127.316  0.00  0.00    +0.017 A 
ATOM     13  O   LIG A   1      -7.746  -1.294 128.313  0.00  0.00    -0.481 OA
ATOM     14  C   LIG A   1      -7.476  -2.610 128.846  0.00  0.00    +0.123 C 
ATOM     15  C   LIG A   1      -8.160  -3.732 128.101  0.00  0.00    +0.020 C 
ATOM     16  C   LIG A   1      -8.731  -3.532 126.907  0.00  0.00    +0.016 C 
ATOM     17  C   LIG A   1      -5.957  -2.816 128.804  0.00  0.00    +0.060 C 
ATOM     18  C   LIG A   1      -7.955  -2.579 130.301  0.00  0.00    +0.060 C 
ENDROOT
BRANCH   9  19
ATOM     19  O   LIG A   1      -9.265   1.990 123.429  0.00  0.00    -0.489 OA
ATOM     20  C   LIG A   1      -8.453   2.730 122.522  0.00  0.00    +0.277 C 
ENDBRANCH   9  19
BRANCH  10  21
ATOM     21  O   LIG A   1      -8.605   4.130 125.118  0.00  0.00    -0.491 OA
ATOM     22  C   LIG A   1      -7.605   5.072 125.499  0.00  0.00    +0.277 C 
ENDBRANCH  10  21
TORSDOF 2
ENDMDL
MODEL 2
REMARK VINA RESULT:      -6.9      2.770      5.721
REMARK  Name = NuBBE_942
REMARK  7 active torsions:
REMARK  status: ('A' for Active; 'I' for Inactive)
REMARK    1  A    between atoms: N_7  and  C_8
REMARK    2  A    between atoms: C_9  and  O_10
REMARK    3  A    between atoms: O_10  and  C_11
REMARK    4  A    between atoms: C_12  and  O_15
REMARK    5  A    between atoms: O_15  and  C_16
REMARK    6  A    between atoms: C_18  and  C_21
REMARK    7  A    between atoms: C_18  and  C_22
REMARK                            x       y       z     vdW  Elec       q    Type
REMARK                         _______ _______ _______ _____ _____    ______ ____
ROOT
ATOM      1  O   LIG A   1      -8.558   3.948 125.101  0.00  0.00    -0.267 OA
ATOM      2  C   LIG A   1      -7.899   2.916 125.223  0.00  0.00    +0.262 A 
ATOM      3  C   LIG A   1      -6.492   3.010 125.713  0.00  0.00    +0.082 A 
ATOM      4  C   LIG A   1      -5.745   1.907 125.847  0.00  0.00    +0.143 A 
ATOM      5  C   LIG A   1      -6.260   0.595 125.427  0.00  0.00    +0.045 A 
ATOM      6  C   LIG A   1      -7.589   0.457 124.975  0.00  0.00    +0.101 A 
ATOM      7  N   LIG A   1      -8.412   1.645 124.959  0.00  0.00    -0.307 N 
ATOM      8  C   LIG A   1      -9.828   1.576 124.635  0.00  0.00    +0.152 C 
ATOM      9  C   LIG A   1      -8.030  -0.836 124.552  0.00  0.00    +0.186 A 
ATOM     10  C   LIG A   1      -7.141  -1.938 124.573  0.00  0.00    +0.164 A 
ATOM     11  C   LIG A   1      -5.836  -1.767 125.029  0.00  0.00    +0.050 A 
ATOM     12  C   LIG A   1      -5.405  -0.518 125.458  0.00  0.00    +0.017 A 
ATOM     13  O   LIG A   1      -4.456   1.909 126.346  0.00  0.00    -0.481 OA
ATOM     14  C   LIG A   1      -3.944   3.109 126.967  0.00  0.00    +0.123 C 
ATOM     15  C   LIG A   1      -4.724   4.359 126.634  0.00  0.00    +0.020 C 
ATOM     16  C   LIG A   1      -5.924   4.298 126.047  0.00  0.00    +0.016 C 
ATOM     17  C   LIG A   1      -3.960   2.881 128.483  0.00  0.00    +0.060 C 
ATOM     18  C   LIG A   1      -2.498   3.250 126.479  0.00  0.00    +0.060 C 
ENDROOT
BRANCH   9  19
ATOM     19  O   LIG A   1      -9.302  -0.936 124.031  0.00  0.00    -0.489 OA
ATOM     20  C   LIG A   1      -9.426  -1.067 122.618  0.00  0.00    +0.277 C 
ENDBRANCH   9  19
BRANCH  10  21
ATOM     21  O   LIG A   1      -7.559  -3.134 124.042  0.00  0.00    -0.491 OA
ATOM     22  C   LIG A   1      -8.196  -4.034 124.945  0.00  0.00    +0.277 C 
ENDBRANCH  10  21
TORSDOF 2
ENDMDL
MODEL 3
REMARK VINA RESULT:      -6.8      2.041      3.233
REMARK  Name = NuBBE_942
REMARK  7 active torsions:
REMARK  status: ('A' for Active; 'I' for Inactive)
REMARK    1  A    between atoms: N_7  and  C_8
REMARK    2  A    between atoms: C_9  and  O_10
REMARK    3  A    between atoms: O_10  and  C_11
REMARK    4  A    between atoms: C_12  and  O_15
REMARK    5  A    between atoms: O_15  and  C_16
REMARK    6  A    between atoms: C_18  and  C_21
REMARK    7  A    between atoms: C_18  and  C_22
REMARK                            x       y       z     vdW  Elec       q    Type
REMARK                         _______ _______ _______ _____ _____    ______ ____
ROOT
ATOM      1  O   LIG A   1      -9.152  -4.059 128.320  0.00  0.00    -0.267 OA
ATOM      2  C   LIG A   1      -8.348  -3.256 127.849  0.00  0.00    +0.262 A 
ATOM      3  C   LIG A   1      -7.070  -3.002 128.578  0.00  0.00    +0.082 A 
ATOM      4  C   LIG A   1      -6.178  -2.126 128.098  0.00  0.00    +0.143 A 
ATOM      5  C   LIG A   1      -6.477  -1.330 126.898  0.00  0.00    +0.045 A 
ATOM      6  C   LIG A   1      -7.665  -1.549 126.169  0.00  0.00    +0.101 A 
ATOM      7  N   LIG A   1      -8.551  -2.588 126.641  0.00  0.00    -0.307 N 
ATOM      8  C   LIG A   1      -9.730  -2.974 125.882  0.00  0.00    +0.152 C 
ATOM      9  C   LIG A   1      -7.920  -0.728 125.027  0.00  0.00    +0.186 A 
ATOM     10  C   LIG A   1      -7.006   0.290 124.658  0.00  0.00    +0.164 A 
ATOM     11  C   LIG A   1      -5.841   0.477 125.399  0.00  0.00    +0.050 A 
ATOM     12  C   LIG A   1      -5.578  -0.328 126.499  0.00  0.00    +0.017 A 
ATOM     13  O   LIG A   1      -4.951  -1.880 128.685  0.00  0.00    -0.481 OA
ATOM     14  C   LIG A   1      -4.489  -2.753 129.741  0.00  0.00    +0.123 C 
ATOM     15  C   LIG A   1      -5.576  -3.591 130.371  0.00  0.00    +0.020 C 
ATOM     16  C   LIG A   1      -6.786  -3.702 129.811  0.00  0.00    +0.016 C 
ATOM     17  C   LIG A   1      -3.417  -3.669 129.138  0.00  0.00    +0.060 C 
ATOM     18  C   LIG A   1      -3.856  -1.837 130.794  0.00  0.00    +0.060 C 
ENDROOT
BRANCH   9  19
ATOM     19  O   LIG A   1      -9.124  -0.895 124.378  0.00  0.00    -0.489 OA
ATOM     20  C   LIG A   1      -9.085  -1.324 123.020  0.00  0.00    +0.277 C 
ENDBRANCH   9  19
BRANCH  10  21
ATOM     21  O   LIG A   1      -7.343   1.141 123.634  0.00  0.00    -0.491 OA
ATOM     22  C   LIG A   1      -7.825   2.427 124.018  0.00  0.00    +0.277 C 
ENDBRANCH  10  21
TORSDOF 2
ENDMDL
MODEL 4
REMARK VINA RESULT:      -6.8      2.122      6.104
REMARK  Name = NuBBE_942
REMARK  7 active torsions:
REMARK  status: ('A' for Active; 'I' for Inactive)
REMARK    1  A    between atoms: N_7  and  C_8
REMARK    2  A    between atoms: C_9  and  O_10
REMARK    3  A    between atoms: O_10  and  C_11
REMARK    4  A    between atoms: C_12  and  O_15
REMARK    5  A    between atoms: O_15  and  C_16
REMARK    6  A    between atoms: C_18  and  C_21
REMARK    7  A    between atoms: C_18  and  C_22
REMARK                            x       y       z     vdW  Elec       q    Type
REMARK                         _______ _______ _______ _____ _____    ______ ____
ROOT
ATOM      1  O   LIG A   1      -8.729   2.154 126.584  0.00  0.00    -0.267 OA
ATOM      2  C   LIG A   1      -8.481   1.001 126.934  0.00  0.00    +0.262 A 
ATOM      3  C   LIG A   1      -8.585  -0.097 125.928  0.00  0.00    +0.082 A 
ATOM      4  C   LIG A   1      -8.332  -1.364 126.279  0.00  0.00    +0.143 A 
ATOM      5  C   LIG A   1      -8.039  -1.713 127.677  0.00  0.00    +0.045 A 
ATOM      6  C   LIG A   1      -7.915  -0.706 128.658  0.00  0.00    +0.101 A 
ATOM      7  N   LIG A   1      -8.070   0.665 128.225  0.00  0.00    -0.307 N 
ATOM      8  C   LIG A   1      -7.829   1.773 129.134  0.00  0.00    +0.152 C 
ATOM      9  C   LIG A   1      -7.658  -1.101 130.007  0.00  0.00    +0.186 A 
ATOM     10  C   LIG A   1      -7.552  -2.473 130.344  0.00  0.00    +0.164 A 
ATOM     11  C   LIG A   1      -7.677  -3.442 129.350  0.00  0.00    +0.050 A 
ATOM     12  C   LIG A   1      -7.910  -3.065 128.034  0.00  0.00    +0.017 A 
ATOM     13  O   LIG A   1      -8.352  -2.425 125.393  0.00  0.00    -0.481 OA
ATOM     14  C   LIG A   1      -8.429  -2.155 123.975  0.00  0.00    +0.123 C 
ATOM     15  C   LIG A   1      -8.896  -0.759 123.635  0.00  0.00    +0.020 C 
ATOM     16  C   LIG A   1      -8.961   0.201 124.564  0.00  0.00    +0.016 C 
ATOM     17  C   LIG A   1      -7.031  -2.387 123.390  0.00  0.00    +0.060 C 
ATOM     18  C   LIG A   1      -9.408  -3.188 123.404  0.00  0.00    +0.060 C 
ENDROOT
BRANCH   9  19
ATOM     19  O   LIG A   1      -7.626  -0.113 130.966  0.00  0.00    -0.489 OA
ATOM     20  C   LIG A   1      -8.761   0.016 131.818  0.00  0.00    +0.277 C 
ENDBRANCH   9  19
BRANCH  10  21
ATOM     21  O   LIG A   1      -7.431  -2.822 131.666  0.00  0.00    -0.491 OA
ATOM     22  C   LIG A   1      -6.266  -3.564 132.018  0.00  0.00    +0.277 C 
ENDBRANCH  10  21
TORSDOF 2
ENDMDL
MODEL 5
REMARK VINA RESULT:      -6.7      8.531     10.344
REMARK  Name = NuBBE_942
REMARK  7 active torsions:
REMARK  status: ('A' for Active; 'I' for Inactive)
REMARK    1  A    between atoms: N_7  and  C_8
REMARK    2  A    between atoms: C_9  and  O_10
REMARK    3  A    between atoms: O_10  and  C_11
REMARK    4  A    between atoms: C_12  and  O_15
REMARK    5  A    between atoms: O_15  and  C_16
REMARK    6  A    between atoms: C_18  and  C_21
REMARK    7  A    between atoms: C_18  and  C_22
REMARK                            x       y       z     vdW  Elec       q    Type
REMARK                         _______ _______ _______ _____ _____    ______ ____
ROOT
ATOM      1  O   LIG A   1      -4.169   5.165 134.025  0.00  0.00    -0.267 OA
ATOM      2  C   LIG A   1      -5.044   5.555 133.253  0.00  0.00    +0.262 A 
ATOM      3  C   LIG A   1      -4.674   6.504 132.162  0.00  0.00    +0.082 A 
ATOM      4  C   LIG A   1      -5.605   6.954 131.311  0.00  0.00    +0.143 A 
ATOM      5  C   LIG A   1      -7.021   6.601 131.488  0.00  0.00    +0.045 A 
ATOM      6  C   LIG A   1      -7.413   5.694 132.495  0.00  0.00    +0.101 A 
ATOM      7  N   LIG A   1      -6.371   5.126 133.320  0.00  0.00    -0.307 N 
ATOM      8  C   LIG A   1      -6.664   4.086 134.293  0.00  0.00    +0.152 C 
ATOM      9  C   LIG A   1      -8.806   5.406 132.644  0.00  0.00    +0.186 A 
ATOM     10  C   LIG A   1      -9.760   6.036 131.808  0.00  0.00    +0.164 A 
ATOM     11  C   LIG A   1      -9.338   6.925 130.821  0.00  0.00    +0.050 A 
ATOM     12  C   LIG A   1      -7.985   7.196 130.659  0.00  0.00    +0.017 A 
ATOM     13  O   LIG A   1      -5.329   7.789 130.243  0.00  0.00    -0.481 OA
ATOM     14  C   LIG A   1      -3.952   8.024 129.872  0.00  0.00    +0.123 C 
ATOM     15  C   LIG A   1      -2.952   7.664 130.945  0.00  0.00    +0.020 C 
ATOM     16  C   LIG A   1      -3.304   6.944 132.016  0.00  0.00    +0.016 C 
ATOM     17  C   LIG A   1      -3.673   7.200 128.610  0.00  0.00    +0.060 C 
ATOM     18  C   LIG A   1      -3.855   9.519 129.547  0.00  0.00    +0.060 C 
ENDROOT
BRANCH   9  19
ATOM     19  O   LIG A   1      -9.180   4.588 133.686  0.00  0.00    -0.489 OA
ATOM     20  C   LIG A   1      -9.483   3.229 133.381  0.00  0.00    +0.277 C 
ENDBRANCH   9  19
BRANCH  10  21
ATOM     21  O   LIG A   1     -11.095   5.834 132.060  0.00  0.00    -0.491 OA
ATOM     22  C   LIG A   1     -12.007   6.495 131.186  0.00  0.00    +0.277 C 
ENDBRANCH  10  21
TORSDOF 2
ENDMDL
MODEL 6
REMARK VINA RESULT:      -6.6      2.464      5.159
REMARK  Name = NuBBE_942
REMARK  7 active torsions:
REMARK  status: ('A' for Active; 'I' for Inactive)
REMARK    1  A    between atoms: N_7  and  C_8
REMARK    2  A    between atoms: C_9  and  O_10
REMARK    3  A    between atoms: O_10  and  C_11
REMARK    4  A    between atoms: C_12  and  O_15
REMARK    5  A    between atoms: O_15  and  C_16
REMARK    6  A    between atoms: C_18  and  C_21
REMARK    7  A    between atoms: C_18  and  C_22
REMARK                            x       y       z     vdW  Elec       q    Type
REMARK                         _______ _______ _______ _____ _____    ______ ____
ROOT
ATOM      1  O   LIG A   1      -4.779   0.493 129.245  0.00  0.00    -0.267 OA
ATOM      2  C   LIG A   1      -5.606  -0.394 129.040  0.00  0.00    +0.262 A 
ATOM      3  C   LIG A   1      -5.628  -1.583 129.943  0.00  0.00    +0.082 A 
ATOM      4  C   LIG A   1      -6.509  -2.571 129.741  0.00  0.00    +0.143 A 
ATOM      5  C   LIG A   1      -7.406  -2.553 128.576  0.00  0.00    +0.045 A 
ATOM      6  C   LIG A   1      -7.431  -1.441 127.706  0.00  0.00    +0.101 A 
ATOM      7  N   LIG A   1      -6.557  -0.333 128.021  0.00  0.00    -0.307 N 
ATOM      8  C   LIG A   1      -6.609   0.905 127.261  0.00  0.00    +0.152 C 
ATOM      9  C   LIG A   1      -8.301  -1.486 126.573  0.00  0.00    +0.186 A 
ATOM     10  C   LIG A   1      -9.099  -2.630 126.328  0.00  0.00    +0.164 A 
ATOM     11  C   LIG A   1      -9.053  -3.709 127.208  0.00  0.00    +0.050 A 
ATOM     12  C   LIG A   1      -8.223  -3.666 128.322  0.00  0.00    +0.017 A 
ATOM     13  O   LIG A   1      -6.627  -3.675 130.565  0.00  0.00    -0.481 OA
ATOM     14  C   LIG A   1      -5.935  -3.682 131.834  0.00  0.00    +0.123 C 
ATOM     15  C   LIG A   1      -4.827  -2.661 131.940  0.00  0.00    +0.020 C 
ATOM     16  C   LIG A   1      -4.696  -1.676 131.045  0.00  0.00    +0.016 C 
ATOM     17  C   LIG A   1      -6.981  -3.421 132.925  0.00  0.00    +0.060 C 
ATOM     18  C   LIG A   1      -5.363  -5.095 131.991  0.00  0.00    +0.060 C 
ENDROOT
BRANCH   9  19
ATOM     19  O   LIG A   1      -8.249  -0.432 125.688  0.00  0.00    -0.489 OA
ATOM     20  C   LIG A   1      -9.417   0.372 125.552  0.00  0.00    +0.277 C 
ENDBRANCH   9  19
BRANCH  10  21
ATOM     21  O   LIG A   1      -9.827  -2.691 125.165  0.00  0.00    -0.491 OA
ATOM     22  C   LIG A   1      -9.199  -3.344 124.064  0.00  0.00    +0.277 C 
ENDBRANCH  10  21
TORSDOF 2
ENDMDL
MODEL 7
REMARK VINA RESULT:      -6.1      3.209      5.801
REMARK  Name = NuBBE_942
REMARK  7 active torsions:
REMARK  status: ('A' for Active; 'I' for Inactive)
REMARK    1  A    between atoms: N_7  and  C_8
REMARK    2  A    between atoms: C_9  and  O_10
REMARK    3  A    between atoms: O_10  and  C_11
REMARK    4  A    between atoms: C_12  and  O_15
REMARK    5  A    between atoms: O_15  and  C_16
REMARK    6  A    between atoms: C_18  and  C_21
REMARK    7  A    between atoms: C_18  and  C_22
REMARK                            x       y       z     vdW  Elec       q    Type
REMARK                         _______ _______ _______ _____ _____    ______ ____
ROOT
ATOM      1  O   LIG A   1      -7.349   1.383 128.106  0.00  0.00    -0.267 OA
ATOM      2  C   LIG A   1      -6.858   1.992 127.157  0.00  0.00    +0.262 A 
ATOM      3  C   LIG A   1      -5.852   3.061 127.428  0.00  0.00    +0.082 A 
ATOM      4  C   LIG A   1      -5.305   3.750 126.418  0.00  0.00    +0.143 A 
ATOM      5  C   LIG A   1      -5.750   3.535 125.033  0.00  0.00    +0.045 A 
ATOM      6  C   LIG A   1      -6.686   2.523 124.729  0.00  0.00    +0.101 A 
ATOM      7  N   LIG A   1      -7.166   1.712 125.825  0.00  0.00    -0.307 N 
ATOM      8  C   LIG A   1      -8.027   0.564 125.590  0.00  0.00    +0.152 C 
ATOM      9  C   LIG A   1      -7.106   2.375 123.371  0.00  0.00    +0.186 A 
ATOM     10  C   LIG A   1      -6.604   3.240 122.367  0.00  0.00    +0.164 A 
ATOM     11  C   LIG A   1      -5.679   4.226 122.702  0.00  0.00    +0.050 A 
ATOM     12  C   LIG A   1      -5.252   4.365 124.017  0.00  0.00    +0.017 A 
ATOM     13  O   LIG A   1      -4.328   4.714 126.586  0.00  0.00    -0.481 OA
ATOM     14  C   LIG A   1      -3.689   4.850 127.876  0.00  0.00    +0.123 C 
ATOM     15  C   LIG A   1      -4.446   4.204 129.012  0.00  0.00    +0.020 C 
ATOM     16  C   LIG A   1      -5.460   3.362 128.788  0.00  0.00    +0.016 C 
ATOM     17  C   LIG A   1      -2.296   4.221 127.762  0.00  0.00    +0.060 C 
ATOM     18  C   LIG A   1      -3.559   6.357 128.122  0.00  0.00    +0.060 C 
ENDROOT
BRANCH   9  19
ATOM     19  O   LIG A   1      -8.084   1.442 123.104  0.00  0.00    -0.489 OA
ATOM     20  C   LIG A   1      -9.401   1.923 122.849  0.00  0.00    +0.277 C 
ENDBRANCH   9  19
BRANCH  10  21
ATOM     21  O   LIG A   1      -7.123   3.151 121.099  0.00  0.00    -0.491 OA
ATOM     22  C   LIG A   1      -6.594   4.062 120.138  0.00  0.00    +0.277 C 
ENDBRANCH  10  21
TORSDOF 2
ENDMDL
MODEL 8
REMARK VINA RESULT:      -6.1      2.354      4.445
REMARK  Name = NuBBE_942
REMARK  7 active torsions:
REMARK  status: ('A' for Active; 'I' for Inactive)
REMARK    1  A    between atoms: N_7  and  C_8
REMARK    2  A    between atoms: C_9  and  O_10
REMARK    3  A    between atoms: O_10  and  C_11
REMARK    4  A    between atoms: C_12  and  O_15
REMARK    5  A    between atoms: O_15  and  C_16
REMARK    6  A    between atoms: C_18  and  C_21
REMARK    7  A    between atoms: C_18  and  C_22
REMARK                            x       y       z     vdW  Elec       q    Type
REMARK                         _______ _______ _______ _____ _____    ______ ____
ROOT
ATOM      1  O   LIG A   1      -8.245   2.091 123.333  0.00  0.00    -0.267 OA
ATOM      2  C   LIG A   1      -8.073   1.517 124.408  0.00  0.00    +0.262 A 
ATOM      3  C   LIG A   1      -7.818   0.046 124.408  0.00  0.00    +0.082 A 
ATOM      4  C   LIG A   1      -7.638  -0.611 125.561  0.00  0.00    +0.143 A 
ATOM      5  C   LIG A   1      -7.780   0.081 126.851  0.00  0.00    +0.045 A 
ATOM      6  C   LIG A   1      -8.004   1.474 126.898  0.00  0.00    +0.101 A 
ATOM      7  N   LIG A   1      -8.070   2.178 125.637  0.00  0.00    -0.307 N 
ATOM      8  C   LIG A   1      -8.164   3.628 125.589  0.00  0.00    +0.152 C 
ATOM      9  C   LIG A   1      -8.163   2.093 128.176  0.00  0.00    +0.186 A 
ATOM     10  C   LIG A   1      -8.114   1.315 129.359  0.00  0.00    +0.164 A 
ATOM     11  C   LIG A   1      -7.888  -0.058 129.278  0.00  0.00    +0.050 A 
ATOM     12  C   LIG A   1      -7.715  -0.663 128.039  0.00  0.00    +0.017 A 
ATOM     13  O   LIG A   1      -7.342  -1.959 125.639  0.00  0.00    -0.481 OA
ATOM     14  C   LIG A   1      -6.987  -2.672 124.433  0.00  0.00    +0.123 C 
ATOM     15  C   LIG A   1      -7.378  -1.963 123.157  0.00  0.00    +0.020 C 
ATOM     16  C   LIG A   1      -7.764  -0.682 123.160  0.00  0.00    +0.016 C 
ATOM     17  C   LIG A   1      -5.468  -2.883 124.459  0.00  0.00    +0.060 C 
ATOM     18  C   LIG A   1      -7.700  -4.025 124.520  0.00  0.00    +0.060 C 
ENDROOT
BRANCH   9  19
ATOM     19  O   LIG A   1      -8.467   3.436 128.201  0.00  0.00    -0.489 OA
ATOM     20  C   LIG A   1      -7.524   4.314 128.808  0.00  0.00    +0.277 C 
ENDBRANCH   9  19
BRANCH  10  21
ATOM     21  O   LIG A   1      -8.396   1.919 130.559  0.00  0.00    -0.491 OA
ATOM     22  C   LIG A   1      -8.984   1.090 131.559  0.00  0.00    +0.277 C 
ENDBRANCH  10  21
TORSDOF 2
ENDMDL
MODEL 9
REMARK VINA RESULT:      -6.0      2.938      5.287
REMARK  Name = NuBBE_942
REMARK  7 active torsions:
REMARK  status: ('A' for Active; 'I' for Inactive)
REMARK    1  A    between atoms: N_7  and  C_8
REMARK    2  A    between atoms: C_9  and  O_10
REMARK    3  A    between atoms: O_10  and  C_11
REMARK    4  A    between atoms: C_12  and  O_15
REMARK    5  A    between atoms: O_15  and  C_16
REMARK    6  A    between atoms: C_18  and  C_21
REMARK    7  A    between atoms: C_18  and  C_22
REMARK                            x       y       z     vdW  Elec       q    Type
REMARK                         _______ _______ _______ _____ _____    ______ ____
ROOT
ATOM      1  O   LIG A   1      -8.696  -3.942 128.136  0.00  0.00    -0.267 OA
ATOM      2  C   LIG A   1      -8.071  -2.936 127.802  0.00  0.00    +0.262 A 
ATOM      3  C   LIG A   1      -7.916  -2.632 126.349  0.00  0.00    +0.082 A 
ATOM      4  C   LIG A   1      -7.233  -1.551 125.951  0.00  0.00    +0.143 A 
ATOM      5  C   LIG A   1      -6.545  -0.695 126.929  0.00  0.00    +0.045 A 
ATOM      6  C   LIG A   1      -6.678  -0.935 128.313  0.00  0.00    +0.101 A 
ATOM      7  N   LIG A   1      -7.524  -2.036 128.717  0.00  0.00    -0.307 N 
ATOM      8  C   LIG A   1      -7.827  -2.277 130.118  0.00  0.00    +0.152 C 
ATOM      9  C   LIG A   1      -5.965  -0.091 129.220  0.00  0.00    +0.186 A 
ATOM     10  C   LIG A   1      -5.133   0.946 128.729  0.00  0.00    +0.164 A 
ATOM     11  C   LIG A   1      -5.026   1.157 127.356  0.00  0.00    +0.050 A 
ATOM     12  C   LIG A   1      -5.730   0.352 126.469  0.00  0.00    +0.017 A 
ATOM     13  O   LIG A   1      -7.094  -1.174 124.628  0.00  0.00    -0.481 OA
ATOM     14  C   LIG A   1      -7.897  -1.831 123.622  0.00  0.00    +0.123 C 
ATOM     15  C   LIG A   1      -8.498  -3.143 124.069  0.00  0.00    +0.020 C 
ATOM     16  C   LIG A   1      -8.503  -3.506 125.357  0.00  0.00    +0.016 C 
ATOM     17  C   LIG A   1      -9.015  -0.861 123.225  0.00  0.00    +0.060 C 
ATOM     18  C   LIG A   1      -6.964  -2.064 122.428  0.00  0.00    +0.060 C 
ENDROOT
BRANCH   9  19
ATOM     19  O   LIG A   1      -6.037  -0.392 130.562  0.00  0.00    -0.489 OA
ATOM     20  C   LIG A   1      -4.902  -1.014 131.158  0.00  0.00    +0.277 C 
ENDBRANCH   9  19
BRANCH  10  21
ATOM     21  O   LIG A   1      -4.366   1.654 129.620  0.00  0.00    -0.491 OA
ATOM     22  C   LIG A   1      -4.384   3.073 129.477  0.00  0.00    +0.277 C 
ENDBRANCH  10  21
TORSDOF 2
ENDMDL
