MODEL 1
REMARK VINA RESULT:      -7.3      0.000      0.000
REMARK  Name = NuBBE_1224
REMARK  8 active torsions:
REMARK  status: ('A' for Active; 'I' for Inactive)
REMARK    1  A    between atoms: C_3  and  O_4
REMARK    2  A    between atoms: O_4  and  C_5
REMARK    3  A    between atoms: C_6  and  C_16
REMARK    4  A    between atoms: C_10  and  O_11
REMARK    5  A    between atoms: C_13  and  O_14
REMARK    6  A    between atoms: C_18  and  O_19
REMARK    7  A    between atoms: O_19  and  C_20
REMARK    8  A    between atoms: C_21  and  O_24
REMARK                            x       y       z     vdW  Elec       q    Type
REMARK                         _______ _______ _______ _____ _____    ______ ____
ROOT
ATOM      1  O   LIG A   1      -9.990   0.546 125.097  0.00  0.00    -0.283 OA
ATOM      2  C   LIG A   1      -8.899   0.573 124.528  0.00  0.00    +0.238 A 
ATOM      3  C   LIG A   1      -8.280   1.813 123.969  0.00  0.00    +0.211 A 
ATOM      4  C   LIG A   1      -7.092   1.669 123.347  0.00  0.00    +0.181 A 
ATOM      5  O   LIG A   1      -6.397   0.486 123.191  0.00  0.00    -0.451 OA
ATOM      6  C   LIG A   1      -6.935  -0.660 123.709  0.00  0.00    +0.146 A 
ATOM      7  C   LIG A   1      -8.154  -0.685 124.377  0.00  0.00    +0.109 A 
ATOM      8  C   LIG A   1      -8.642  -1.898 124.883  0.00  0.00    +0.135 A 
ATOM      9  C   LIG A   1      -7.916  -3.075 124.720  0.00  0.00    +0.091 A 
ATOM     10  C   LIG A   1      -6.698  -3.033 124.046  0.00  0.00    +0.124 A 
ATOM     11  C   LIG A   1      -6.203  -1.835 123.539  0.00  0.00    +0.092 A 
ENDROOT
BRANCH   4  12
ATOM     12  C   LIG A   1      -6.387   2.814 122.750  0.00  0.00    +0.025 A 
ATOM     13  C   LIG A   1      -6.554   3.109 121.388  0.00  0.00    +0.061 A 
ATOM     14  C   LIG A   1      -5.869   4.180 120.812  0.00  0.00    +0.162 A 
ATOM     15  C   LIG A   1      -5.026   4.955 121.617  0.00  0.00    +0.159 A 
ATOM     16  C   LIG A   1      -4.853   4.676 122.967  0.00  0.00    +0.050 A 
ATOM     17  C   LIG A   1      -5.535   3.601 123.535  0.00  0.00    +0.015 A 
BRANCH  14  18
ATOM     18  O   LIG A   1      -5.933   4.562 119.495  0.00  0.00    -0.491 OA
ATOM     19  C   LIG A   1      -7.225   4.535 118.897  0.00  0.00    +0.277 C 
ENDBRANCH  14  18
BRANCH  15  20
ATOM     20  O   LIG A   1      -4.350   6.018 121.085  0.00  0.00    -0.503 OA
ATOM     21  H   LIG A   1      -4.425   5.908 120.118  0.00  0.00    +0.292 HD
ENDBRANCH  15  20
ENDBRANCH   4  12
BRANCH   3  22
ATOM     22  O   LIG A   1      -8.892   3.056 124.036  0.00  0.00    -0.488 OA
ATOM     23  C   LIG A   1      -8.590   3.853 125.175  0.00  0.00    +0.277 C 
ENDBRANCH   3  22
BRANCH   8  24
ATOM     24  O   LIG A   1      -9.832  -2.004 125.551  0.00  0.00    -0.506 OA
ATOM     25  H   LIG A   1      -9.984  -1.162 126.040  0.00  0.00    +0.292 HD
ENDBRANCH   8  24
BRANCH  10  26
ATOM     26  O   LIG A   1      -5.952  -4.157 123.858  0.00  0.00    -0.506 OA
ATOM     27  H   LIG A   1      -5.016  -3.904 123.775  0.00  0.00    +0.292 HD
ENDBRANCH  10  26
TORSDOF 6
ENDMDL
MODEL 2
REMARK VINA RESULT:      -7.0      7.891     10.163
REMARK  Name = NuBBE_1224
REMARK  8 active torsions:
REMARK  status: ('A' for Active; 'I' for Inactive)
REMARK    1  A    between atoms: C_3  and  O_4
REMARK    2  A    between atoms: O_4  and  C_5
REMARK    3  A    between atoms: C_6  and  C_16
REMARK    4  A    between atoms: C_10  and  O_11
REMARK    5  A    between atoms: C_13  and  O_14
REMARK    6  A    between atoms: C_18  and  O_19
REMARK    7  A    between atoms: O_19  and  C_20
REMARK    8  A    between atoms: C_21  and  O_24
REMARK                            x       y       z     vdW  Elec       q    Type
REMARK                         _______ _______ _______ _____ _____    ______ ____
ROOT
ATOM      1  O   LIG A   1      -9.967   5.222 133.033  0.00  0.00    -0.283 OA
ATOM      2  C   LIG A   1      -9.315   5.778 132.149  0.00  0.00    +0.238 A 
ATOM      3  C   LIG A   1      -7.828   5.688 132.029  0.00  0.00    +0.211 A 
ATOM      4  C   LIG A   1      -7.260   6.380 131.020  0.00  0.00    +0.181 A 
ATOM      5  O   LIG A   1      -7.928   7.152 130.090  0.00  0.00    -0.451 OA
ATOM      6  C   LIG A   1      -9.291   7.235 130.169  0.00  0.00    +0.146 A 
ATOM      7  C   LIG A   1     -10.030   6.584 131.150  0.00  0.00    +0.109 A 
ATOM      8  C   LIG A   1     -11.425   6.716 131.167  0.00  0.00    +0.135 A 
ATOM      9  C   LIG A   1     -12.074   7.492 130.210  0.00  0.00    +0.091 A 
ATOM     10  C   LIG A   1     -11.319   8.139 129.235  0.00  0.00    +0.124 A 
ATOM     11  C   LIG A   1      -9.933   8.016 129.207  0.00  0.00    +0.092 A 
ENDROOT
BRANCH   4  12
ATOM     12  C   LIG A   1      -5.805   6.378 130.803  0.00  0.00    +0.025 A 
ATOM     13  C   LIG A   1      -5.228   5.452 129.921  0.00  0.00    +0.061 A 
ATOM     14  C   LIG A   1      -3.845   5.430 129.729  0.00  0.00    +0.162 A 
ATOM     15  C   LIG A   1      -3.053   6.351 130.424  0.00  0.00    +0.159 A 
ATOM     16  C   LIG A   1      -3.610   7.275 131.299  0.00  0.00    +0.050 A 
ATOM     17  C   LIG A   1      -4.991   7.287 131.491  0.00  0.00    +0.015 A 
BRANCH  14  18
ATOM     18  O   LIG A   1      -3.159   4.569 128.911  0.00  0.00    -0.491 OA
ATOM     19  C   LIG A   1      -3.292   4.794 127.511  0.00  0.00    +0.277 C 
ENDBRANCH  14  18
BRANCH  15  20
ATOM     20  O   LIG A   1      -1.696   6.363 130.251  0.00  0.00    -0.503 OA
ATOM     21  H   LIG A   1      -1.533   7.052 129.577  0.00  0.00    +0.292 HD
ENDBRANCH  15  20
ENDBRANCH   4  12
BRANCH   3  22
ATOM     22  O   LIG A   1      -7.043   4.971 132.919  0.00  0.00    -0.488 OA
ATOM     23  C   LIG A   1      -6.995   3.561 132.731  0.00  0.00    +0.277 C 
ENDBRANCH   3  22
BRANCH   8  24
ATOM     24  O   LIG A   1     -12.221   6.107 132.100  0.00  0.00    -0.506 OA
ATOM     25  H   LIG A   1     -11.641   5.596 132.710  0.00  0.00    +0.292 HD
ENDBRANCH   8  24
BRANCH  10  26
ATOM     26  O   LIG A   1     -11.906   8.911 128.279  0.00  0.00    -0.506 OA
ATOM     27  H   LIG A   1     -11.237   9.510 127.903  0.00  0.00    +0.292 HD
ENDBRANCH  10  26
TORSDOF 6
ENDMDL
MODEL 3
REMARK VINA RESULT:      -6.8      8.408     10.895
REMARK  Name = NuBBE_1224
REMARK  8 active torsions:
REMARK  status: ('A' for Active; 'I' for Inactive)
REMARK    1  A    between atoms: C_3  and  O_4
REMARK    2  A    between atoms: O_4  and  C_5
REMARK    3  A    between atoms: C_6  and  C_16
REMARK    4  A    between atoms: C_10  and  O_11
REMARK    5  A    between atoms: C_13  and  O_14
REMARK    6  A    between atoms: C_18  and  O_19
REMARK    7  A    between atoms: O_19  and  C_20
REMARK    8  A    between atoms: C_21  and  O_24
REMARK                            x       y       z     vdW  Elec       q    Type
REMARK                         _______ _______ _______ _____ _____    ______ ____
ROOT
ATOM      1  O   LIG A   1      -8.135   2.448 131.867  0.00  0.00    -0.283 OA
ATOM      2  C   LIG A   1      -8.486   3.590 132.169  0.00  0.00    +0.238 A 
ATOM      3  C   LIG A   1      -9.446   4.406 131.367  0.00  0.00    +0.211 A 
ATOM      4  C   LIG A   1      -9.704   5.651 131.817  0.00  0.00    +0.181 A 
ATOM      5  O   LIG A   1      -9.170   6.230 132.951  0.00  0.00    -0.451 OA
ATOM      6  C   LIG A   1      -8.302   5.495 133.712  0.00  0.00    +0.146 A 
ATOM      7  C   LIG A   1      -7.928   4.196 133.386  0.00  0.00    +0.109 A 
ATOM      8  C   LIG A   1      -7.034   3.504 134.214  0.00  0.00    +0.135 A 
ATOM      9  C   LIG A   1      -6.518   4.108 135.358  0.00  0.00    +0.091 A 
ATOM     10  C   LIG A   1      -6.901   5.410 135.669  0.00  0.00    +0.124 A 
ATOM     11  C   LIG A   1      -7.788   6.108 134.855  0.00  0.00    +0.092 A 
ENDROOT
BRANCH   4  12
ATOM     12  C   LIG A   1     -10.626   6.554 131.110  0.00  0.00    +0.025 A 
ATOM     13  C   LIG A   1     -10.221   7.181 129.922  0.00  0.00    +0.061 A 
ATOM     14  C   LIG A   1     -11.084   8.057 129.260  0.00  0.00    +0.162 A 
ATOM     15  C   LIG A   1     -12.356   8.287 129.798  0.00  0.00    +0.159 A 
ATOM     16  C   LIG A   1     -12.771   7.672 130.972  0.00  0.00    +0.050 A 
ATOM     17  C   LIG A   1     -11.902   6.804 131.632  0.00  0.00    +0.015 A 
BRANCH  14  18
ATOM     18  O   LIG A   1     -10.805   8.742 128.105  0.00  0.00    -0.491 OA
ATOM     19  C   LIG A   1     -10.838   7.982 126.901  0.00  0.00    +0.277 C 
ENDBRANCH  14  18
BRANCH  15  20
ATOM     20  O   LIG A   1     -13.229   9.131 129.168  0.00  0.00    -0.503 OA
ATOM     21  H   LIG A   1     -12.705   9.556 128.461  0.00  0.00    +0.292 HD
ENDBRANCH  15  20
ENDBRANCH   4  12
BRANCH   3  22
ATOM     22  O   LIG A   1     -10.026   3.949 130.193  0.00  0.00    -0.488 OA
ATOM     23  C   LIG A   1     -11.248   3.231 130.325  0.00  0.00    +0.277 C 
ENDBRANCH   3  22
BRANCH   8  24
ATOM     24  O   LIG A   1      -6.619   2.225 133.961  0.00  0.00    -0.506 OA
ATOM     25  H   LIG A   1      -6.998   1.638 134.655  0.00  0.00    +0.292 HD
ENDBRANCH   8  24
BRANCH  10  26
ATOM     26  O   LIG A   1      -6.423   6.046 136.775  0.00  0.00    -0.506 OA
ATOM     27  H   LIG A   1      -7.074   6.708 137.064  0.00  0.00    +0.292 HD
ENDBRANCH  10  26
TORSDOF 6
ENDMDL
MODEL 4
REMARK VINA RESULT:      -6.8      3.448      7.890
REMARK  Name = NuBBE_1224
REMARK  8 active torsions:
REMARK  status: ('A' for Active; 'I' for Inactive)
REMARK    1  A    between atoms: C_3  and  O_4
REMARK    2  A    between atoms: O_4  and  C_5
REMARK    3  A    between atoms: C_6  and  C_16
REMARK    4  A    between atoms: C_10  and  O_11
REMARK    5  A    between atoms: C_13  and  O_14
REMARK    6  A    between atoms: C_18  and  O_19
REMARK    7  A    between atoms: O_19  and  C_20
REMARK    8  A    between atoms: C_21  and  O_24
REMARK                            x       y       z     vdW  Elec       q    Type
REMARK                         _______ _______ _______ _____ _____    ______ ____
ROOT
ATOM      1  O   LIG A   1      -9.710  -1.829 123.425  0.00  0.00    -0.283 OA
ATOM      2  C   LIG A   1      -9.128  -1.341 124.395  0.00  0.00    +0.238 A 
ATOM      3  C   LIG A   1      -8.578  -2.144 125.528  0.00  0.00    +0.211 A 
ATOM      4  C   LIG A   1      -7.994  -1.456 126.530  0.00  0.00    +0.181 A 
ATOM      5  O   LIG A   1      -7.852  -0.084 126.595  0.00  0.00    -0.451 OA
ATOM      6  C   LIG A   1      -8.332   0.672 125.561  0.00  0.00    +0.146 A 
ATOM      7  C   LIG A   1      -8.963   0.118 124.453  0.00  0.00    +0.109 A 
ATOM      8  C   LIG A   1      -9.429   0.956 123.431  0.00  0.00    +0.135 A 
ATOM      9  C   LIG A   1      -9.262   2.337 123.517  0.00  0.00    +0.091 A 
ATOM     10  C   LIG A   1      -8.630   2.875 124.635  0.00  0.00    +0.124 A 
ATOM     11  C   LIG A   1      -8.163   2.053 125.657  0.00  0.00    +0.092 A 
ENDROOT
BRANCH   4  12
ATOM     12  C   LIG A   1      -7.422  -2.134 127.704  0.00  0.00    +0.025 A 
ATOM     13  C   LIG A   1      -6.031  -2.266 127.830  0.00  0.00    +0.061 A 
ATOM     14  C   LIG A   1      -5.485  -2.929 128.932  0.00  0.00    +0.162 A 
ATOM     15  C   LIG A   1      -6.349  -3.447 129.904  0.00  0.00    +0.159 A 
ATOM     16  C   LIG A   1      -7.727  -3.322 129.793  0.00  0.00    +0.050 A 
ATOM     17  C   LIG A   1      -8.266  -2.665 128.688  0.00  0.00    +0.015 A 
BRANCH  14  18
ATOM     18  O   LIG A   1      -4.149  -3.138 129.164  0.00  0.00    -0.491 OA
ATOM     19  C   LIG A   1      -3.469  -2.113 129.879  0.00  0.00    +0.277 C 
ENDBRANCH  14  18
BRANCH  15  20
ATOM     20  O   LIG A   1      -5.845  -4.092 131.000  0.00  0.00    -0.503 OA
ATOM     21  H   LIG A   1      -5.984  -3.474 131.744  0.00  0.00    +0.292 HD
ENDBRANCH  15  20
ENDBRANCH   4  12
BRANCH   3  22
ATOM     22  O   LIG A   1      -8.685  -3.526 125.593  0.00  0.00    -0.488 OA
ATOM     23  C   LIG A   1      -7.841  -4.271 124.723  0.00  0.00    +0.277 C 
ENDBRANCH   3  22
BRANCH   8  24
ATOM     24  O   LIG A   1     -10.060   0.488 122.310  0.00  0.00    -0.506 OA
ATOM     25  H   LIG A   1     -10.488  -0.370 122.536  0.00  0.00    +0.292 HD
ENDBRANCH   8  24
BRANCH  10  26
ATOM     26  O   LIG A   1      -8.446   4.218 124.768  0.00  0.00    -0.506 OA
ATOM     27  H   LIG A   1      -7.664   4.482 124.251  0.00  0.00    +0.292 HD
ENDBRANCH  10  26
TORSDOF 6
ENDMDL
MODEL 5
REMARK VINA RESULT:      -6.8      4.896      8.263
REMARK  Name = NuBBE_1224
REMARK  8 active torsions:
REMARK  status: ('A' for Active; 'I' for Inactive)
REMARK    1  A    between atoms: C_3  and  O_4
REMARK    2  A    between atoms: O_4  and  C_5
REMARK    3  A    between atoms: C_6  and  C_16
REMARK    4  A    between atoms: C_10  and  O_11
REMARK    5  A    between atoms: C_13  and  O_14
REMARK    6  A    between atoms: C_18  and  O_19
REMARK    7  A    between atoms: O_19  and  C_20
REMARK    8  A    between atoms: C_21  and  O_24
REMARK                            x       y       z     vdW  Elec       q    Type
REMARK                         _______ _______ _______ _____ _____    ______ ____
ROOT
ATOM      1  O   LIG A   1      -5.082  -0.829 125.535  0.00  0.00    -0.283 OA
ATOM      2  C   LIG A   1      -6.029  -1.295 126.169  0.00  0.00    +0.238 A 
ATOM      3  C   LIG A   1      -6.124  -1.276 127.660  0.00  0.00    +0.211 A 
ATOM      4  C   LIG A   1      -7.213  -1.855 128.204  0.00  0.00    +0.181 A 
ATOM      5  O   LIG A   1      -8.247  -2.451 127.509  0.00  0.00    -0.451 OA
ATOM      6  C   LIG A   1      -8.191  -2.466 126.143  0.00  0.00    +0.146 A 
ATOM      7  C   LIG A   1      -7.136  -1.914 125.426  0.00  0.00    +0.109 A 
ATOM      8  C   LIG A   1      -7.148  -1.965 124.025  0.00  0.00    +0.135 A 
ATOM      9  C   LIG A   1      -8.208  -2.563 123.349  0.00  0.00    +0.091 A 
ATOM     10  C   LIG A   1      -9.256  -3.113 124.082  0.00  0.00    +0.124 A 
ATOM     11  C   LIG A   1      -9.256  -3.069 125.473  0.00  0.00    +0.092 A 
ENDROOT
BRANCH   4  12
ATOM     12  C   LIG A   1      -7.416  -1.907 129.661  0.00  0.00    +0.025 A 
ATOM     13  C   LIG A   1      -8.032  -0.834 130.323  0.00  0.00    +0.061 A 
ATOM     14  C   LIG A   1      -8.206  -0.869 131.708  0.00  0.00    +0.162 A 
ATOM     15  C   LIG A   1      -7.764  -1.993 132.415  0.00  0.00    +0.159 A 
ATOM     16  C   LIG A   1      -7.154  -3.063 131.774  0.00  0.00    +0.050 A 
ATOM     17  C   LIG A   1      -6.978  -3.019 130.391  0.00  0.00    +0.015 A 
BRANCH  14  18
ATOM     18  O   LIG A   1      -8.777   0.117 132.472  0.00  0.00    -0.491 OA
ATOM     19  C   LIG A   1      -9.228   1.271 131.772  0.00  0.00    +0.277 C 
ENDBRANCH  14  18
BRANCH  15  20
ATOM     20  O   LIG A   1      -7.929  -2.063 133.771  0.00  0.00    -0.503 OA
ATOM     21  H   LIG A   1      -8.854  -1.788 133.929  0.00  0.00    +0.292 HD
ENDBRANCH  15  20
ENDBRANCH   4  12
BRANCH   3  22
ATOM     22  O   LIG A   1      -5.137  -0.734 128.471  0.00  0.00    -0.488 OA
ATOM     23  C   LIG A   1      -5.148   0.680 128.627  0.00  0.00    +0.277 C 
ENDBRANCH   3  22
BRANCH   8  24
ATOM     24  O   LIG A   1      -6.147  -1.445 123.250  0.00  0.00    -0.506 OA
ATOM     25  H   LIG A   1      -6.415  -0.539 122.972  0.00  0.00    +0.292 HD
ENDBRANCH   8  24
BRANCH  10  26
ATOM     26  O   LIG A   1     -10.315  -3.711 123.467  0.00  0.00    -0.506 OA
ATOM     27  H   LIG A   1     -10.101  -3.840 122.526  0.00  0.00    +0.292 HD
ENDBRANCH  10  26
TORSDOF 6
ENDMDL
MODEL 6
REMARK VINA RESULT:      -6.8      1.700      2.599
REMARK  Name = NuBBE_1224
REMARK  8 active torsions:
REMARK  status: ('A' for Active; 'I' for Inactive)
REMARK    1  A    between atoms: C_3  and  O_4
REMARK    2  A    between atoms: O_4  and  C_5
REMARK    3  A    between atoms: C_6  and  C_16
REMARK    4  A    between atoms: C_10  and  O_11
REMARK    5  A    between atoms: C_13  and  O_14
REMARK    6  A    between atoms: C_18  and  O_19
REMARK    7  A    between atoms: O_19  and  C_20
REMARK    8  A    between atoms: C_21  and  O_24
REMARK                            x       y       z     vdW  Elec       q    Type
REMARK                         _______ _______ _______ _____ _____    ______ ____
ROOT
ATOM      1  O   LIG A   1      -9.652  -2.009 125.048  0.00  0.00    -0.283 OA
ATOM      2  C   LIG A   1      -8.583  -1.417 124.891  0.00  0.00    +0.238 A 
ATOM      3  C   LIG A   1      -8.433   0.067 124.974  0.00  0.00    +0.211 A 
ATOM      4  C   LIG A   1      -7.200   0.564 124.747  0.00  0.00    +0.181 A 
ATOM      5  O   LIG A   1      -6.070  -0.174 124.457  0.00  0.00    -0.451 OA
ATOM      6  C   LIG A   1      -6.178  -1.536 124.393  0.00  0.00    +0.146 A 
ATOM      7  C   LIG A   1      -7.379  -2.207 124.599  0.00  0.00    +0.109 A 
ATOM      8  C   LIG A   1      -7.414  -3.606 124.518  0.00  0.00    +0.135 A 
ATOM      9  C   LIG A   1      -6.256  -4.326 124.234  0.00  0.00    +0.091 A 
ATOM     10  C   LIG A   1      -5.062  -3.639 124.029  0.00  0.00    +0.124 A 
ATOM     11  C   LIG A   1      -5.015  -2.250 124.106  0.00  0.00    +0.092 A 
ENDROOT
BRANCH   4  12
ATOM     12  C   LIG A   1      -6.927   2.009 124.793  0.00  0.00    +0.025 A 
ATOM     13  C   LIG A   1      -6.418   2.664 123.661  0.00  0.00    +0.061 A 
ATOM     14  C   LIG A   1      -6.136   4.031 123.707  0.00  0.00    +0.162 A 
ATOM     15  C   LIG A   1      -6.379   4.731 124.894  0.00  0.00    +0.159 A 
ATOM     16  C   LIG A   1      -6.885   4.096 126.022  0.00  0.00    +0.050 A 
ATOM     17  C   LIG A   1      -7.158   2.730 125.971  0.00  0.00    +0.015 A 
BRANCH  14  18
ATOM     18  O   LIG A   1      -5.624   4.781 122.679  0.00  0.00    -0.491 OA
ATOM     19  C   LIG A   1      -5.233   4.064 121.513  0.00  0.00    +0.277 C 
ENDBRANCH  14  18
BRANCH  15  20
ATOM     20  O   LIG A   1      -6.124   6.072 124.968  0.00  0.00    -0.503 OA
ATOM     21  H   LIG A   1      -6.248   6.404 124.058  0.00  0.00    +0.292 HD
ENDBRANCH  15  20
ENDBRANCH   4  12
BRANCH   3  22
ATOM     22  O   LIG A   1      -9.498   0.919 125.228  0.00  0.00    -0.488 OA
ATOM     23  C   LIG A   1     -10.267   1.329 124.103  0.00  0.00    +0.277 C 
ENDBRANCH   3  22
BRANCH   8  24
ATOM     24  O   LIG A   1      -8.555  -4.337 124.708  0.00  0.00    -0.506 OA
ATOM     25  H   LIG A   1      -8.307  -5.289 124.738  0.00  0.00    +0.292 HD
ENDBRANCH   8  24
BRANCH  10  26
ATOM     26  O   LIG A   1      -3.904  -4.298 123.746  0.00  0.00    -0.506 OA
ATOM     27  H   LIG A   1      -3.737  -4.956 124.443  0.00  0.00    +0.292 HD
ENDBRANCH  10  26
TORSDOF 6
ENDMDL
MODEL 7
REMARK VINA RESULT:      -6.6      4.062      7.807
REMARK  Name = NuBBE_1224
REMARK  8 active torsions:
REMARK  status: ('A' for Active; 'I' for Inactive)
REMARK    1  A    between atoms: C_3  and  O_4
REMARK    2  A    between atoms: O_4  and  C_5
REMARK    3  A    between atoms: C_6  and  C_16
REMARK    4  A    between atoms: C_10  and  O_11
REMARK    5  A    between atoms: C_13  and  O_14
REMARK    6  A    between atoms: C_18  and  O_19
REMARK    7  A    between atoms: O_19  and  C_20
REMARK    8  A    between atoms: C_21  and  O_24
REMARK                            x       y       z     vdW  Elec       q    Type
REMARK                         _______ _______ _______ _____ _____    ______ ____
ROOT
ATOM      1  O   LIG A   1      -8.120   2.957 127.277  0.00  0.00    -0.283 OA
ATOM      2  C   LIG A   1      -8.122   1.745 127.059  0.00  0.00    +0.238 A 
ATOM      3  C   LIG A   1      -7.591   0.727 128.015  0.00  0.00    +0.211 A 
ATOM      4  C   LIG A   1      -7.637  -0.560 127.615  0.00  0.00    +0.181 A 
ATOM      5  O   LIG A   1      -8.138  -1.018 126.413  0.00  0.00    -0.451 OA
ATOM      6  C   LIG A   1      -8.646  -0.106 125.528  0.00  0.00    +0.146 A 
ATOM      7  C   LIG A   1      -8.671   1.260 125.786  0.00  0.00    +0.109 A 
ATOM      8  C   LIG A   1      -9.208   2.135 124.832  0.00  0.00    +0.135 A 
ATOM      9  C   LIG A   1      -9.717   1.646 123.631  0.00  0.00    +0.091 A 
ATOM     10  C   LIG A   1      -9.682   0.275 123.388  0.00  0.00    +0.124 A 
ATOM     11  C   LIG A   1      -9.151  -0.604 124.327  0.00  0.00    +0.092 A 
ENDROOT
BRANCH   4  12
ATOM     12  C   LIG A   1      -7.138  -1.653 128.464  0.00  0.00    +0.025 A 
ATOM     13  C   LIG A   1      -5.802  -2.070 128.359  0.00  0.00    +0.061 A 
ATOM     14  C   LIG A   1      -5.329  -3.122 129.146  0.00  0.00    +0.162 A 
ATOM     15  C   LIG A   1      -6.208  -3.742 130.043  0.00  0.00    +0.159 A 
ATOM     16  C   LIG A   1      -7.532  -3.339 130.159  0.00  0.00    +0.050 A 
ATOM     17  C   LIG A   1      -7.999  -2.293 129.365  0.00  0.00    +0.015 A 
BRANCH  14  18
ATOM     18  O   LIG A   1      -4.056  -3.632 129.128  0.00  0.00    -0.491 OA
ATOM     19  C   LIG A   1      -3.037  -2.794 129.662  0.00  0.00    +0.277 C 
ENDBRANCH  14  18
BRANCH  15  20
ATOM     20  O   LIG A   1      -5.773  -4.768 130.835  0.00  0.00    -0.503 OA
ATOM     21  H   LIG A   1      -5.106  -5.238 130.298  0.00  0.00    +0.292 HD
ENDBRANCH  15  20
ENDBRANCH   4  12
BRANCH   3  22
ATOM     22  O   LIG A   1      -7.034   1.062 129.241  0.00  0.00    -0.488 OA
ATOM     23  C   LIG A   1      -7.945   1.352 130.295  0.00  0.00    +0.277 C 
ENDBRANCH   3  22
BRANCH   8  24
ATOM     24  O   LIG A   1      -9.268   3.491 125.011  0.00  0.00    -0.506 OA
ATOM     25  H   LIG A   1      -9.459   3.665 125.962  0.00  0.00    +0.292 HD
ENDBRANCH   8  24
BRANCH  10  26
ATOM     26  O   LIG A   1     -10.164  -0.252 122.228  0.00  0.00    -0.506 OA
ATOM     27  H   LIG A   1      -9.607   0.049 121.489  0.00  0.00    +0.292 HD
ENDBRANCH  10  26
TORSDOF 6
ENDMDL
MODEL 8
REMARK VINA RESULT:      -6.5      4.740      8.379
REMARK  Name = NuBBE_1224
REMARK  8 active torsions:
REMARK  status: ('A' for Active; 'I' for Inactive)
REMARK    1  A    between atoms: C_3  and  O_4
REMARK    2  A    between atoms: O_4  and  C_5
REMARK    3  A    between atoms: C_6  and  C_16
REMARK    4  A    between atoms: C_10  and  O_11
REMARK    5  A    between atoms: C_13  and  O_14
REMARK    6  A    between atoms: C_18  and  O_19
REMARK    7  A    between atoms: O_19  and  C_20
REMARK    8  A    between atoms: C_21  and  O_24
REMARK                            x       y       z     vdW  Elec       q    Type
REMARK                         _______ _______ _______ _____ _____    ______ ____
ROOT
ATOM      1  O   LIG A   1      -6.108   5.385 129.253  0.00  0.00    -0.283 OA
ATOM      2  C   LIG A   1      -7.047   4.588 129.223  0.00  0.00    +0.238 A 
ATOM      3  C   LIG A   1      -7.005   3.279 128.506  0.00  0.00    +0.211 A 
ATOM      4  C   LIG A   1      -8.129   2.533 128.543  0.00  0.00    +0.181 A 
ATOM      5  O   LIG A   1      -9.302   2.867 129.190  0.00  0.00    -0.451 OA
ATOM      6  C   LIG A   1      -9.358   4.053 129.869  0.00  0.00    +0.146 A 
ATOM      7  C   LIG A   1      -8.288   4.939 129.927  0.00  0.00    +0.109 A 
ATOM      8  C   LIG A   1      -8.419   6.137 130.643  0.00  0.00    +0.135 A 
ATOM      9  C   LIG A   1      -9.611   6.444 131.296  0.00  0.00    +0.091 A 
ATOM     10  C   LIG A   1     -10.673   5.547 131.226  0.00  0.00    +0.124 A 
ATOM     11  C   LIG A   1     -10.556   4.354 130.518  0.00  0.00    +0.092 A 
ENDROOT
BRANCH   4  12
ATOM     12  C   LIG A   1      -8.214   1.228 127.868  0.00  0.00    +0.025 A 
ATOM     13  C   LIG A   1      -8.848   1.123 126.621  0.00  0.00    +0.061 A 
ATOM     14  C   LIG A   1      -8.952  -0.117 125.988  0.00  0.00    +0.162 A 
ATOM     15  C   LIG A   1      -8.407  -1.243 126.615  0.00  0.00    +0.159 A 
ATOM     16  C   LIG A   1      -7.775  -1.154 127.848  0.00  0.00    +0.050 A 
ATOM     17  C   LIG A   1      -7.680   0.086 128.478  0.00  0.00    +0.015 A 
BRANCH  14  18
ATOM     18  O   LIG A   1      -9.558  -0.355 124.780  0.00  0.00    -0.491 OA
ATOM     19  C   LIG A   1      -8.996   0.310 123.654  0.00  0.00    +0.277 C 
ENDBRANCH  14  18
BRANCH  15  20
ATOM     20  O   LIG A   1      -8.482  -2.470 126.015  0.00  0.00    -0.503 OA
ATOM     21  H   LIG A   1      -9.016  -2.326 125.209  0.00  0.00    +0.292 HD
ENDBRANCH  15  20
ENDBRANCH   4  12
BRANCH   3  22
ATOM     22  O   LIG A   1      -5.897   2.844 127.794  0.00  0.00    -0.488 OA
ATOM     23  C   LIG A   1      -5.707   3.412 126.503  0.00  0.00    +0.277 C 
ENDBRANCH   3  22
BRANCH   8  24
ATOM     24  O   LIG A   1      -7.412   7.059 130.747  0.00  0.00    -0.506 OA
ATOM     25  H   LIG A   1      -7.745   7.916 130.394  0.00  0.00    +0.292 HD
ENDBRANCH   8  24
BRANCH  10  26
ATOM     26  O   LIG A   1     -11.859   5.802 131.844  0.00  0.00    -0.506 OA
ATOM     27  H   LIG A   1     -11.996   6.765 131.879  0.00  0.00    +0.292 HD
ENDBRANCH  10  26
TORSDOF 6
ENDMDL
MODEL 9
REMARK VINA RESULT:      -6.5      2.950      4.057
REMARK  Name = NuBBE_1224
REMARK  8 active torsions:
REMARK  status: ('A' for Active; 'I' for Inactive)
REMARK    1  A    between atoms: C_3  and  O_4
REMARK    2  A    between atoms: O_4  and  C_5
REMARK    3  A    between atoms: C_6  and  C_16
REMARK    4  A    between atoms: C_10  and  O_11
REMARK    5  A    between atoms: C_13  and  O_14
REMARK    6  A    between atoms: C_18  and  O_19
REMARK    7  A    between atoms: O_19  and  C_20
REMARK    8  A    between atoms: C_21  and  O_24
REMARK                            x       y       z     vdW  Elec       q    Type
REMARK                         _______ _______ _______ _____ _____    ______ ____
ROOT
ATOM      1  O   LIG A   1      -9.079  -0.921 122.879  0.00  0.00    -0.283 OA
ATOM      2  C   LIG A   1      -8.589  -0.555 123.948  0.00  0.00    +0.238 A 
ATOM      3  C   LIG A   1      -7.929   0.770 124.153  0.00  0.00    +0.211 A 
ATOM      4  C   LIG A   1      -7.415   1.007 125.377  0.00  0.00    +0.181 A 
ATOM      5  O   LIG A   1      -7.454   0.143 126.453  0.00  0.00    -0.451 OA
ATOM      6  C   LIG A   1      -8.068  -1.069 126.296  0.00  0.00    +0.146 A 
ATOM      7  C   LIG A   1      -8.647  -1.470 125.097  0.00  0.00    +0.109 A 
ATOM      8  C   LIG A   1      -9.260  -2.727 125.010  0.00  0.00    +0.135 A 
ATOM      9  C   LIG A   1      -9.294  -3.575 126.115  0.00  0.00    +0.091 A 
ATOM     10  C   LIG A   1      -8.708  -3.158 127.308  0.00  0.00    +0.124 A 
ATOM     11  C   LIG A   1      -8.096  -1.912 127.406  0.00  0.00    +0.092 A 
ENDROOT
BRANCH   4  12
ATOM     12  C   LIG A   1      -6.734   2.271 125.698  0.00  0.00    +0.025 A 
ATOM     13  C   LIG A   1      -5.335   2.353 125.628  0.00  0.00    +0.061 A 
ATOM     14  C   LIG A   1      -4.683   3.544 125.955  0.00  0.00    +0.162 A 
ATOM     15  C   LIG A   1      -5.450   4.649 126.342  0.00  0.00    +0.159 A 
ATOM     16  C   LIG A   1      -6.835   4.583 126.415  0.00  0.00    +0.050 A 
ATOM     17  C   LIG A   1      -7.480   3.389 126.093  0.00  0.00    +0.015 A 
BRANCH  14  18
ATOM     18  O   LIG A   1      -3.327   3.748 125.942  0.00  0.00    -0.491 OA
ATOM     19  C   LIG A   1      -2.585   3.102 126.971  0.00  0.00    +0.277 C 
ENDBRANCH  14  18
BRANCH  15  20
ATOM     20  O   LIG A   1      -4.842   5.833 126.658  0.00  0.00    -0.503 OA
ATOM     21  H   LIG A   1      -4.842   5.865 127.635  0.00  0.00    +0.292 HD
ENDBRANCH  15  20
ENDBRANCH   4  12
BRANCH   3  22
ATOM     22  O   LIG A   1      -7.800   1.711 123.142  0.00  0.00    -0.488 OA
ATOM     23  C   LIG A   1      -8.972   2.442 122.800  0.00  0.00    +0.277 C 
ENDBRANCH   3  22
BRANCH   8  24
ATOM     24  O   LIG A   1      -9.850  -3.193 123.867  0.00  0.00    -0.506 OA
ATOM     25  H   LIG A   1      -9.215  -3.798 123.419  0.00  0.00    +0.292 HD
ENDBRANCH   8  24
BRANCH  10  26
ATOM     26  O   LIG A   1      -8.712  -3.951 128.415  0.00  0.00    -0.506 OA
ATOM     27  H   LIG A   1      -8.654  -4.882 128.137  0.00  0.00    +0.292 HD
ENDBRANCH  10  26
TORSDOF 6
ENDMDL
