MODEL 1
REMARK VINA RESULT:      -8.8      0.000      0.000
REMARK  Name = NuBBE_1026
REMARK  9 active torsions:
REMARK  status: ('A' for Active; 'I' for Inactive)
REMARK    1  A    between atoms: O_1  and  C_2
REMARK    2  A    between atoms: C_6  and  C_7
REMARK    3  A    between atoms: C_11  and  C_12
REMARK    4  A    between atoms: C_19  and  C_20
REMARK    5  A    between atoms: C_23  and  C_24
REMARK    6  A    between atoms: C_27  and  C_29
REMARK    7  A    between atoms: C_29  and  C_30
REMARK    8  A    between atoms: C_35  and  C_36
REMARK    9  A    between atoms: C_35  and  C_37
REMARK                            x       y       z     vdW  Elec       q    Type
REMARK                         _______ _______ _______ _____ _____    ______ ____
ROOT
ATOM      1  C   LIG A   1      -6.389  -4.039 132.943  0.00  0.00    +0.120 C 
ATOM      2  C   LIG A   1      -5.456  -4.862 132.045  0.00  0.00    +0.032 C 
ATOM      3  C   LIG A   1      -5.702  -4.654 130.543  0.00  0.00    +0.010 C 
ATOM      4  C   LIG A   1      -5.669  -3.156 130.118  0.00  0.00    -0.022 C 
ATOM      5  C   LIG A   1      -4.211  -2.667 130.347  0.00  0.00    +0.012 C 
ATOM      6  C   LIG A   1      -6.711  -2.432 131.029  0.00  0.00    +0.004 C 
ATOM      7  C   LIG A   1      -7.025  -1.067 130.430  0.00  0.00    +0.005 C 
ATOM      8  C   LIG A   1      -7.920  -1.264 129.199  0.00  0.00    +0.008 C 
ATOM      9  C   LIG A   1      -7.533  -2.451 128.236  0.00  0.00    -0.019 C 
ATOM     10  C   LIG A   1      -8.556  -3.609 128.469  0.00  0.00    +0.012 C 
ATOM     11  C   LIG A   1      -6.059  -3.005 128.548  0.00  0.00    +0.024 C 
ATOM     12  C   LIG A   1      -5.003  -2.283 127.703  0.00  0.00    -0.026 C 
ATOM     13  C   LIG A   1      -5.227  -1.326 126.796  0.00  0.00    -0.026 C 
ATOM     14  C   LIG A   1      -6.608  -0.859 126.426  0.00  0.00    +0.022 C 
ATOM     15  C   LIG A   1      -7.643  -1.993 126.675  0.00  0.00    -0.020 C 
ATOM     16  C   LIG A   1      -7.378  -3.218 125.747  0.00  0.00    +0.012 C 
ATOM     17  C   LIG A   1      -9.020  -1.375 126.311  0.00  0.00    +0.008 C 
ATOM     18  C   LIG A   1      -9.174  -1.007 124.830  0.00  0.00    +0.007 C 
ATOM     19  C   LIG A   1      -7.957  -0.348 124.144  0.00  0.00    -0.028 C 
ATOM     20  C   LIG A   1      -7.623  -1.162 122.858  0.00  0.00    +0.011 C 
ATOM     21  C   LIG A   1      -6.668  -0.185 125.025  0.00  0.00    +0.009 C 
ATOM     22  C   LIG A   1      -6.358   1.356 125.055  0.00  0.00    +0.018 C 
ATOM     23  C   LIG A   1      -7.003   1.873 123.766  0.00  0.00    +0.009 C 
ATOM     24  C   LIG A   1      -8.293   1.080 123.635  0.00  0.00    +0.007 C 
ATOM     25  C   LIG A   1      -6.491  -2.522 132.579  0.00  0.00    -0.006 C 
ATOM     26  C   LIG A   1      -7.746  -1.964 133.311  0.00  0.00    +0.014 C 
ATOM     27  C   LIG A   1      -5.302  -1.705 133.122  0.00  0.00    +0.014 C 
ENDROOT
BRANCH  22  28
ATOM     28  C   LIG A   1      -6.768   2.176 126.283  0.00  0.00    -0.076 C 
ATOM     29  C   LIG A   1      -5.636   2.887 126.981  0.00  0.00    +0.038 C 
ATOM     30  C   LIG A   1      -8.015   2.290 126.776  0.00  0.00    +0.007 C 
ENDBRANCH  22  28
BRANCH   1  31
ATOM     31  O   LIG A   1      -5.988  -4.197 134.302  0.00  0.00    -0.391 OA
ATOM     32  H   LIG A   1      -5.042  -3.975 134.358  0.00  0.00    +0.210 HD
ENDBRANCH   1  31
TORSDOF 2
ENDMDL
MODEL 2
REMARK VINA RESULT:      -8.7      3.078      5.696
REMARK  Name = NuBBE_1026
REMARK  9 active torsions:
REMARK  status: ('A' for Active; 'I' for Inactive)
REMARK    1  A    between atoms: O_1  and  C_2
REMARK    2  A    between atoms: C_6  and  C_7
REMARK    3  A    between atoms: C_11  and  C_12
REMARK    4  A    between atoms: C_19  and  C_20
REMARK    5  A    between atoms: C_23  and  C_24
REMARK    6  A    between atoms: C_27  and  C_29
REMARK    7  A    between atoms: C_29  and  C_30
REMARK    8  A    between atoms: C_35  and  C_36
REMARK    9  A    between atoms: C_35  and  C_37
REMARK                            x       y       z     vdW  Elec       q    Type
REMARK                         _______ _______ _______ _____ _____    ______ ____
ROOT
ATOM      1  C   LIG A   1      -4.706   4.481 130.942  0.00  0.00    +0.120 C 
ATOM      2  C   LIG A   1      -5.646   5.284 130.034  0.00  0.00    +0.032 C 
ATOM      3  C   LIG A   1      -6.013   4.560 128.730  0.00  0.00    +0.010 C 
ATOM      4  C   LIG A   1      -6.586   3.131 128.961  0.00  0.00    -0.022 C 
ATOM      5  C   LIG A   1      -7.941   3.316 129.700  0.00  0.00    +0.012 C 
ATOM      6  C   LIG A   1      -5.517   2.378 129.816  0.00  0.00    +0.004 C 
ATOM      7  C   LIG A   1      -5.804   0.883 129.758  0.00  0.00    +0.005 C 
ATOM      8  C   LIG A   1      -5.386   0.353 128.380  0.00  0.00    +0.008 C 
ATOM      9  C   LIG A   1      -5.764   1.253 127.141  0.00  0.00    -0.019 C 
ATOM     10  C   LIG A   1      -4.460   1.956 126.645  0.00  0.00    +0.012 C 
ATOM     11  C   LIG A   1      -6.831   2.384 127.540  0.00  0.00    +0.024 C 
ATOM     12  C   LIG A   1      -8.268   1.893 127.326  0.00  0.00    -0.026 C 
ATOM     13  C   LIG A   1      -8.640   0.697 126.855  0.00  0.00    -0.026 C 
ATOM     14  C   LIG A   1      -7.653  -0.340 126.391  0.00  0.00    +0.022 C 
ATOM     15  C   LIG A   1      -6.339   0.343 125.916  0.00  0.00    -0.020 C 
ATOM     16  C   LIG A   1      -6.585   1.241 124.665  0.00  0.00    +0.012 C 
ATOM     17  C   LIG A   1      -5.394  -0.823 125.520  0.00  0.00    +0.008 C 
ATOM     18  C   LIG A   1      -5.877  -1.646 124.320  0.00  0.00    +0.007 C 
ATOM     19  C   LIG A   1      -7.385  -1.975 124.259  0.00  0.00    -0.028 C 
ATOM     20  C   LIG A   1      -7.928  -1.519 122.872  0.00  0.00    +0.011 C 
ATOM     21  C   LIG A   1      -8.272  -1.372 125.406  0.00  0.00    +0.009 C 
ATOM     22  C   LIG A   1      -8.944  -2.601 126.122  0.00  0.00    +0.018 C 
ATOM     23  C   LIG A   1      -8.957  -3.681 125.038  0.00  0.00    +0.009 C 
ATOM     24  C   LIG A   1      -7.638  -3.506 124.302  0.00  0.00    +0.007 C 
ATOM     25  C   LIG A   1      -5.141   3.002 131.204  0.00  0.00    -0.006 C 
ATOM     26  C   LIG A   1      -3.901   2.261 131.784  0.00  0.00    +0.014 C 
ATOM     27  C   LIG A   1      -6.229   2.891 132.290  0.00  0.00    +0.014 C 
ENDROOT
BRANCH  22  28
ATOM     28  C   LIG A   1      -8.354  -3.107 127.444  0.00  0.00    -0.076 C 
ATOM     29  C   LIG A   1      -9.219  -4.092 128.190  0.00  0.00    +0.038 C 
ATOM     30  C   LIG A   1      -7.175  -2.738 127.975  0.00  0.00    +0.007 C 
ENDBRANCH  22  28
BRANCH   1  31
ATOM     31  O   LIG A   1      -4.543   5.175 132.177  0.00  0.00    -0.391 OA
ATOM     32  H   LIG A   1      -5.232   5.861 132.222  0.00  0.00    +0.210 HD
ENDBRANCH   1  31
TORSDOF 2
ENDMDL
MODEL 3
REMARK VINA RESULT:      -8.4      2.929      4.632
REMARK  Name = NuBBE_1026
REMARK  9 active torsions:
REMARK  status: ('A' for Active; 'I' for Inactive)
REMARK    1  A    between atoms: O_1  and  C_2
REMARK    2  A    between atoms: C_6  and  C_7
REMARK    3  A    between atoms: C_11  and  C_12
REMARK    4  A    between atoms: C_19  and  C_20
REMARK    5  A    between atoms: C_23  and  C_24
REMARK    6  A    between atoms: C_27  and  C_29
REMARK    7  A    between atoms: C_29  and  C_30
REMARK    8  A    between atoms: C_35  and  C_36
REMARK    9  A    between atoms: C_35  and  C_37
REMARK                            x       y       z     vdW  Elec       q    Type
REMARK                         _______ _______ _______ _____ _____    ______ ____
ROOT
ATOM      1  C   LIG A   1      -5.407   3.421 131.975  0.00  0.00    +0.120 C 
ATOM      2  C   LIG A   1      -4.054   3.022 131.371  0.00  0.00    +0.032 C 
ATOM      3  C   LIG A   1      -4.141   1.852 130.380  0.00  0.00    +0.010 C 
ATOM      4  C   LIG A   1      -5.184   2.084 129.247  0.00  0.00    -0.022 C 
ATOM      5  C   LIG A   1      -4.654   3.275 128.400  0.00  0.00    +0.012 C 
ATOM      6  C   LIG A   1      -6.534   2.394 129.969  0.00  0.00    +0.004 C 
ATOM      7  C   LIG A   1      -7.673   2.248 128.968  0.00  0.00    +0.005 C 
ATOM      8  C   LIG A   1      -7.911   0.754 128.705  0.00  0.00    +0.008 C 
ATOM      9  C   LIG A   1      -6.622  -0.138 128.534  0.00  0.00    -0.019 C 
ATOM     10  C   LIG A   1      -6.439  -0.971 129.843  0.00  0.00    +0.012 C 
ATOM     11  C   LIG A   1      -5.309   0.760 128.315  0.00  0.00    +0.024 C 
ATOM     12  C   LIG A   1      -5.049   1.011 126.825  0.00  0.00    -0.026 C 
ATOM     13  C   LIG A   1      -5.777   0.551 125.801  0.00  0.00    -0.026 C 
ATOM     14  C   LIG A   1      -6.956  -0.365 125.984  0.00  0.00    +0.022 C 
ATOM     15  C   LIG A   1      -6.801  -1.185 127.297  0.00  0.00    -0.020 C 
ATOM     16  C   LIG A   1      -5.567  -2.137 127.229  0.00  0.00    +0.012 C 
ATOM     17  C   LIG A   1      -8.092  -2.041 127.397  0.00  0.00    +0.008 C 
ATOM     18  C   LIG A   1      -8.244  -3.086 126.285  0.00  0.00    +0.007 C 
ATOM     19  C   LIG A   1      -7.858  -2.646 124.855  0.00  0.00    -0.028 C 
ATOM     20  C   LIG A   1      -6.836  -3.676 124.287  0.00  0.00    +0.011 C 
ATOM     21  C   LIG A   1      -7.290  -1.191 124.707  0.00  0.00    +0.009 C 
ATOM     22  C   LIG A   1      -8.258  -0.448 123.714  0.00  0.00    +0.018 C 
ATOM     23  C   LIG A   1      -8.865  -1.588 122.892  0.00  0.00    +0.009 C 
ATOM     24  C   LIG A   1      -9.072  -2.717 123.890  0.00  0.00    +0.007 C 
ATOM     25  C   LIG A   1      -6.560   3.625 130.940  0.00  0.00    -0.006 C 
ATOM     26  C   LIG A   1      -7.895   3.621 131.741  0.00  0.00    +0.014 C 
ATOM     27  C   LIG A   1      -6.498   5.004 130.252  0.00  0.00    +0.014 C 
ENDROOT
BRANCH  22  28
ATOM     28  C   LIG A   1      -9.324   0.497 124.279  0.00  0.00    -0.076 C 
ATOM     29  C   LIG A   1      -9.679   1.661 123.388  0.00  0.00    +0.038 C 
ATOM     30  C   LIG A   1      -9.932   0.378 125.473  0.00  0.00    +0.007 C 
ENDBRANCH  22  28
BRANCH   1  31
ATOM     31  O   LIG A   1      -5.237   4.596 132.766  0.00  0.00    -0.391 OA
ATOM     32  H   LIG A   1      -5.808   4.508 133.549  0.00  0.00    +0.210 HD
ENDBRANCH   1  31
TORSDOF 2
ENDMDL
MODEL 4
REMARK VINA RESULT:      -8.3      4.012      7.531
REMARK  Name = NuBBE_1026
REMARK  9 active torsions:
REMARK  status: ('A' for Active; 'I' for Inactive)
REMARK    1  A    between atoms: O_1  and  C_2
REMARK    2  A    between atoms: C_6  and  C_7
REMARK    3  A    between atoms: C_11  and  C_12
REMARK    4  A    between atoms: C_19  and  C_20
REMARK    5  A    between atoms: C_23  and  C_24
REMARK    6  A    between atoms: C_27  and  C_29
REMARK    7  A    between atoms: C_29  and  C_30
REMARK    8  A    between atoms: C_35  and  C_36
REMARK    9  A    between atoms: C_35  and  C_37
REMARK                            x       y       z     vdW  Elec       q    Type
REMARK                         _______ _______ _______ _____ _____    ______ ____
ROOT
ATOM      1  C   LIG A   1      -8.495   5.517 132.613  0.00  0.00    +0.120 C 
ATOM      2  C   LIG A   1      -8.957   5.281 131.169  0.00  0.00    +0.032 C 
ATOM      3  C   LIG A   1      -8.223   4.130 130.466  0.00  0.00    +0.010 C 
ATOM      4  C   LIG A   1      -8.265   2.795 131.265  0.00  0.00    -0.022 C 
ATOM      5  C   LIG A   1      -9.754   2.348 131.294  0.00  0.00    +0.012 C 
ATOM      6  C   LIG A   1      -7.695   3.128 132.681  0.00  0.00    +0.004 C 
ATOM      7  C   LIG A   1      -7.338   1.827 133.388  0.00  0.00    +0.005 C 
ATOM      8  C   LIG A   1      -6.051   1.265 132.768  0.00  0.00    +0.008 C 
ATOM      9  C   LIG A   1      -5.945   1.337 131.196  0.00  0.00    -0.019 C 
ATOM     10  C   LIG A   1      -4.951   2.487 130.835  0.00  0.00    +0.012 C 
ATOM     11  C   LIG A   1      -7.366   1.663 130.524  0.00  0.00    +0.024 C 
ATOM     12  C   LIG A   1      -8.128   0.378 130.182  0.00  0.00    -0.026 C 
ATOM     13  C   LIG A   1      -7.704  -0.876 130.377  0.00  0.00    -0.026 C 
ATOM     14  C   LIG A   1      -6.339  -1.200 130.921  0.00  0.00    +0.022 C 
ATOM     15  C   LIG A   1      -5.342  -0.052 130.591  0.00  0.00    -0.020 C 
ATOM     16  C   LIG A   1      -5.130   0.091 129.053  0.00  0.00    +0.012 C 
ATOM     17  C   LIG A   1      -4.001  -0.478 131.246  0.00  0.00    +0.008 C 
ATOM     18  C   LIG A   1      -3.376  -1.740 130.640  0.00  0.00    +0.007 C 
ATOM     19  C   LIG A   1      -4.337  -2.902 130.300  0.00  0.00    -0.028 C 
ATOM     20  C   LIG A   1      -4.107  -3.304 128.813  0.00  0.00    +0.011 C 
ATOM     21  C   LIG A   1      -5.862  -2.635 130.554  0.00  0.00    +0.009 C 
ATOM     22  C   LIG A   1      -6.327  -3.733 131.579  0.00  0.00    +0.018 C 
ATOM     23  C   LIG A   1      -5.330  -4.873 131.356  0.00  0.00    +0.009 C 
ATOM     24  C   LIG A   1      -3.998  -4.179 131.115  0.00  0.00    +0.007 C 
ATOM     25  C   LIG A   1      -8.435   4.236 133.508  0.00  0.00    -0.006 C 
ATOM     26  C   LIG A   1      -7.586   4.598 134.761  0.00  0.00    +0.014 C 
ATOM     27  C   LIG A   1      -9.820   3.833 134.053  0.00  0.00    +0.014 C 
ENDROOT
BRANCH  22  28
ATOM     28  C   LIG A   1      -6.466  -3.361 133.060  0.00  0.00    -0.076 C 
ATOM     29  C   LIG A   1      -7.885  -3.264 133.561  0.00  0.00    +0.038 C 
ATOM     30  C   LIG A   1      -5.454  -3.107 133.908  0.00  0.00    +0.007 C 
ENDBRANCH  22  28
BRANCH   1  31
ATOM     31  O   LIG A   1      -9.329   6.504 133.216  0.00  0.00    -0.391 OA
ATOM     32  H   LIG A   1      -9.927   6.844 132.527  0.00  0.00    +0.210 HD
ENDBRANCH   1  31
TORSDOF 2
ENDMDL
MODEL 5
REMARK VINA RESULT:      -8.3      4.047      6.062
REMARK  Name = NuBBE_1026
REMARK  9 active torsions:
REMARK  status: ('A' for Active; 'I' for Inactive)
REMARK    1  A    between atoms: O_1  and  C_2
REMARK    2  A    between atoms: C_6  and  C_7
REMARK    3  A    between atoms: C_11  and  C_12
REMARK    4  A    between atoms: C_19  and  C_20
REMARK    5  A    between atoms: C_23  and  C_24
REMARK    6  A    between atoms: C_27  and  C_29
REMARK    7  A    between atoms: C_29  and  C_30
REMARK    8  A    between atoms: C_35  and  C_36
REMARK    9  A    between atoms: C_35  and  C_37
REMARK                            x       y       z     vdW  Elec       q    Type
REMARK                         _______ _______ _______ _____ _____    ______ ____
ROOT
ATOM      1  C   LIG A   1      -9.430   5.280 132.991  0.00  0.00    +0.120 C 
ATOM      2  C   LIG A   1      -8.082   4.963 133.651  0.00  0.00    +0.032 C 
ATOM      3  C   LIG A   1      -7.430   3.672 133.134  0.00  0.00    +0.010 C 
ATOM      4  C   LIG A   1      -7.289   3.634 131.584  0.00  0.00    -0.022 C 
ATOM      5  C   LIG A   1      -6.282   4.757 131.207  0.00  0.00    +0.012 C 
ATOM      6  C   LIG A   1      -8.725   3.880 131.019  0.00  0.00    +0.004 C 
ATOM      7  C   LIG A   1      -8.752   3.475 129.551  0.00  0.00    +0.005 C 
ATOM      8  C   LIG A   1      -8.748   1.943 129.460  0.00  0.00    +0.008 C 
ATOM      9  C   LIG A   1      -7.772   1.189 130.443  0.00  0.00    -0.019 C 
ATOM     10  C   LIG A   1      -8.635   0.560 131.584  0.00  0.00    +0.012 C 
ATOM     11  C   LIG A   1      -6.710   2.194 131.105  0.00  0.00    +0.024 C 
ATOM     12  C   LIG A   1      -5.428   2.277 130.268  0.00  0.00    -0.026 C 
ATOM     13  C   LIG A   1      -5.168   1.608 129.139  0.00  0.00    -0.026 C 
ATOM     14  C   LIG A   1      -6.115   0.595 128.555  0.00  0.00    +0.022 C 
ATOM     15  C   LIG A   1      -6.998  -0.024 129.676  0.00  0.00    -0.020 C 
ATOM     16  C   LIG A   1      -6.138  -0.830 130.697  0.00  0.00    +0.012 C 
ATOM     17  C   LIG A   1      -7.958  -1.001 128.944  0.00  0.00    +0.008 C 
ATOM     18  C   LIG A   1      -7.258  -2.193 128.280  0.00  0.00    +0.007 C 
ATOM     19  C   LIG A   1      -5.931  -1.901 127.542  0.00  0.00    -0.028 C 
ATOM     20  C   LIG A   1      -4.845  -2.873 128.092  0.00  0.00    +0.011 C 
ATOM     21  C   LIG A   1      -5.411  -0.422 127.610  0.00  0.00    +0.009 C 
ATOM     22  C   LIG A   1      -5.313   0.069 126.119  0.00  0.00    +0.018 C 
ATOM     23  C   LIG A   1      -5.135  -1.230 125.329  0.00  0.00    +0.009 C 
ATOM     24  C   LIG A   1      -6.035  -2.235 126.029  0.00  0.00    +0.007 C 
ATOM     25  C   LIG A   1      -9.436   5.215 131.429  0.00  0.00    -0.006 C 
ATOM     26  C   LIG A   1     -10.926   5.164 130.982  0.00  0.00    +0.014 C 
ATOM     27  C   LIG A   1      -8.858   6.491 130.784  0.00  0.00    +0.014 C 
ENDROOT
BRANCH  22  28
ATOM     28  C   LIG A   1      -6.428   0.952 125.549  0.00  0.00    -0.076 C 
ATOM     29  C   LIG A   1      -6.031   2.380 125.272  0.00  0.00    +0.038 C 
ATOM     30  C   LIG A   1      -7.693   0.565 125.303  0.00  0.00    +0.007 C 
ENDBRANCH  22  28
BRANCH   1  31
ATOM     31  O   LIG A   1      -9.878   6.560 133.435  0.00  0.00    -0.391 OA
ATOM     32  H   LIG A   1     -10.665   6.794 132.912  0.00  0.00    +0.210 HD
ENDBRANCH   1  31
TORSDOF 2
ENDMDL
MODEL 6
REMARK VINA RESULT:      -8.2      3.635      6.243
REMARK  Name = NuBBE_1026
REMARK  9 active torsions:
REMARK  status: ('A' for Active; 'I' for Inactive)
REMARK    1  A    between atoms: O_1  and  C_2
REMARK    2  A    between atoms: C_6  and  C_7
REMARK    3  A    between atoms: C_11  and  C_12
REMARK    4  A    between atoms: C_19  and  C_20
REMARK    5  A    between atoms: C_23  and  C_24
REMARK    6  A    between atoms: C_27  and  C_29
REMARK    7  A    between atoms: C_29  and  C_30
REMARK    8  A    between atoms: C_35  and  C_36
REMARK    9  A    between atoms: C_35  and  C_37
REMARK                            x       y       z     vdW  Elec       q    Type
REMARK                         _______ _______ _______ _____ _____    ______ ____
ROOT
ATOM      1  C   LIG A   1      -6.175  -3.644 130.783  0.00  0.00    +0.120 C 
ATOM      2  C   LIG A   1      -7.472  -3.243 130.068  0.00  0.00    +0.032 C 
ATOM      3  C   LIG A   1      -7.842  -1.763 130.242  0.00  0.00    +0.010 C 
ATOM      4  C   LIG A   1      -6.691  -0.792 129.845  0.00  0.00    -0.022 C 
ATOM      5  C   LIG A   1      -6.480  -0.965 128.314  0.00  0.00    +0.012 C 
ATOM      6  C   LIG A   1      -5.452  -1.232 130.690  0.00  0.00    +0.004 C 
ATOM      7  C   LIG A   1      -4.415  -0.117 130.661  0.00  0.00    +0.005 C 
ATOM      8  C   LIG A   1      -4.894   1.026 131.566  0.00  0.00    +0.008 C 
ATOM      9  C   LIG A   1      -6.423   1.401 131.467  0.00  0.00    -0.019 C 
ATOM     10  C   LIG A   1      -7.135   0.844 132.741  0.00  0.00    +0.012 C 
ATOM     11  C   LIG A   1      -7.108   0.743 130.173  0.00  0.00    +0.024 C 
ATOM     12  C   LIG A   1      -7.038   1.687 128.966  0.00  0.00    -0.026 C 
ATOM     13  C   LIG A   1      -6.506   2.914 128.944  0.00  0.00    -0.026 C 
ATOM     14  C   LIG A   1      -5.942   3.580 130.169  0.00  0.00    +0.022 C 
ATOM     15  C   LIG A   1      -6.624   3.019 131.449  0.00  0.00    -0.020 C 
ATOM     16  C   LIG A   1      -8.146   3.361 131.479  0.00  0.00    +0.012 C 
ATOM     17  C   LIG A   1      -5.924   3.739 132.633  0.00  0.00    +0.008 C 
ATOM     18  C   LIG A   1      -6.163   5.253 132.680  0.00  0.00    +0.007 C 
ATOM     19  C   LIG A   1      -6.120   6.010 131.334  0.00  0.00    -0.028 C 
ATOM     20  C   LIG A   1      -7.436   6.832 131.194  0.00  0.00    +0.011 C 
ATOM     21  C   LIG A   1      -5.898   5.132 130.052  0.00  0.00    +0.009 C 
ATOM     22  C   LIG A   1      -4.584   5.674 129.380  0.00  0.00    +0.018 C 
ATOM     23  C   LIG A   1      -4.506   7.122 129.870  0.00  0.00    +0.009 C 
ATOM     24  C   LIG A   1      -4.985   7.069 131.312  0.00  0.00    +0.007 C 
ATOM     25  C   LIG A   1      -4.953  -2.708 130.513  0.00  0.00    -0.006 C 
ATOM     26  C   LIG A   1      -3.888  -3.026 131.603  0.00  0.00    +0.014 C 
ATOM     27  C   LIG A   1      -4.265  -3.010 129.167  0.00  0.00    +0.014 C 
ENDROOT
BRANCH  22  28
ATOM     28  C   LIG A   1      -3.269   4.915 129.592  0.00  0.00    -0.076 C 
ATOM     29  C   LIG A   1      -2.707   4.257 128.357  0.00  0.00    +0.038 C 
ATOM     30  C   LIG A   1      -2.613   4.783 130.759  0.00  0.00    +0.007 C 
ENDBRANCH  22  28
BRANCH   1  31
ATOM     31  O   LIG A   1      -5.852  -4.991 130.443  0.00  0.00    -0.391 OA
ATOM     32  H   LIG A   1      -5.321  -5.359 131.171  0.00  0.00    +0.210 HD
ENDBRANCH   1  31
TORSDOF 2
ENDMDL
MODEL 7
REMARK VINA RESULT:      -8.1      6.701      9.254
REMARK  Name = NuBBE_1026
REMARK  9 active torsions:
REMARK  status: ('A' for Active; 'I' for Inactive)
REMARK    1  A    between atoms: O_1  and  C_2
REMARK    2  A    between atoms: C_6  and  C_7
REMARK    3  A    between atoms: C_11  and  C_12
REMARK    4  A    between atoms: C_19  and  C_20
REMARK    5  A    between atoms: C_23  and  C_24
REMARK    6  A    between atoms: C_27  and  C_29
REMARK    7  A    between atoms: C_29  and  C_30
REMARK    8  A    between atoms: C_35  and  C_36
REMARK    9  A    between atoms: C_35  and  C_37
REMARK                            x       y       z     vdW  Elec       q    Type
REMARK                         _______ _______ _______ _____ _____    ______ ____
ROOT
ATOM      1  C   LIG A   1      -0.539   7.252 134.034  0.00  0.00    +0.120 C 
ATOM      2  C   LIG A   1      -0.337   7.096 132.521  0.00  0.00    +0.032 C 
ATOM      3  C   LIG A   1      -1.217   6.006 131.891  0.00  0.00    +0.010 C 
ATOM      4  C   LIG A   1      -2.730   6.175 132.214  0.00  0.00    -0.022 C 
ATOM      5  C   LIG A   1      -3.183   7.491 131.521  0.00  0.00    +0.012 C 
ATOM      6  C   LIG A   1      -2.829   6.235 133.772  0.00  0.00    +0.004 C 
ATOM      7  C   LIG A   1      -4.278   6.007 134.183  0.00  0.00    +0.005 C 
ATOM      8  C   LIG A   1      -4.613   4.520 134.006  0.00  0.00    +0.008 C 
ATOM      9  C   LIG A   1      -4.074   3.834 132.693  0.00  0.00    -0.019 C 
ATOM     10  C   LIG A   1      -2.857   2.937 133.086  0.00  0.00    +0.012 C 
ATOM     11  C   LIG A   1      -3.578   4.922 131.622  0.00  0.00    +0.024 C 
ATOM     12  C   LIG A   1      -4.711   5.322 130.669  0.00  0.00    -0.026 C 
ATOM     13  C   LIG A   1      -5.961   4.844 130.673  0.00  0.00    -0.026 C 
ATOM     14  C   LIG A   1      -6.417   3.760 131.610  0.00  0.00    +0.022 C 
ATOM     15  C   LIG A   1      -5.211   2.871 132.032  0.00  0.00    -0.020 C 
ATOM     16  C   LIG A   1      -4.612   2.110 130.809  0.00  0.00    +0.012 C 
ATOM     17  C   LIG A   1      -5.798   1.836 133.029  0.00  0.00    +0.008 C 
ATOM     18  C   LIG A   1      -6.814   0.869 132.411  0.00  0.00    +0.007 C 
ATOM     19  C   LIG A   1      -7.832   1.468 131.414  0.00  0.00    -0.028 C 
ATOM     20  C   LIG A   1      -7.768   0.640 130.096  0.00  0.00    +0.011 C 
ATOM     21  C   LIG A   1      -7.671   2.996 131.094  0.00  0.00    +0.009 C 
ATOM     22  C   LIG A   1      -9.031   3.669 131.509  0.00  0.00    +0.018 C 
ATOM     23  C   LIG A   1     -10.040   2.522 131.408  0.00  0.00    +0.009 C 
ATOM     24  C   LIG A   1      -9.290   1.302 131.919  0.00  0.00    +0.007 C 
ATOM     25  C   LIG A   1      -2.027   7.371 134.496  0.00  0.00    -0.006 C 
ATOM     26  C   LIG A   1      -2.047   7.117 136.032  0.00  0.00    +0.014 C 
ATOM     27  C   LIG A   1      -2.591   8.794 134.308  0.00  0.00    +0.014 C 
ENDROOT
BRANCH  22  28
ATOM     28  C   LIG A   1      -9.120   4.408 132.849  0.00  0.00    -0.076 C 
ATOM     29  C   LIG A   1      -9.349   5.895 132.742  0.00  0.00    +0.038 C 
ATOM     30  C   LIG A   1      -8.996   3.851 134.067  0.00  0.00    +0.007 C 
ENDBRANCH  22  28
BRANCH   1  31
ATOM     31  O   LIG A   1       0.213   8.374 134.492  0.00  0.00    -0.391 OA
ATOM     32  H   LIG A   1      -0.322   8.834 135.163  0.00  0.00    +0.210 HD
ENDBRANCH   1  31
TORSDOF 2
ENDMDL
MODEL 8
REMARK VINA RESULT:      -8.1      9.965     13.163
REMARK  Name = NuBBE_1026
REMARK  9 active torsions:
REMARK  status: ('A' for Active; 'I' for Inactive)
REMARK    1  A    between atoms: O_1  and  C_2
REMARK    2  A    between atoms: C_6  and  C_7
REMARK    3  A    between atoms: C_11  and  C_12
REMARK    4  A    between atoms: C_19  and  C_20
REMARK    5  A    between atoms: C_23  and  C_24
REMARK    6  A    between atoms: C_27  and  C_29
REMARK    7  A    between atoms: C_29  and  C_30
REMARK    8  A    between atoms: C_35  and  C_36
REMARK    9  A    between atoms: C_35  and  C_37
REMARK                            x       y       z     vdW  Elec       q    Type
REMARK                         _______ _______ _______ _____ _____    ______ ____
ROOT
ATOM      1  C   LIG A   1      -0.322  13.050 135.179  0.00  0.00    +0.120 C 
ATOM      2  C   LIG A   1       0.741  12.070 135.691  0.00  0.00    +0.032 C 
ATOM      3  C   LIG A   1       0.334  10.594 135.563  0.00  0.00    +0.010 C 
ATOM      4  C   LIG A   1      -0.107  10.202 134.122  0.00  0.00    -0.022 C 
ATOM      5  C   LIG A   1       1.156  10.337 133.225  0.00  0.00    +0.012 C 
ATOM      6  C   LIG A   1      -1.244  11.201 133.737  0.00  0.00    +0.004 C 
ATOM      7  C   LIG A   1      -1.990  10.656 132.526  0.00  0.00    +0.005 C 
ATOM      8  C   LIG A   1      -2.878   9.488 132.978  0.00  0.00    +0.008 C 
ATOM      9  C   LIG A   1      -2.231   8.474 133.998  0.00  0.00    -0.019 C 
ATOM     10  C   LIG A   1      -2.848   8.753 135.406  0.00  0.00    +0.012 C 
ATOM     11  C   LIG A   1      -0.640   8.668 134.093  0.00  0.00    +0.024 C 
ATOM     12  C   LIG A   1       0.090   7.766 133.091  0.00  0.00    -0.026 C 
ATOM     13  C   LIG A   1      -0.472   6.899 132.241  0.00  0.00    -0.026 C 
ATOM     14  C   LIG A   1      -1.953   6.639 132.203  0.00  0.00    +0.022 C 
ATOM     15  C   LIG A   1      -2.588   6.936 133.592  0.00  0.00    -0.020 C 
ATOM     16  C   LIG A   1      -2.044   5.964 134.684  0.00  0.00    +0.012 C 
ATOM     17  C   LIG A   1      -4.108   6.684 133.407  0.00  0.00    +0.008 C 
ATOM     18  C   LIG A   1      -4.474   5.227 133.100  0.00  0.00    +0.007 C 
ATOM     19  C   LIG A   1      -3.560   4.470 132.111  0.00  0.00    -0.028 C 
ATOM     20  C   LIG A   1      -3.098   3.146 132.790  0.00  0.00    +0.011 C 
ATOM     21  C   LIG A   1      -2.314   5.261 131.576  0.00  0.00    +0.009 C 
ATOM     22  C   LIG A   1      -2.469   5.303 130.012  0.00  0.00    +0.018 C 
ATOM     23  C   LIG A   1      -3.332   4.076 129.708  0.00  0.00    +0.009 C 
ATOM     24  C   LIG A   1      -4.338   4.019 130.846  0.00  0.00    +0.007 C 
ATOM     25  C   LIG A   1      -0.893  12.729 133.760  0.00  0.00    -0.006 C 
ATOM     26  C   LIG A   1      -2.198  13.561 133.597  0.00  0.00    +0.014 C 
ATOM     27  C   LIG A   1       0.040  13.204 132.628  0.00  0.00    +0.014 C 
ENDROOT
BRANCH  22  28
ATOM     28  C   LIG A   1      -3.009   6.576 129.350  0.00  0.00    -0.076 C 
ATOM     29  C   LIG A   1      -2.249   7.031 128.130  0.00  0.00    +0.038 C 
ATOM     30  C   LIG A   1      -4.062   7.299 129.772  0.00  0.00    +0.007 C 
ENDBRANCH  22  28
BRANCH   1  31
ATOM     31  O   LIG A   1       0.208  14.374 135.212  0.00  0.00    -0.391 OA
ATOM     32  H   LIG A   1       0.246  14.653 136.144  0.00  0.00    +0.210 HD
ENDBRANCH   1  31
TORSDOF 2
ENDMDL
MODEL 9
REMARK VINA RESULT:      -8.0      1.537      3.497
REMARK  Name = NuBBE_1026
REMARK  9 active torsions:
REMARK  status: ('A' for Active; 'I' for Inactive)
REMARK    1  A    between atoms: O_1  and  C_2
REMARK    2  A    between atoms: C_6  and  C_7
REMARK    3  A    between atoms: C_11  and  C_12
REMARK    4  A    between atoms: C_19  and  C_20
REMARK    5  A    between atoms: C_23  and  C_24
REMARK    6  A    between atoms: C_27  and  C_29
REMARK    7  A    between atoms: C_29  and  C_30
REMARK    8  A    between atoms: C_35  and  C_36
REMARK    9  A    between atoms: C_35  and  C_37
REMARK                            x       y       z     vdW  Elec       q    Type
REMARK                         _______ _______ _______ _____ _____    ______ ____
ROOT
ATOM      1  C   LIG A   1      -5.261  -1.723 133.228  0.00  0.00    +0.120 C 
ATOM      2  C   LIG A   1      -6.786  -1.889 133.240  0.00  0.00    +0.032 C 
ATOM      3  C   LIG A   1      -7.466  -1.447 131.935  0.00  0.00    +0.010 C 
ATOM      4  C   LIG A   1      -6.864  -2.126 130.669  0.00  0.00    -0.022 C 
ATOM      5  C   LIG A   1      -7.192  -3.641 130.787  0.00  0.00    +0.012 C 
ATOM      6  C   LIG A   1      -5.332  -1.823 130.711  0.00  0.00    +0.004 C 
ATOM      7  C   LIG A   1      -4.737  -2.104 129.337  0.00  0.00    +0.005 C 
ATOM      8  C   LIG A   1      -5.151  -0.978 128.380  0.00  0.00    +0.008 C 
ATOM      9  C   LIG A   1      -6.647  -0.491 128.479  0.00  0.00    -0.019 C 
ATOM     10  C   LIG A   1      -6.654   0.889 129.211  0.00  0.00    +0.012 C 
ATOM     11  C   LIG A   1      -7.545  -1.519 129.325  0.00  0.00    +0.024 C 
ATOM     12  C   LIG A   1      -8.192  -2.571 128.416  0.00  0.00    -0.026 C 
ATOM     13  C   LIG A   1      -8.074  -2.656 127.087  0.00  0.00    -0.026 C 
ATOM     14  C   LIG A   1      -7.311  -1.649 126.269  0.00  0.00    +0.022 C 
ATOM     15  C   LIG A   1      -7.287  -0.274 126.996  0.00  0.00    -0.020 C 
ATOM     16  C   LIG A   1      -8.721   0.326 127.123  0.00  0.00    +0.012 C 
ATOM     17  C   LIG A   1      -6.434   0.652 126.087  0.00  0.00    +0.008 C 
ATOM     18  C   LIG A   1      -7.054   0.933 124.713  0.00  0.00    +0.007 C 
ATOM     19  C   LIG A   1      -7.723  -0.258 123.992  0.00  0.00    -0.028 C 
ATOM     20  C   LIG A   1      -9.173   0.160 123.602  0.00  0.00    +0.011 C 
ATOM     21  C   LIG A   1      -7.751  -1.617 124.777  0.00  0.00    +0.009 C 
ATOM     22  C   LIG A   1      -6.986  -2.653 123.874  0.00  0.00    +0.018 C 
ATOM     23  C   LIG A   1      -7.144  -2.079 122.464  0.00  0.00    +0.009 C 
ATOM     24  C   LIG A   1      -7.023  -0.574 122.642  0.00  0.00    +0.007 C 
ATOM     25  C   LIG A   1      -4.540  -2.312 131.972  0.00  0.00    -0.006 C 
ATOM     26  C   LIG A   1      -3.106  -1.707 131.947  0.00  0.00    +0.014 C 
ATOM     27  C   LIG A   1      -4.339  -3.838 132.069  0.00  0.00    +0.014 C 
ENDROOT
BRANCH  22  28
ATOM     28  C   LIG A   1      -5.529  -2.997 124.204  0.00  0.00    -0.076 C 
ATOM     29  C   LIG A   1      -5.139  -4.431 123.946  0.00  0.00    +0.038 C 
ATOM     30  C   LIG A   1      -4.611  -2.150 124.704  0.00  0.00    +0.007 C 
ENDBRANCH  22  28
BRANCH   1  31
ATOM     31  O   LIG A   1      -4.720  -2.289 134.420  0.00  0.00    -0.391 OA
ATOM     32  H   LIG A   1      -4.093  -1.645 134.793  0.00  0.00    +0.210 HD
ENDBRANCH   1  31
TORSDOF 2
ENDMDL
