MODEL 1
REMARK VINA RESULT:      -7.0      0.000      0.000
REMARK  Name = NuBBE_1845
REMARK  9 active torsions:
REMARK  status: ('A' for Active; 'I' for Inactive)
REMARK    1  A    between atoms: O_1  and  C_2
REMARK    2  A    between atoms: C_3  and  C_4
REMARK    3  A    between atoms: C_4  and  C_5
REMARK    4  A    between atoms: C_5  and  C_6
REMARK    5  A    between atoms: C_6  and  C_7
REMARK    6  A    between atoms: C_15  and  O_16
REMARK    7  A    between atoms: O_16  and  C_17
REMARK    8  A    between atoms: C_20  and  O_21
REMARK    9  A    between atoms: C_22  and  C_23
REMARK                            x       y       z     vdW  Elec       q    Type
REMARK                         _______ _______ _______ _____ _____    ______ ____
ROOT
ATOM      1  C   LIG A   1      -9.532   0.894 123.185  0.00  0.00    +0.010 C 
ENDROOT
BRANCH   1   2
ATOM      2  C   LIG A   1      -8.336  -0.059 123.280  0.00  0.00    +0.039 C 
BRANCH   2   4
ATOM      3  C   LIG A   1      -8.010  -0.791 125.698  0.00  0.00    +0.126 A 
ATOM      4  C   LIG A   1      -8.489  -1.059 124.405  0.00  0.00    -0.005 A 
ATOM      5  C   LIG A   1      -9.093  -2.297 124.153  0.00  0.00    +0.011 A 
ATOM      6  C   LIG A   1      -9.225  -3.241 125.171  0.00  0.00    +0.046 A 
ATOM      7  C   LIG A   1      -8.754  -2.951 126.451  0.00  0.00    +0.123 A 
ATOM      8  C   LIG A   1      -8.148  -1.721 126.745  0.00  0.00    +0.033 A 
ATOM      9  C   LIG A   1      -7.652  -1.422 128.132  0.00  0.00    +0.051 C 
BRANCH   3  10
ATOM     10  O   LIG A   1      -7.401   0.421 125.894  0.00  0.00    -0.506 OA
ATOM     11  H   LIG A   1      -6.778   0.591 125.171  0.00  0.00    +0.292 HD
ENDBRANCH   3  10
BRANCH   7  12
ATOM     12  O   LIG A   1      -8.880  -3.885 127.443  0.00  0.00    -0.506 OA
ATOM     13  H   LIG A   1      -9.360  -3.488 128.187  0.00  0.00    +0.292 HD
ENDBRANCH   7  12
ENDBRANCH   2   4
ENDBRANCH   1   2
BRANCH   1  14
ATOM     14  C   LIG A   1      -9.144   2.314 123.613  0.00  0.00    +0.039 C 
BRANCH  14  15
ATOM     15  C   LIG A   1      -8.190   2.974 122.639  0.00  0.00    -0.002 A 
ATOM     16  C   LIG A   1      -8.668   3.362 121.371  0.00  0.00    +0.056 A 
ATOM     17  C   LIG A   1      -7.787   3.929 120.481  0.00  0.00    +0.167 A 
ATOM     18  O   LIG A   1      -8.075   4.339 119.216  0.00  0.00    -0.453 OA
ATOM     19  C   LIG A   1      -6.783   4.809 118.779  0.00  0.00    +0.466 C 
ATOM     20  O   LIG A   1      -5.756   4.677 119.782  0.00  0.00    -0.453 OA
ATOM     21  C   LIG A   1      -6.465   4.126 120.803  0.00  0.00    +0.170 A 
ATOM     22  C   LIG A   1      -5.957   3.773 122.032  0.00  0.00    +0.095 A 
ATOM     23  C   LIG A   1      -6.824   3.196 122.969  0.00  0.00    +0.127 A 
BRANCH  23  24
ATOM     24  O   LIG A   1      -6.410   2.756 124.201  0.00  0.00    -0.495 OA
ATOM     25  C   LIG A   1      -5.477   3.591 124.882  0.00  0.00    +0.277 C 
ENDBRANCH  23  24
ENDBRANCH  14  15
ENDBRANCH   1  14
TORSDOF 7
ENDMDL
MODEL 2
REMARK VINA RESULT:      -6.8      3.688      8.594
REMARK  Name = NuBBE_1845
REMARK  9 active torsions:
REMARK  status: ('A' for Active; 'I' for Inactive)
REMARK    1  A    between atoms: O_1  and  C_2
REMARK    2  A    between atoms: C_3  and  C_4
REMARK    3  A    between atoms: C_4  and  C_5
REMARK    4  A    between atoms: C_5  and  C_6
REMARK    5  A    between atoms: C_6  and  C_7
REMARK    6  A    between atoms: C_15  and  O_16
REMARK    7  A    between atoms: O_16  and  C_17
REMARK    8  A    between atoms: C_20  and  O_21
REMARK    9  A    between atoms: C_22  and  C_23
REMARK                            x       y       z     vdW  Elec       q    Type
REMARK                         _______ _______ _______ _____ _____    ______ ____
ROOT
ATOM      1  C   LIG A   1      -8.775  -3.858 127.796  0.00  0.00    +0.010 C 
ENDROOT
BRANCH   1   2
ATOM      2  C   LIG A   1      -9.559  -3.414 126.557  0.00  0.00    +0.039 C 
BRANCH   2   4
ATOM      3  C   LIG A   1      -8.730  -1.571 125.005  0.00  0.00    +0.126 A 
ATOM      4  C   LIG A   1      -8.652  -2.898 125.461  0.00  0.00    -0.005 A 
ATOM      5  C   LIG A   1      -7.730  -3.765 124.860  0.00  0.00    +0.011 A 
ATOM      6  C   LIG A   1      -6.900  -3.315 123.834  0.00  0.00    +0.046 A 
ATOM      7  C   LIG A   1      -6.985  -1.991 123.404  0.00  0.00    +0.123 A 
ATOM      8  C   LIG A   1      -7.889  -1.091 123.984  0.00  0.00    +0.033 A 
ATOM      9  C   LIG A   1      -7.962   0.335 123.512  0.00  0.00    +0.051 C 
BRANCH   3  10
ATOM     10  O   LIG A   1      -9.664  -0.766 125.602  0.00  0.00    -0.506 OA
ATOM     11  H   LIG A   1      -9.667  -0.926 126.557  0.00  0.00    +0.292 HD
ENDBRANCH   3  10
BRANCH   7  12
ATOM     12  O   LIG A   1      -6.171  -1.558 122.392  0.00  0.00    -0.506 OA
ATOM     13  H   LIG A   1      -5.781  -2.331 121.952  0.00  0.00    +0.292 HD
ENDBRANCH   7  12
ENDBRANCH   2   4
ENDBRANCH   1   2
BRANCH   1  14
ATOM     14  C   LIG A   1      -8.215  -2.652 128.558  0.00  0.00    +0.039 C 
BRANCH  14  15
ATOM     15  C   LIG A   1      -6.847  -2.921 129.149  0.00  0.00    -0.002 A 
ATOM     16  C   LIG A   1      -6.758  -3.458 130.449  0.00  0.00    +0.056 A 
ATOM     17  C   LIG A   1      -5.511  -3.668 130.990  0.00  0.00    +0.167 A 
ATOM     18  O   LIG A   1      -5.246  -4.156 132.232  0.00  0.00    -0.453 OA
ATOM     19  C   LIG A   1      -3.803  -4.125 132.237  0.00  0.00    +0.466 C 
ATOM     20  O   LIG A   1      -3.237  -3.627 131.009  0.00  0.00    -0.453 OA
ATOM     21  C   LIG A   1      -4.364  -3.370 130.293  0.00  0.00    +0.170 A 
ATOM     22  C   LIG A   1      -4.404  -2.855 129.017  0.00  0.00    +0.095 A 
ATOM     23  C   LIG A   1      -5.654  -2.631 128.429  0.00  0.00    +0.127 A 
BRANCH  23  24
ATOM     24  O   LIG A   1      -5.808  -2.069 127.186  0.00  0.00    -0.495 OA
ATOM     25  C   LIG A   1      -5.510  -0.679 127.088  0.00  0.00    +0.277 C 
ENDBRANCH  23  24
ENDBRANCH  14  15
ENDBRANCH   1  14
TORSDOF 7
ENDMDL
MODEL 3
REMARK VINA RESULT:      -6.7      8.540     10.751
REMARK  Name = NuBBE_1845
REMARK  9 active torsions:
REMARK  status: ('A' for Active; 'I' for Inactive)
REMARK    1  A    between atoms: O_1  and  C_2
REMARK    2  A    between atoms: C_3  and  C_4
REMARK    3  A    between atoms: C_4  and  C_5
REMARK    4  A    between atoms: C_5  and  C_6
REMARK    5  A    between atoms: C_6  and  C_7
REMARK    6  A    between atoms: C_15  and  O_16
REMARK    7  A    between atoms: O_16  and  C_17
REMARK    8  A    between atoms: C_20  and  O_21
REMARK    9  A    between atoms: C_22  and  C_23
REMARK                            x       y       z     vdW  Elec       q    Type
REMARK                         _______ _______ _______ _____ _____    ______ ____
ROOT
ATOM      1  C   LIG A   1      -9.549   4.563 132.329  0.00  0.00    +0.010 C 
ENDROOT
BRANCH   1   2
ATOM      2  C   LIG A   1     -10.050   4.514 130.882  0.00  0.00    +0.039 C 
BRANCH   2   4
ATOM      3  C   LIG A   1     -10.515   6.488 129.340  0.00  0.00    +0.126 A 
ATOM      4  C   LIG A   1     -10.821   5.760 130.501  0.00  0.00    -0.005 A 
ATOM      5  C   LIG A   1     -11.845   6.222 131.337  0.00  0.00    +0.011 A 
ATOM      6  C   LIG A   1     -12.553   7.380 131.016  0.00  0.00    +0.046 A 
ATOM      7  C   LIG A   1     -12.242   8.082 129.852  0.00  0.00    +0.123 A 
ATOM      8  C   LIG A   1     -11.228   7.648 128.986  0.00  0.00    +0.033 A 
ATOM      9  C   LIG A   1     -10.911   8.414 127.731  0.00  0.00    +0.051 C 
BRANCH   3  10
ATOM     10  O   LIG A   1      -9.488   6.015 128.565  0.00  0.00    -0.506 OA
ATOM     11  H   LIG A   1      -8.682   5.955 129.099  0.00  0.00    +0.292 HD
ENDBRANCH   3  10
BRANCH   7  12
ATOM     12  O   LIG A   1     -12.936   9.221 129.546  0.00  0.00    -0.506 OA
ATOM     13  H   LIG A   1     -13.535   9.429 130.281  0.00  0.00    +0.292 HD
ENDBRANCH   7  12
ENDBRANCH   2   4
ENDBRANCH   1   2
BRANCH   1  14
ATOM     14  C   LIG A   1      -9.051   5.965 132.695  0.00  0.00    +0.039 C 
BRANCH  14  15
ATOM     15  C   LIG A   1      -7.569   6.143 132.435  0.00  0.00    -0.002 A 
ATOM     16  C   LIG A   1      -7.156   6.808 131.263  0.00  0.00    +0.056 A 
ATOM     17  C   LIG A   1      -5.808   6.934 131.019  0.00  0.00    +0.167 A 
ATOM     18  O   LIG A   1      -5.241   7.524 129.932  0.00  0.00    -0.453 OA
ATOM     19  C   LIG A   1      -3.839   7.331 130.216  0.00  0.00    +0.466 C 
ATOM     20  O   LIG A   1      -3.596   6.638 131.457  0.00  0.00    -0.453 OA
ATOM     21  C   LIG A   1      -4.869   6.432 131.888  0.00  0.00    +0.170 A 
ATOM     22  C   LIG A   1      -5.227   5.786 133.050  0.00  0.00    +0.095 A 
ATOM     23  C   LIG A   1      -6.589   5.641 133.337  0.00  0.00    +0.127 A 
BRANCH  23  24
ATOM     24  O   LIG A   1      -7.055   4.965 134.437  0.00  0.00    -0.495 OA
ATOM     25  C   LIG A   1      -6.612   3.618 134.577  0.00  0.00    +0.277 C 
ENDBRANCH  23  24
ENDBRANCH  14  15
ENDBRANCH   1  14
TORSDOF 7
ENDMDL
MODEL 4
REMARK VINA RESULT:      -6.7      8.484     11.406
REMARK  Name = NuBBE_1845
REMARK  9 active torsions:
REMARK  status: ('A' for Active; 'I' for Inactive)
REMARK    1  A    between atoms: O_1  and  C_2
REMARK    2  A    between atoms: C_3  and  C_4
REMARK    3  A    between atoms: C_4  and  C_5
REMARK    4  A    between atoms: C_5  and  C_6
REMARK    5  A    between atoms: C_6  and  C_7
REMARK    6  A    between atoms: C_15  and  O_16
REMARK    7  A    between atoms: O_16  and  C_17
REMARK    8  A    between atoms: C_20  and  O_21
REMARK    9  A    between atoms: C_22  and  C_23
REMARK                            x       y       z     vdW  Elec       q    Type
REMARK                         _______ _______ _______ _____ _____    ______ ____
ROOT
ATOM      1  C   LIG A   1      -9.047   5.985 132.068  0.00  0.00    +0.010 C 
ENDROOT
BRANCH   1   2
ATOM      2  C   LIG A   1     -10.016   5.366 131.056  0.00  0.00    +0.039 C 
BRANCH   2   4
ATOM      3  C   LIG A   1     -10.554   6.711 128.960  0.00  0.00    +0.126 A 
ATOM      4  C   LIG A   1     -10.811   6.415 130.309  0.00  0.00    -0.005 A 
ATOM      5  C   LIG A   1     -11.808   7.135 130.980  0.00  0.00    +0.011 A 
ATOM      6  C   LIG A   1     -12.537   8.121 130.316  0.00  0.00    +0.046 A 
ATOM      7  C   LIG A   1     -12.275   8.391 128.973  0.00  0.00    +0.123 A 
ATOM      8  C   LIG A   1     -11.290   7.688 128.265  0.00  0.00    +0.033 A 
ATOM      9  C   LIG A   1     -11.025   7.988 126.816  0.00  0.00    +0.051 C 
BRANCH   3  10
ATOM     10  O   LIG A   1      -9.552   6.002 128.351  0.00  0.00    -0.506 OA
ATOM     11  H   LIG A   1      -8.732   6.100 128.858  0.00  0.00    +0.292 HD
ENDBRANCH   3  10
BRANCH   7  12
ATOM     12  O   LIG A   1     -12.990   9.364 128.329  0.00  0.00    -0.506 OA
ATOM     13  H   LIG A   1     -12.438  10.159 128.253  0.00  0.00    +0.292 HD
ENDBRANCH   7  12
ENDBRANCH   2   4
ENDBRANCH   1   2
BRANCH   1  14
ATOM     14  C   LIG A   1      -7.877   6.679 131.361  0.00  0.00    +0.039 C 
BRANCH  14  15
ATOM     15  C   LIG A   1      -6.541   6.365 132.003  0.00  0.00    -0.002 A 
ATOM     16  C   LIG A   1      -6.517   5.621 133.200  0.00  0.00    +0.056 A 
ATOM     17  C   LIG A   1      -5.301   5.370 133.794  0.00  0.00    +0.167 A 
ATOM     18  O   LIG A   1      -5.101   4.691 134.956  0.00  0.00    -0.453 OA
ATOM     19  C   LIG A   1      -3.665   4.775 135.077  0.00  0.00    +0.466 C 
ATOM     20  O   LIG A   1      -3.040   5.492 133.994  0.00  0.00    -0.453 OA
ATOM     21  C   LIG A   1      -4.125   5.823 133.246  0.00  0.00    +0.170 A 
ATOM     22  C   LIG A   1      -4.101   6.543 132.073  0.00  0.00    +0.095 A 
ATOM     23  C   LIG A   1      -5.317   6.815 131.434  0.00  0.00    +0.127 A 
BRANCH  23  24
ATOM     24  O   LIG A   1      -5.411   7.571 130.293  0.00  0.00    -0.495 OA
ATOM     25  C   LIG A   1      -4.206   8.188 129.851  0.00  0.00    +0.277 C 
ENDBRANCH  23  24
ENDBRANCH  14  15
ENDBRANCH   1  14
TORSDOF 7
ENDMDL
MODEL 5
REMARK VINA RESULT:      -6.6      2.432      4.136
REMARK  Name = NuBBE_1845
REMARK  9 active torsions:
REMARK  status: ('A' for Active; 'I' for Inactive)
REMARK    1  A    between atoms: O_1  and  C_2
REMARK    2  A    between atoms: C_3  and  C_4
REMARK    3  A    between atoms: C_4  and  C_5
REMARK    4  A    between atoms: C_5  and  C_6
REMARK    5  A    between atoms: C_6  and  C_7
REMARK    6  A    between atoms: C_15  and  O_16
REMARK    7  A    between atoms: O_16  and  C_17
REMARK    8  A    between atoms: C_20  and  O_21
REMARK    9  A    between atoms: C_22  and  C_23
REMARK                            x       y       z     vdW  Elec       q    Type
REMARK                         _______ _______ _______ _____ _____    ______ ____
ROOT
ATOM      1  C   LIG A   1      -8.858  -3.657 124.660  0.00  0.00    +0.010 C 
ENDROOT
BRANCH   1   2
ATOM      2  C   LIG A   1      -9.570  -2.865 125.762  0.00  0.00    +0.039 C 
BRANCH   2   4
ATOM      3  C   LIG A   1      -7.987  -1.648 127.344  0.00  0.00    +0.126 A 
ATOM      4  C   LIG A   1      -8.749  -2.785 127.030  0.00  0.00    -0.005 A 
ATOM      5  C   LIG A   1      -8.719  -3.879 127.905  0.00  0.00    +0.011 A 
ATOM      6  C   LIG A   1      -7.952  -3.835 129.069  0.00  0.00    +0.046 A 
ATOM      7  C   LIG A   1      -7.212  -2.691 129.368  0.00  0.00    +0.123 A 
ATOM      8  C   LIG A   1      -7.221  -1.573 128.522  0.00  0.00    +0.033 A 
ATOM      9  C   LIG A   1      -6.422  -0.346 128.864  0.00  0.00    +0.051 C 
BRANCH   3  10
ATOM     10  O   LIG A   1      -8.025  -0.612 126.448  0.00  0.00    -0.506 OA
ATOM     11  H   LIG A   1      -8.904  -0.564 126.044  0.00  0.00    +0.292 HD
ENDBRANCH   3  10
BRANCH   7  12
ATOM     12  O   LIG A   1      -6.456  -2.657 130.508  0.00  0.00    -0.506 OA
ATOM     13  H   LIG A   1      -5.645  -2.154 130.331  0.00  0.00    +0.292 HD
ENDBRANCH   7  12
ENDBRANCH   2   4
ENDBRANCH   1   2
BRANCH   1  14
ATOM     14  C   LIG A   1      -9.039  -2.989 123.293  0.00  0.00    +0.039 C 
BRANCH  14  15
ATOM     15  C   LIG A   1      -8.491  -1.577 123.259  0.00  0.00    -0.002 A 
ATOM     16  C   LIG A   1      -9.394  -0.495 123.215  0.00  0.00    +0.056 A 
ATOM     17  C   LIG A   1      -8.887   0.782 123.150  0.00  0.00    +0.167 A 
ATOM     18  O   LIG A   1      -9.613   1.931 123.080  0.00  0.00    -0.453 OA
ATOM     19  C   LIG A   1      -8.560   2.916 123.009  0.00  0.00    +0.466 C 
ATOM     20  O   LIG A   1      -7.237   2.343 123.041  0.00  0.00    -0.453 OA
ATOM     21  C   LIG A   1      -7.533   1.020 123.131  0.00  0.00    +0.170 A 
ATOM     22  C   LIG A   1      -6.616  -0.005 123.183  0.00  0.00    +0.095 A 
ATOM     23  C   LIG A   1      -7.092  -1.320 123.255  0.00  0.00    +0.127 A 
BRANCH  23  24
ATOM     24  O   LIG A   1      -6.266  -2.417 123.255  0.00  0.00    -0.495 OA
ATOM     25  C   LIG A   1      -5.370  -2.525 124.358  0.00  0.00    +0.277 C 
ENDBRANCH  23  24
ENDBRANCH  14  15
ENDBRANCH   1  14
TORSDOF 7
ENDMDL
MODEL 6
REMARK VINA RESULT:      -6.5      1.622      3.026
REMARK  Name = NuBBE_1845
REMARK  9 active torsions:
REMARK  status: ('A' for Active; 'I' for Inactive)
REMARK    1  A    between atoms: O_1  and  C_2
REMARK    2  A    between atoms: C_3  and  C_4
REMARK    3  A    between atoms: C_4  and  C_5
REMARK    4  A    between atoms: C_5  and  C_6
REMARK    5  A    between atoms: C_6  and  C_7
REMARK    6  A    between atoms: C_15  and  O_16
REMARK    7  A    between atoms: O_16  and  C_17
REMARK    8  A    between atoms: C_20  and  O_21
REMARK    9  A    between atoms: C_22  and  C_23
REMARK                            x       y       z     vdW  Elec       q    Type
REMARK                         _______ _______ _______ _____ _____    ______ ____
ROOT
ATOM      1  C   LIG A   1      -5.936   1.621 126.263  0.00  0.00    +0.010 C 
ENDROOT
BRANCH   1   2
ATOM      2  C   LIG A   1      -5.895   0.546 125.172  0.00  0.00    +0.039 C 
BRANCH   2   4
ATOM      3  C   LIG A   1      -7.629  -1.042 124.193  0.00  0.00    +0.126 A 
ATOM      4  C   LIG A   1      -7.019  -0.456 125.314  0.00  0.00    -0.005 A 
ATOM      5  C   LIG A   1      -7.491  -0.790 126.590  0.00  0.00    +0.011 A 
ATOM      6  C   LIG A   1      -8.541  -1.696 126.742  0.00  0.00    +0.046 A 
ATOM      7  C   LIG A   1      -9.125  -2.275 125.616  0.00  0.00    +0.123 A 
ATOM      8  C   LIG A   1      -8.677  -1.972 124.323  0.00  0.00    +0.033 A 
ATOM      9  C   LIG A   1      -9.314  -2.612 123.121  0.00  0.00    +0.051 C 
BRANCH   3  10
ATOM     10  O   LIG A   1      -7.155  -0.666 122.964  0.00  0.00    -0.506 OA
ATOM     11  H   LIG A   1      -6.351  -1.168 122.759  0.00  0.00    +0.292 HD
ENDBRANCH   3  10
BRANCH   7  12
ATOM     12  O   LIG A   1     -10.159  -3.158 125.773  0.00  0.00    -0.506 OA
ATOM     13  H   LIG A   1      -9.824  -3.959 126.206  0.00  0.00    +0.292 HD
ENDBRANCH   7  12
ENDBRANCH   2   4
ENDBRANCH   1   2
BRANCH   1  14
ATOM     14  C   LIG A   1      -6.951   2.717 125.922  0.00  0.00    +0.039 C 
BRANCH  14  15
ATOM     15  C   LIG A   1      -7.067   2.959 124.431  0.00  0.00    -0.002 A 
ATOM     16  C   LIG A   1      -5.971   3.515 123.742  0.00  0.00    +0.056 A 
ATOM     17  C   LIG A   1      -6.098   3.763 122.395  0.00  0.00    +0.167 A 
ATOM     18  O   LIG A   1      -5.151   4.313 121.587  0.00  0.00    -0.453 OA
ATOM     19  C   LIG A   1      -5.853   4.346 120.326  0.00  0.00    +0.466 C 
ATOM     20  O   LIG A   1      -7.191   3.817 120.402  0.00  0.00    -0.453 OA
ATOM     21  C   LIG A   1      -7.259   3.478 121.717  0.00  0.00    +0.170 A 
ATOM     22  C   LIG A   1      -8.350   2.924 122.347  0.00  0.00    +0.095 A 
ATOM     23  C   LIG A   1      -8.260   2.652 123.717  0.00  0.00    +0.127 A 
BRANCH  23  24
ATOM     24  O   LIG A   1      -9.306   2.154 124.453  0.00  0.00    -0.495 OA
ATOM     25  C   LIG A   1     -10.236   1.341 123.745  0.00  0.00    +0.277 C 
ENDBRANCH  23  24
ENDBRANCH  14  15
ENDBRANCH   1  14
TORSDOF 7
ENDMDL
MODEL 7
REMARK VINA RESULT:      -6.5      7.731      9.855
REMARK  Name = NuBBE_1845
REMARK  9 active torsions:
REMARK  status: ('A' for Active; 'I' for Inactive)
REMARK    1  A    between atoms: O_1  and  C_2
REMARK    2  A    between atoms: C_3  and  C_4
REMARK    3  A    between atoms: C_4  and  C_5
REMARK    4  A    between atoms: C_5  and  C_6
REMARK    5  A    between atoms: C_6  and  C_7
REMARK    6  A    between atoms: C_15  and  O_16
REMARK    7  A    between atoms: O_16  and  C_17
REMARK    8  A    between atoms: C_20  and  O_21
REMARK    9  A    between atoms: C_22  and  C_23
REMARK                            x       y       z     vdW  Elec       q    Type
REMARK                         _______ _______ _______ _____ _____    ______ ____
ROOT
ATOM      1  C   LIG A   1      -6.125   7.088 130.985  0.00  0.00    +0.010 C 
ENDROOT
BRANCH   1   2
ATOM      2  C   LIG A   1      -4.683   6.715 131.342  0.00  0.00    +0.039 C 
BRANCH   2   4
ATOM      3  C   LIG A   1      -4.142   4.663 129.931  0.00  0.00    +0.126 A 
ATOM      4  C   LIG A   1      -3.968   6.032 130.196  0.00  0.00    -0.005 A 
ATOM      5  C   LIG A   1      -3.087   6.768 129.393  0.00  0.00    +0.011 A 
ATOM      6  C   LIG A   1      -2.402   6.153 128.346  0.00  0.00    +0.046 A 
ATOM      7  C   LIG A   1      -2.598   4.796 128.092  0.00  0.00    +0.123 A 
ATOM      8  C   LIG A   1      -3.475   4.026 128.868  0.00  0.00    +0.033 A 
ATOM      9  C   LIG A   1      -3.679   2.565 128.576  0.00  0.00    +0.051 C 
BRANCH   3  10
ATOM     10  O   LIG A   1      -4.992   3.976 130.757  0.00  0.00    -0.506 OA
ATOM     11  H   LIG A   1      -5.294   4.561 131.469  0.00  0.00    +0.292 HD
ENDBRANCH   3  10
BRANCH   7  12
ATOM     12  O   LIG A   1      -1.917   4.197 127.066  0.00  0.00    -0.506 OA
ATOM     13  H   LIG A   1      -1.284   3.563 127.439  0.00  0.00    +0.292 HD
ENDBRANCH   7  12
ENDBRANCH   2   4
ENDBRANCH   1   2
BRANCH   1  14
ATOM     14  C   LIG A   1      -7.123   6.407 131.928  0.00  0.00    +0.039 C 
BRANCH  14  15
ATOM     15  C   LIG A   1      -8.449   6.113 131.257  0.00  0.00    -0.002 A 
ATOM     16  C   LIG A   1      -9.068   7.123 130.495  0.00  0.00    +0.056 A 
ATOM     17  C   LIG A   1     -10.288   6.858 129.918  0.00  0.00    +0.167 A 
ATOM     18  O   LIG A   1     -11.029   7.723 129.173  0.00  0.00    -0.453 OA
ATOM     19  C   LIG A   1     -12.183   6.908 128.876  0.00  0.00    +0.466 C 
ATOM     20  O   LIG A   1     -12.110   5.584 129.440  0.00  0.00    -0.453 OA
ATOM     21  C   LIG A   1     -10.904   5.638 130.066  0.00  0.00    +0.170 A 
ATOM     22  C   LIG A   1     -10.331   4.619 130.792  0.00  0.00    +0.095 A 
ATOM     23  C   LIG A   1      -9.087   4.848 131.392  0.00  0.00    +0.127 A 
BRANCH  23  24
ATOM     24  O   LIG A   1      -8.454   3.922 132.182  0.00  0.00    -0.495 OA
ATOM     25  C   LIG A   1      -9.277   2.885 132.711  0.00  0.00    +0.277 C 
ENDBRANCH  23  24
ENDBRANCH  14  15
ENDBRANCH   1  14
TORSDOF 7
ENDMDL
MODEL 8
REMARK VINA RESULT:      -6.5      7.601      9.879
REMARK  Name = NuBBE_1845
REMARK  9 active torsions:
REMARK  status: ('A' for Active; 'I' for Inactive)
REMARK    1  A    between atoms: O_1  and  C_2
REMARK    2  A    between atoms: C_3  and  C_4
REMARK    3  A    between atoms: C_4  and  C_5
REMARK    4  A    between atoms: C_5  and  C_6
REMARK    5  A    between atoms: C_6  and  C_7
REMARK    6  A    between atoms: C_15  and  O_16
REMARK    7  A    between atoms: O_16  and  C_17
REMARK    8  A    between atoms: C_20  and  O_21
REMARK    9  A    between atoms: C_22  and  C_23
REMARK                            x       y       z     vdW  Elec       q    Type
REMARK                         _______ _______ _______ _____ _____    ______ ____
ROOT
ATOM      1  C   LIG A   1      -8.089   7.029 130.998  0.00  0.00    +0.010 C 
ENDROOT
BRANCH   1   2
ATOM      2  C   LIG A   1      -9.227   6.037 130.735  0.00  0.00    +0.039 C 
BRANCH   2   4
ATOM      3  C   LIG A   1     -10.483   6.735 128.631  0.00  0.00    +0.126 A 
ATOM      4  C   LIG A   1     -10.399   6.686 130.033  0.00  0.00    -0.005 A 
ATOM      5  C   LIG A   1     -11.417   7.280 130.790  0.00  0.00    +0.011 A 
ATOM      6  C   LIG A   1     -12.496   7.902 130.162  0.00  0.00    +0.046 A 
ATOM      7  C   LIG A   1     -12.565   7.930 128.770  0.00  0.00    +0.123 A 
ATOM      8  C   LIG A   1     -11.571   7.341 127.977  0.00  0.00    +0.033 A 
ATOM      9  C   LIG A   1     -11.666   7.374 126.476  0.00  0.00    +0.051 C 
BRANCH   3  10
ATOM     10  O   LIG A   1      -9.453   6.165 127.930  0.00  0.00    -0.506 OA
ATOM     11  H   LIG A   1      -9.691   6.109 126.992  0.00  0.00    +0.292 HD
ENDBRANCH   3  10
BRANCH   7  12
ATOM     12  O   LIG A   1     -13.624   8.548 128.161  0.00  0.00    -0.506 OA
ATOM     13  H   LIG A   1     -14.429   8.034 128.334  0.00  0.00    +0.292 HD
ENDBRANCH   7  12
ENDBRANCH   2   4
ENDBRANCH   1   2
BRANCH   1  14
ATOM     14  C   LIG A   1      -6.980   6.388 131.841  0.00  0.00    +0.039 C 
BRANCH  14  15
ATOM     15  C   LIG A   1      -5.744   6.066 131.028  0.00  0.00    -0.002 A 
ATOM     16  C   LIG A   1      -5.105   7.102 130.318  0.00  0.00    +0.056 A 
ATOM     17  C   LIG A   1      -4.002   6.794 129.554  0.00  0.00    +0.167 A 
ATOM     18  O   LIG A   1      -3.284   7.663 128.794  0.00  0.00    -0.453 OA
ATOM     19  C   LIG A   1      -2.296   6.778 128.225  0.00  0.00    +0.466 C 
ATOM     20  O   LIG A   1      -2.438   5.410 128.656  0.00  0.00    -0.453 OA
ATOM     21  C   LIG A   1      -3.517   5.510 129.477  0.00  0.00    +0.170 A 
ATOM     22  C   LIG A   1      -4.102   4.470 130.163  0.00  0.00    +0.095 A 
ATOM     23  C   LIG A   1      -5.224   4.744 130.955  0.00  0.00    +0.127 A 
BRANCH  23  24
ATOM     24  O   LIG A   1      -5.916   3.773 131.633  0.00  0.00    -0.495 OA
ATOM     25  C   LIG A   1      -6.565   2.790 130.830  0.00  0.00    +0.277 C 
ENDBRANCH  23  24
ENDBRANCH  14  15
ENDBRANCH   1  14
TORSDOF 7
ENDMDL
MODEL 9
REMARK VINA RESULT:      -6.4      1.872      7.315
REMARK  Name = NuBBE_1845
REMARK  9 active torsions:
REMARK  status: ('A' for Active; 'I' for Inactive)
REMARK    1  A    between atoms: O_1  and  C_2
REMARK    2  A    between atoms: C_3  and  C_4
REMARK    3  A    between atoms: C_4  and  C_5
REMARK    4  A    between atoms: C_5  and  C_6
REMARK    5  A    between atoms: C_6  and  C_7
REMARK    6  A    between atoms: C_15  and  O_16
REMARK    7  A    between atoms: O_16  and  C_17
REMARK    8  A    between atoms: C_20  and  O_21
REMARK    9  A    between atoms: C_22  and  C_23
REMARK                            x       y       z     vdW  Elec       q    Type
REMARK                         _______ _______ _______ _____ _____    ______ ____
ROOT
ATOM      1  C   LIG A   1      -7.669   3.457 123.972  0.00  0.00    +0.010 C 
ENDROOT
BRANCH   1   2
ATOM      2  C   LIG A   1      -6.576   2.851 123.086  0.00  0.00    +0.039 C 
BRANCH   2   4
ATOM      3  C   LIG A   1      -7.364   3.694 120.815  0.00  0.00    +0.126 A 
ATOM      4  C   LIG A   1      -6.373   3.637 121.809  0.00  0.00    -0.005 A 
ATOM      5  C   LIG A   1      -5.160   4.302 121.591  0.00  0.00    +0.011 A 
ATOM      6  C   LIG A   1      -4.945   5.015 120.412  0.00  0.00    +0.046 A 
ATOM      7  C   LIG A   1      -5.946   5.069 119.443  0.00  0.00    +0.123 A 
ATOM      8  C   LIG A   1      -7.176   4.422 119.626  0.00  0.00    +0.033 A 
ATOM      9  C   LIG A   1      -8.247   4.497 118.573  0.00  0.00    +0.051 C 
BRANCH   3  10
ATOM     10  O   LIG A   1      -8.525   3.007 121.058  0.00  0.00    -0.506 OA
ATOM     11  H   LIG A   1      -8.762   2.487 120.277  0.00  0.00    +0.292 HD
ENDBRANCH   3  10
BRANCH   7  12
ATOM     12  O   LIG A   1      -5.726   5.764 118.284  0.00  0.00    -0.506 OA
ATOM     13  H   LIG A   1      -5.552   5.133 117.568  0.00  0.00    +0.292 HD
ENDBRANCH   7  12
ENDBRANCH   2   4
ENDBRANCH   1   2
BRANCH   1  14
ATOM     14  C   LIG A   1      -7.956   2.565 125.185  0.00  0.00    +0.039 C 
BRANCH  14  15
ATOM     15  C   LIG A   1      -7.865   1.089 124.856  0.00  0.00    -0.002 A 
ATOM     16  C   LIG A   1      -8.924   0.479 124.154  0.00  0.00    +0.056 A 
ATOM     17  C   LIG A   1      -8.848  -0.869 123.889  0.00  0.00    +0.167 A 
ATOM     18  O   LIG A   1      -9.786  -1.615 123.246  0.00  0.00    -0.453 OA
ATOM     19  C   LIG A   1      -9.175  -2.922 123.292  0.00  0.00    +0.466 C 
ATOM     20  O   LIG A   1      -7.894  -2.932 123.953  0.00  0.00    -0.453 OA
ATOM     21  C   LIG A   1      -7.768  -1.621 124.289  0.00  0.00    +0.170 A 
ATOM     22  C   LIG A   1      -6.707  -1.065 124.966  0.00  0.00    +0.095 A 
ATOM     23  C   LIG A   1      -6.745   0.306 125.251  0.00  0.00    +0.127 A 
BRANCH  23  24
ATOM     24  O   LIG A   1      -5.768   0.949 125.969  0.00  0.00    -0.495 OA
ATOM     25  C   LIG A   1      -5.496   0.422 127.265  0.00  0.00    +0.277 C 
ENDBRANCH  23  24
ENDBRANCH  14  15
ENDBRANCH   1  14
TORSDOF 7
ENDMDL
