MODEL 1
REMARK VINA RESULT:      -7.8      0.000      0.000
REMARK  Name = NuBBE_143
REMARK  9 active torsions:
REMARK  status: ('A' for Active; 'I' for Inactive)
REMARK    1  A    between atoms: C_1  and  C_2
REMARK    2  A    between atoms: C_2  and  C_3
REMARK    3  A    between atoms: C_7  and  C_8
REMARK    4  A    between atoms: C_11  and  O_13
REMARK    5  A    between atoms: O_13  and  C_14
REMARK    6  A    between atoms: C_14  and  C_15
REMARK    7  A    between atoms: C_18  and  C_19
REMARK    8  A    between atoms: C_23  and  C_24
REMARK    9  A    between atoms: C_23  and  C_25
REMARK                            x       y       z     vdW  Elec       q    Type
REMARK                         _______ _______ _______ _____ _____    ______ ____
ROOT
ATOM      1  C   LIG A   1      -8.408   1.642 130.423  0.00  0.00    +0.011 C 
ATOM      2  C   LIG A   1      -8.231   2.877 131.342  0.00  0.00    -0.028 C 
ATOM      3  C   LIG A   1      -6.713   3.154 131.384  0.00  0.00    +0.011 C 
ATOM      4  C   LIG A   1      -8.711   2.402 132.747  0.00  0.00    +0.007 C 
ATOM      5  C   LIG A   1      -8.840   3.499 133.793  0.00  0.00    +0.001 C 
ATOM      6  C   LIG A   1      -9.696   4.654 133.282  0.00  0.00    +0.007 C 
ATOM      7  C   LIG A   1      -9.206   5.281 131.941  0.00  0.00    -0.020 C 
ATOM      8  C   LIG A   1      -7.835   5.955 132.235  0.00  0.00    +0.012 C 
ATOM      9  C   LIG A   1      -9.115   4.118 130.862  0.00  0.00    +0.042 C 
ATOM     10  C   LIG A   1      -8.805   4.712 129.456  0.00  0.00    +0.183 C 
ATOM     11  C   LIG A   1      -9.804   5.806 129.034  0.00  0.00    +0.080 C 
ATOM     12  C   LIG A   1      -9.978   6.962 130.014  0.00  0.00    +0.074 C 
ATOM     13  C   LIG A   1      -8.764   7.908 129.917  0.00  0.00    +0.042 C 
ATOM     14  C   LIG A   1     -10.204   6.440 131.471  0.00  0.00    +0.027 C 
ATOM     15  C   LIG A   1     -11.691   6.107 131.675  0.00  0.00    +0.010 C 
ATOM     16  C   LIG A   1     -12.512   7.353 131.390  0.00  0.00    +0.039 C 
ATOM     17  C   LIG A   1     -12.368   7.805 129.940  0.00  0.00    +0.085 C 
ATOM     18  C   LIG A   1     -12.791   9.284 129.836  0.00  0.00    +0.046 C 
ATOM     19  O   LIG A   1     -11.016   7.818 129.487  0.00  0.00    -0.363 OA
ENDROOT
BRANCH  17  20
ATOM     20  C   LIG A   1     -13.216   6.930 129.030  0.00  0.00    -0.001 C 
ATOM     21  C   LIG A   1     -13.319   7.025 127.693  0.00  0.00    +0.007 C 
ENDBRANCH  17  20
BRANCH  10  22
ATOM     22  O   LIG A   1      -8.665   3.748 128.378  0.00  0.00    -0.461 OA
BRANCH  22  23
ATOM     23  C   LIG A   1      -7.861   3.987 127.303  0.00  0.00    +0.304 C 
ATOM     24  C   LIG A   1      -6.430   4.028 127.741  0.00  0.00    +0.136 C 
ATOM     25  O   LIG A   1      -8.226   4.184 126.154  0.00  0.00    -0.251 OA
ENDBRANCH  22  23
ENDBRANCH  10  22
TORSDOF 3
ENDMDL
MODEL 2
REMARK VINA RESULT:      -7.7      6.263      9.370
REMARK  Name = NuBBE_143
REMARK  9 active torsions:
REMARK  status: ('A' for Active; 'I' for Inactive)
REMARK    1  A    between atoms: C_1  and  C_2
REMARK    2  A    between atoms: C_2  and  C_3
REMARK    3  A    between atoms: C_7  and  C_8
REMARK    4  A    between atoms: C_11  and  O_13
REMARK    5  A    between atoms: O_13  and  C_14
REMARK    6  A    between atoms: C_14  and  C_15
REMARK    7  A    between atoms: C_18  and  C_19
REMARK    8  A    between atoms: C_23  and  C_24
REMARK    9  A    between atoms: C_23  and  C_25
REMARK                            x       y       z     vdW  Elec       q    Type
REMARK                         _______ _______ _______ _____ _____    ______ ____
ROOT
ATOM      1  C   LIG A   1      -4.889   4.584 123.615  0.00  0.00    +0.011 C 
ATOM      2  C   LIG A   1      -5.628   4.016 124.852  0.00  0.00    -0.028 C 
ATOM      3  C   LIG A   1      -6.813   4.972 125.108  0.00  0.00    +0.011 C 
ATOM      4  C   LIG A   1      -4.603   4.136 126.020  0.00  0.00    +0.007 C 
ATOM      5  C   LIG A   1      -5.010   3.445 127.312  0.00  0.00    +0.001 C 
ATOM      6  C   LIG A   1      -5.392   1.989 127.066  0.00  0.00    +0.007 C 
ATOM      7  C   LIG A   1      -6.513   1.784 126.002  0.00  0.00    -0.020 C 
ATOM      8  C   LIG A   1      -7.814   2.400 126.595  0.00  0.00    +0.012 C 
ATOM      9  C   LIG A   1      -6.045   2.487 124.656  0.00  0.00    +0.042 C 
ATOM     10  C   LIG A   1      -7.041   2.161 123.504  0.00  0.00    +0.183 C 
ATOM     11  C   LIG A   1      -7.263   0.650 123.313  0.00  0.00    +0.080 C 
ATOM     12  C   LIG A   1      -7.699  -0.122 124.555  0.00  0.00    +0.074 C 
ATOM     13  C   LIG A   1      -9.190   0.152 124.834  0.00  0.00    +0.042 C 
ATOM     14  C   LIG A   1      -6.795   0.224 125.783  0.00  0.00    +0.027 C 
ATOM     15  C   LIG A   1      -5.525  -0.642 125.749  0.00  0.00    +0.010 C 
ATOM     16  C   LIG A   1      -5.935  -2.105 125.747  0.00  0.00    +0.039 C 
ATOM     17  C   LIG A   1      -6.734  -2.466 124.499  0.00  0.00    +0.085 C 
ATOM     18  C   LIG A   1      -7.522  -3.763 124.771  0.00  0.00    +0.046 C 
ATOM     19  O   LIG A   1      -7.756  -1.520 124.193  0.00  0.00    -0.363 OA
ENDROOT
BRANCH  17  20
ATOM     20  C   LIG A   1      -5.803  -2.633 123.308  0.00  0.00    -0.001 C 
ATOM     21  C   LIG A   1      -4.637  -3.300 123.288  0.00  0.00    +0.007 C 
ENDBRANCH  17  20
BRANCH  10  22
ATOM     22  O   LIG A   1      -6.744   2.770 122.218  0.00  0.00    -0.461 OA
BRANCH  22  23
ATOM     23  C   LIG A   1      -7.711   3.377 121.473  0.00  0.00    +0.304 C 
ATOM     24  C   LIG A   1      -7.096   3.999 120.257  0.00  0.00    +0.136 C 
ATOM     25  O   LIG A   1      -8.899   3.453 121.749  0.00  0.00    -0.251 OA
ENDBRANCH  22  23
ENDBRANCH  10  22
TORSDOF 3
ENDMDL
MODEL 3
REMARK VINA RESULT:      -7.2      5.625      8.797
REMARK  Name = NuBBE_143
REMARK  9 active torsions:
REMARK  status: ('A' for Active; 'I' for Inactive)
REMARK    1  A    between atoms: C_1  and  C_2
REMARK    2  A    between atoms: C_2  and  C_3
REMARK    3  A    between atoms: C_7  and  C_8
REMARK    4  A    between atoms: C_11  and  O_13
REMARK    5  A    between atoms: O_13  and  C_14
REMARK    6  A    between atoms: C_14  and  C_15
REMARK    7  A    between atoms: C_18  and  C_19
REMARK    8  A    between atoms: C_23  and  C_24
REMARK    9  A    between atoms: C_23  and  C_25
REMARK                            x       y       z     vdW  Elec       q    Type
REMARK                         _______ _______ _______ _____ _____    ______ ____
ROOT
ATOM      1  C   LIG A   1      -7.512  -3.745 124.843  0.00  0.00    +0.011 C 
ATOM      2  C   LIG A   1      -8.416  -2.490 124.751  0.00  0.00    -0.028 C 
ATOM      3  C   LIG A   1      -9.735  -2.871 125.457  0.00  0.00    +0.011 C 
ATOM      4  C   LIG A   1      -8.680  -2.299 123.227  0.00  0.00    +0.007 C 
ATOM      5  C   LIG A   1      -9.374  -0.999 122.848  0.00  0.00    +0.001 C 
ATOM      6  C   LIG A   1      -8.649   0.208 123.434  0.00  0.00    +0.007 C 
ATOM      7  C   LIG A   1      -8.460   0.162 124.981  0.00  0.00    -0.020 C 
ATOM      8  C   LIG A   1      -9.880   0.257 125.610  0.00  0.00    +0.012 C 
ATOM      9  C   LIG A   1      -7.704  -1.188 125.341  0.00  0.00    +0.042 C 
ATOM     10  C   LIG A   1      -7.325  -1.206 126.852  0.00  0.00    +0.183 C 
ATOM     11  C   LIG A   1      -6.520   0.033 127.283  0.00  0.00    +0.080 C 
ATOM     12  C   LIG A   1      -7.154   1.384 126.965  0.00  0.00    +0.074 C 
ATOM     13  C   LIG A   1      -8.292   1.667 127.965  0.00  0.00    +0.042 C 
ATOM     14  C   LIG A   1      -7.642   1.444 125.480  0.00  0.00    +0.027 C 
ATOM     15  C   LIG A   1      -6.469   1.834 124.566  0.00  0.00    +0.010 C 
ATOM     16  C   LIG A   1      -5.914   3.169 125.030  0.00  0.00    +0.039 C 
ATOM     17  C   LIG A   1      -5.347   3.085 126.444  0.00  0.00    +0.085 C 
ATOM     18  C   LIG A   1      -5.264   4.508 127.031  0.00  0.00    +0.046 C 
ATOM     19  O   LIG A   1      -6.208   2.404 127.355  0.00  0.00    -0.363 OA
ENDROOT
BRANCH  17  20
ATOM     20  C   LIG A   1      -3.978   2.422 126.423  0.00  0.00    -0.001 C 
ATOM     21  C   LIG A   1      -2.791   3.027 126.597  0.00  0.00    +0.007 C 
ENDBRANCH  17  20
BRANCH  10  22
ATOM     22  O   LIG A   1      -6.652  -2.405 127.323  0.00  0.00    -0.461 OA
BRANCH  22  23
ATOM     23  C   LIG A   1      -6.834  -2.879 128.588  0.00  0.00    +0.304 C 
ATOM     24  C   LIG A   1      -8.263  -3.287 128.774  0.00  0.00    +0.136 C 
ATOM     25  O   LIG A   1      -5.990  -2.935 129.470  0.00  0.00    -0.251 OA
ENDBRANCH  22  23
ENDBRANCH  10  22
TORSDOF 3
ENDMDL
MODEL 4
REMARK VINA RESULT:      -7.2      6.415      9.524
REMARK  Name = NuBBE_143
REMARK  9 active torsions:
REMARK  status: ('A' for Active; 'I' for Inactive)
REMARK    1  A    between atoms: C_1  and  C_2
REMARK    2  A    between atoms: C_2  and  C_3
REMARK    3  A    between atoms: C_7  and  C_8
REMARK    4  A    between atoms: C_11  and  O_13
REMARK    5  A    between atoms: O_13  and  C_14
REMARK    6  A    between atoms: C_14  and  C_15
REMARK    7  A    between atoms: C_18  and  C_19
REMARK    8  A    between atoms: C_23  and  C_24
REMARK    9  A    between atoms: C_23  and  C_25
REMARK                            x       y       z     vdW  Elec       q    Type
REMARK                         _______ _______ _______ _____ _____    ______ ____
ROOT
ATOM      1  C   LIG A   1      -8.591   0.791 123.550  0.00  0.00    +0.011 C 
ATOM      2  C   LIG A   1      -8.034  -0.645 123.723  0.00  0.00    -0.028 C 
ATOM      3  C   LIG A   1      -6.797  -0.728 122.802  0.00  0.00    +0.011 C 
ATOM      4  C   LIG A   1      -9.155  -1.577 123.171  0.00  0.00    +0.007 C 
ATOM      5  C   LIG A   1      -8.944  -3.062 123.422  0.00  0.00    +0.001 C 
ATOM      6  C   LIG A   1      -8.676  -3.342 124.898  0.00  0.00    +0.007 C 
ATOM      7  C   LIG A   1      -7.478  -2.546 125.501  0.00  0.00    -0.020 C 
ATOM      8  C   LIG A   1      -6.192  -3.070 124.798  0.00  0.00    +0.012 C 
ATOM      9  C   LIG A   1      -7.744  -1.000 125.252  0.00  0.00    +0.042 C 
ATOM     10  C   LIG A   1      -6.672  -0.145 125.991  0.00  0.00    +0.183 C 
ATOM     11  C   LIG A   1      -6.572  -0.474 127.492  0.00  0.00    +0.080 C 
ATOM     12  C   LIG A   1      -6.336  -1.941 127.838  0.00  0.00    +0.074 C 
ATOM     13  C   LIG A   1      -4.861  -2.302 127.571  0.00  0.00    +0.042 C 
ATOM     14  C   LIG A   1      -7.322  -2.872 127.060  0.00  0.00    +0.027 C 
ATOM     15  C   LIG A   1      -8.657  -2.960 127.818  0.00  0.00    +0.010 C 
ATOM     16  C   LIG A   1      -8.385  -3.474 129.222  0.00  0.00    +0.039 C 
ATOM     17  C   LIG A   1      -7.503  -2.515 130.014  0.00  0.00    +0.085 C 
ATOM     18  C   LIG A   1      -6.870  -3.282 131.193  0.00  0.00    +0.046 C 
ATOM     19  O   LIG A   1      -6.372  -2.053 129.278  0.00  0.00    -0.363 OA
ENDROOT
BRANCH  17  20
ATOM     20  C   LIG A   1      -8.323  -1.333 130.509  0.00  0.00    -0.001 C 
ATOM     21  C   LIG A   1      -7.847  -0.178 131.004  0.00  0.00    +0.007 C 
ENDBRANCH  17  20
BRANCH  10  22
ATOM     22  O   LIG A   1      -6.782   1.295 125.821  0.00  0.00    -0.461 OA
BRANCH  22  23
ATOM     23  C   LIG A   1      -5.686   2.076 125.607  0.00  0.00    +0.304 C 
ATOM     24  C   LIG A   1      -6.005   3.126 124.587  0.00  0.00    +0.136 C 
ATOM     25  O   LIG A   1      -4.586   1.940 126.121  0.00  0.00    -0.251 OA
ENDBRANCH  22  23
ENDBRANCH  10  22
TORSDOF 3
ENDMDL
MODEL 5
REMARK VINA RESULT:      -7.0      5.667      8.427
REMARK  Name = NuBBE_143
REMARK  9 active torsions:
REMARK  status: ('A' for Active; 'I' for Inactive)
REMARK    1  A    between atoms: C_1  and  C_2
REMARK    2  A    between atoms: C_2  and  C_3
REMARK    3  A    between atoms: C_7  and  C_8
REMARK    4  A    between atoms: C_11  and  O_13
REMARK    5  A    between atoms: O_13  and  C_14
REMARK    6  A    between atoms: C_14  and  C_15
REMARK    7  A    between atoms: C_18  and  C_19
REMARK    8  A    between atoms: C_23  and  C_24
REMARK    9  A    between atoms: C_23  and  C_25
REMARK                            x       y       z     vdW  Elec       q    Type
REMARK                         _______ _______ _______ _____ _____    ______ ____
ROOT
ATOM      1  C   LIG A   1      -3.480   3.373 127.297  0.00  0.00    +0.011 C 
ATOM      2  C   LIG A   1      -4.678   2.662 127.975  0.00  0.00    -0.028 C 
ATOM      3  C   LIG A   1      -5.578   3.789 128.526  0.00  0.00    +0.011 C 
ATOM      4  C   LIG A   1      -4.053   1.871 129.163  0.00  0.00    +0.007 C 
ATOM      5  C   LIG A   1      -4.996   0.908 129.869  0.00  0.00    +0.001 C 
ATOM      6  C   LIG A   1      -5.670  -0.035 128.876  0.00  0.00    +0.007 C 
ATOM      7  C   LIG A   1      -6.437   0.680 127.722  0.00  0.00    -0.020 C 
ATOM      8  C   LIG A   1      -7.635   1.428 128.375  0.00  0.00    +0.012 C 
ATOM      9  C   LIG A   1      -5.418   1.651 126.985  0.00  0.00    +0.042 C 
ATOM     10  C   LIG A   1      -6.079   2.256 125.711  0.00  0.00    +0.183 C 
ATOM     11  C   LIG A   1      -6.637   1.183 124.758  0.00  0.00    +0.080 C 
ATOM     12  C   LIG A   1      -7.614   0.188 125.376  0.00  0.00    +0.074 C 
ATOM     13  C   LIG A   1      -8.988   0.862 125.564  0.00  0.00    +0.042 C 
ATOM     14  C   LIG A   1      -7.055  -0.398 126.714  0.00  0.00    +0.027 C 
ATOM     15  C   LIG A   1      -6.119  -1.579 126.410  0.00  0.00    +0.010 C 
ATOM     16  C   LIG A   1      -6.893  -2.621 125.619  0.00  0.00    +0.039 C 
ATOM     17  C   LIG A   1      -7.353  -2.079 124.270  0.00  0.00    +0.085 C 
ATOM     18  C   LIG A   1      -8.508  -2.958 123.749  0.00  0.00    +0.046 C 
ATOM     19  O   LIG A   1      -7.940  -0.782 124.355  0.00  0.00    -0.363 OA
ENDROOT
BRANCH  17  20
ATOM     20  C   LIG A   1      -6.193  -2.063 123.285  0.00  0.00    -0.001 C 
ATOM     21  C   LIG A   1      -5.162  -2.923 123.247  0.00  0.00    +0.007 C 
ENDBRANCH  17  20
BRANCH  10  22
ATOM     22  O   LIG A   1      -5.260   3.191 124.956  0.00  0.00    -0.461 OA
BRANCH  22  23
ATOM     23  C   LIG A   1      -5.796   4.294 124.362  0.00  0.00    +0.304 C 
ATOM     24  C   LIG A   1      -6.794   4.929 125.280  0.00  0.00    +0.136 C 
ATOM     25  O   LIG A   1      -5.551   4.703 123.237  0.00  0.00    -0.251 OA
ENDBRANCH  22  23
ENDBRANCH  10  22
TORSDOF 3
ENDMDL
MODEL 6
REMARK VINA RESULT:      -6.9      3.419      6.257
REMARK  Name = NuBBE_143
REMARK  9 active torsions:
REMARK  status: ('A' for Active; 'I' for Inactive)
REMARK    1  A    between atoms: C_1  and  C_2
REMARK    2  A    between atoms: C_2  and  C_3
REMARK    3  A    between atoms: C_7  and  C_8
REMARK    4  A    between atoms: C_11  and  O_13
REMARK    5  A    between atoms: O_13  and  C_14
REMARK    6  A    between atoms: C_14  and  C_15
REMARK    7  A    between atoms: C_18  and  C_19
REMARK    8  A    between atoms: C_23  and  C_24
REMARK    9  A    between atoms: C_23  and  C_25
REMARK                            x       y       z     vdW  Elec       q    Type
REMARK                         _______ _______ _______ _____ _____    ______ ____
ROOT
ATOM      1  C   LIG A   1      -9.225  -2.076 125.969  0.00  0.00    +0.011 C 
ATOM      2  C   LIG A   1      -8.108  -2.101 127.043  0.00  0.00    -0.028 C 
ATOM      3  C   LIG A   1      -6.779  -2.199 126.264  0.00  0.00    +0.011 C 
ATOM      4  C   LIG A   1      -8.344  -3.422 127.835  0.00  0.00    +0.007 C 
ATOM      5  C   LIG A   1      -7.505  -3.582 129.093  0.00  0.00    +0.001 C 
ATOM      6  C   LIG A   1      -7.634  -2.366 130.005  0.00  0.00    +0.007 C 
ATOM      7  C   LIG A   1      -7.284  -1.007 129.326  0.00  0.00    -0.020 C 
ATOM      8  C   LIG A   1      -5.763  -1.048 128.997  0.00  0.00    +0.012 C 
ATOM      9  C   LIG A   1      -8.200  -0.854 128.037  0.00  0.00    +0.042 C 
ATOM     10  C   LIG A   1      -8.025   0.565 127.418  0.00  0.00    +0.183 C 
ATOM     11  C   LIG A   1      -8.272   1.696 128.433  0.00  0.00    +0.080 C 
ATOM     12  C   LIG A   1      -7.451   1.630 129.717  0.00  0.00    +0.074 C 
ATOM     13  C   LIG A   1      -6.006   2.084 129.430  0.00  0.00    +0.042 C 
ATOM     14  C   LIG A   1      -7.506   0.201 130.351  0.00  0.00    +0.027 C 
ATOM     15  C   LIG A   1      -8.773   0.067 131.212  0.00  0.00    +0.010 C 
ATOM     16  C   LIG A   1      -8.757   1.153 132.273  0.00  0.00    +0.039 C 
ATOM     17  C   LIG A   1      -8.803   2.547 131.656  0.00  0.00    +0.085 C 
ATOM     18  C   LIG A   1      -8.297   3.568 132.695  0.00  0.00    +0.046 C 
ATOM     19  O   LIG A   1      -7.897   2.710 130.568  0.00  0.00    -0.363 OA
ENDROOT
BRANCH  17  20
ATOM     20  C   LIG A   1     -10.219   2.879 131.211  0.00  0.00    -0.001 C 
ATOM     21  C   LIG A   1     -10.597   3.916 130.444  0.00  0.00    +0.007 C 
ENDBRANCH  17  20
BRANCH  10  22
ATOM     22  O   LIG A   1      -8.788   0.828 126.210  0.00  0.00    -0.461 OA
BRANCH  22  23
ATOM     23  C   LIG A   1      -8.414   1.793 125.322  0.00  0.00    +0.304 C 
ATOM     24  C   LIG A   1      -7.080   1.451 124.735  0.00  0.00    +0.136 C 
ATOM     25  O   LIG A   1      -9.032   2.813 125.057  0.00  0.00    -0.251 OA
ENDBRANCH  22  23
ENDBRANCH  10  22
TORSDOF 3
ENDMDL
MODEL 7
REMARK VINA RESULT:      -6.9      4.960      8.430
REMARK  Name = NuBBE_143
REMARK  9 active torsions:
REMARK  status: ('A' for Active; 'I' for Inactive)
REMARK    1  A    between atoms: C_1  and  C_2
REMARK    2  A    between atoms: C_2  and  C_3
REMARK    3  A    between atoms: C_7  and  C_8
REMARK    4  A    between atoms: C_11  and  O_13
REMARK    5  A    between atoms: O_13  and  C_14
REMARK    6  A    between atoms: C_14  and  C_15
REMARK    7  A    between atoms: C_18  and  C_19
REMARK    8  A    between atoms: C_23  and  C_24
REMARK    9  A    between atoms: C_23  and  C_25
REMARK                            x       y       z     vdW  Elec       q    Type
REMARK                         _______ _______ _______ _____ _____    ______ ____
ROOT
ATOM      1  C   LIG A   1      -9.601  -1.065 122.632  0.00  0.00    +0.011 C 
ATOM      2  C   LIG A   1      -8.454  -1.740 123.425  0.00  0.00    -0.028 C 
ATOM      3  C   LIG A   1      -7.302  -1.931 122.416  0.00  0.00    +0.011 C 
ATOM      4  C   LIG A   1      -9.019  -3.133 123.837  0.00  0.00    +0.007 C 
ATOM      5  C   LIG A   1      -8.160  -3.917 124.816  0.00  0.00    +0.001 C 
ATOM      6  C   LIG A   1      -7.815  -3.081 126.044  0.00  0.00    +0.007 C 
ATOM      7  C   LIG A   1      -7.120  -1.721 125.728  0.00  0.00    -0.020 C 
ATOM      8  C   LIG A   1      -5.726  -2.059 125.124  0.00  0.00    +0.012 C 
ATOM      9  C   LIG A   1      -8.057  -0.913 124.732  0.00  0.00    +0.042 C 
ATOM     10  C   LIG A   1      -7.503   0.528 124.523  0.00  0.00    +0.183 C 
ATOM     11  C   LIG A   1      -7.286   1.285 125.846  0.00  0.00    +0.080 C 
ATOM     12  C   LIG A   1      -6.412   0.582 126.880  0.00  0.00    +0.074 C 
ATOM     13  C   LIG A   1      -4.931   0.699 126.469  0.00  0.00    +0.042 C 
ATOM     14  C   LIG A   1      -6.855  -0.905 127.079  0.00  0.00    +0.027 C 
ATOM     15  C   LIG A   1      -8.015  -0.968 128.087  0.00  0.00    +0.010 C 
ATOM     16  C   LIG A   1      -7.560  -0.337 129.392  0.00  0.00    +0.039 C 
ATOM     17  C   LIG A   1      -7.222   1.140 129.218  0.00  0.00    +0.085 C 
ATOM     18  C   LIG A   1      -6.327   1.587 130.391  0.00  0.00    +0.046 C 
ATOM     19  O   LIG A   1      -6.415   1.401 128.071  0.00  0.00    -0.363 OA
ENDROOT
BRANCH  17  20
ATOM     20  C   LIG A   1      -8.497   1.968 129.159  0.00  0.00    -0.001 C 
ATOM     21  C   LIG A   1      -9.137   2.531 130.197  0.00  0.00    +0.007 C 
ENDBRANCH  17  20
BRANCH  10  22
ATOM     22  O   LIG A   1      -8.253   1.368 123.605  0.00  0.00    -0.461 OA
BRANCH  22  23
ATOM     23  C   LIG A   1      -7.913   2.669 123.384  0.00  0.00    +0.304 C 
ATOM     24  C   LIG A   1      -6.716   2.734 122.486  0.00  0.00    +0.136 C 
ATOM     25  O   LIG A   1      -8.456   3.653 123.865  0.00  0.00    -0.251 OA
ENDBRANCH  22  23
ENDBRANCH  10  22
TORSDOF 3
ENDMDL
MODEL 8
REMARK VINA RESULT:      -6.9      6.035      8.534
REMARK  Name = NuBBE_143
REMARK  9 active torsions:
REMARK  status: ('A' for Active; 'I' for Inactive)
REMARK    1  A    between atoms: C_1  and  C_2
REMARK    2  A    between atoms: C_2  and  C_3
REMARK    3  A    between atoms: C_7  and  C_8
REMARK    4  A    between atoms: C_11  and  O_13
REMARK    5  A    between atoms: O_13  and  C_14
REMARK    6  A    between atoms: C_14  and  C_15
REMARK    7  A    between atoms: C_18  and  C_19
REMARK    8  A    between atoms: C_23  and  C_24
REMARK    9  A    between atoms: C_23  and  C_25
REMARK                            x       y       z     vdW  Elec       q    Type
REMARK                         _______ _______ _______ _____ _____    ______ ____
ROOT
ATOM      1  C   LIG A   1      -7.280  -0.760 122.916  0.00  0.00    +0.011 C 
ATOM      2  C   LIG A   1      -7.957   0.129 123.990  0.00  0.00    -0.028 C 
ATOM      3  C   LIG A   1      -8.916  -0.803 124.762  0.00  0.00    +0.011 C 
ATOM      4  C   LIG A   1      -8.786   1.171 123.180  0.00  0.00    +0.007 C 
ATOM      5  C   LIG A   1      -9.383   2.303 124.001  0.00  0.00    +0.001 C 
ATOM      6  C   LIG A   1      -8.320   2.991 124.852  0.00  0.00    +0.007 C 
ATOM      7  C   LIG A   1      -7.529   2.036 125.797  0.00  0.00    -0.020 C 
ATOM      8  C   LIG A   1      -8.543   1.506 126.851  0.00  0.00    +0.012 C 
ATOM      9  C   LIG A   1      -6.891   0.885 124.906  0.00  0.00    +0.042 C 
ATOM     10  C   LIG A   1      -5.939   0.004 125.769  0.00  0.00    +0.183 C 
ATOM     11  C   LIG A   1      -4.862   0.824 126.502  0.00  0.00    +0.080 C 
ATOM     12  C   LIG A   1      -5.373   1.968 127.372  0.00  0.00    +0.074 C 
ATOM     13  C   LIG A   1      -5.956   1.399 128.681  0.00  0.00    +0.042 C 
ATOM     14  C   LIG A   1      -6.408   2.849 126.598  0.00  0.00    +0.027 C 
ATOM     15  C   LIG A   1      -5.664   3.893 125.748  0.00  0.00    +0.010 C 
ATOM     16  C   LIG A   1      -4.786   4.729 126.664  0.00  0.00    +0.039 C 
ATOM     17  C   LIG A   1      -3.713   3.884 127.343  0.00  0.00    +0.085 C 
ATOM     18  C   LIG A   1      -3.198   4.640 128.585  0.00  0.00    +0.046 C 
ATOM     19  O   LIG A   1      -4.216   2.665 127.886  0.00  0.00    -0.363 OA
ENDROOT
BRANCH  17  20
ATOM     20  C   LIG A   1      -2.578   3.594 126.372  0.00  0.00    -0.001 C 
ATOM     21  C   LIG A   1      -1.470   2.877 126.624  0.00  0.00    +0.007 C 
ENDBRANCH  17  20
BRANCH  10  22
ATOM     22  O   LIG A   1      -5.309  -1.110 125.079  0.00  0.00    -0.461 OA
BRANCH  22  23
ATOM     23  C   LIG A   1      -5.608  -2.404 125.387  0.00  0.00    +0.304 C 
ATOM     24  C   LIG A   1      -5.079  -3.313 124.321  0.00  0.00    +0.136 C 
ATOM     25  O   LIG A   1      -6.245  -2.791 126.356  0.00  0.00    -0.251 OA
ENDBRANCH  22  23
ENDBRANCH  10  22
TORSDOF 3
ENDMDL
MODEL 9
REMARK VINA RESULT:      -6.8      5.347      8.201
REMARK  Name = NuBBE_143
REMARK  9 active torsions:
REMARK  status: ('A' for Active; 'I' for Inactive)
REMARK    1  A    between atoms: C_1  and  C_2
REMARK    2  A    between atoms: C_2  and  C_3
REMARK    3  A    between atoms: C_7  and  C_8
REMARK    4  A    between atoms: C_11  and  O_13
REMARK    5  A    between atoms: O_13  and  C_14
REMARK    6  A    between atoms: C_14  and  C_15
REMARK    7  A    between atoms: C_18  and  C_19
REMARK    8  A    between atoms: C_23  and  C_24
REMARK    9  A    between atoms: C_23  and  C_25
REMARK                            x       y       z     vdW  Elec       q    Type
REMARK                         _______ _______ _______ _____ _____    ______ ____
ROOT
ATOM      1  C   LIG A   1      -4.108   1.526 129.548  0.00  0.00    +0.011 C 
ATOM      2  C   LIG A   1      -5.652   1.472 129.422  0.00  0.00    -0.028 C 
ATOM      3  C   LIG A   1      -6.125   2.942 129.455  0.00  0.00    +0.011 C 
ATOM      4  C   LIG A   1      -6.133   0.744 130.713  0.00  0.00    +0.007 C 
ATOM      5  C   LIG A   1      -7.608   0.371 130.734  0.00  0.00    +0.001 C 
ATOM      6  C   LIG A   1      -8.000  -0.410 129.484  0.00  0.00    +0.007 C 
ATOM      7  C   LIG A   1      -7.675   0.311 128.140  0.00  0.00    -0.020 C 
ATOM      8  C   LIG A   1      -8.585   1.571 128.075  0.00  0.00    +0.012 C 
ATOM      9  C   LIG A   1      -6.124   0.656 128.134  0.00  0.00    +0.042 C 
ATOM     10  C   LIG A   1      -5.703   1.213 126.742  0.00  0.00    +0.183 C 
ATOM     11  C   LIG A   1      -6.086   0.278 125.580  0.00  0.00    +0.080 C 
ATOM     12  C   LIG A   1      -7.554  -0.128 125.509  0.00  0.00    +0.074 C 
ATOM     13  C   LIG A   1      -8.387   1.045 124.955  0.00  0.00    +0.042 C 
ATOM     14  C   LIG A   1      -8.075  -0.618 126.900  0.00  0.00    +0.027 C 
ATOM     15  C   LIG A   1      -7.724  -2.103 127.090  0.00  0.00    +0.010 C 
ATOM     16  C   LIG A   1      -8.336  -2.897 125.948  0.00  0.00    +0.039 C 
ATOM     17  C   LIG A   1      -7.755  -2.487 124.599  0.00  0.00    +0.085 C 
ATOM     18  C   LIG A   1      -8.722  -2.936 123.485  0.00  0.00    +0.046 C 
ATOM     19  O   LIG A   1      -7.685  -1.073 124.423  0.00  0.00    -0.363 OA
ENDROOT
BRANCH  17  20
ATOM     20  C   LIG A   1      -6.379  -3.106 124.409  0.00  0.00    -0.001 C 
ATOM     21  C   LIG A   1      -5.453  -2.741 123.506  0.00  0.00    +0.007 C 
ENDBRANCH  17  20
BRANCH  10  22
ATOM     22  O   LIG A   1      -4.308   1.599 126.609  0.00  0.00    -0.461 OA
BRANCH  22  23
ATOM     23  C   LIG A   1      -3.946   2.861 126.245  0.00  0.00    +0.304 C 
ATOM     24  C   LIG A   1      -2.520   3.110 126.631  0.00  0.00    +0.136 C 
ATOM     25  O   LIG A   1      -4.664   3.700 125.721  0.00  0.00    -0.251 OA
ENDBRANCH  22  23
ENDBRANCH  10  22
TORSDOF 3
ENDMDL
