MODEL 1
REMARK VINA RESULT:      -3.8      0.000      0.000
REMARK  Name = NuBBE_1982
REMARK  7 active torsions:
REMARK  status: ('A' for Active; 'I' for Inactive)
REMARK    1  A    between atoms: S_1  and  S_2
REMARK    2  A    between atoms: S_1  and  S_7
REMARK    3  A    between atoms: S_2  and  S_3
REMARK    4  A    between atoms: S_3  and  C_4
REMARK    5  A    between atoms: C_4  and  C_5
REMARK    6  A    between atoms: S_7  and  C_8
REMARK    7  A    between atoms: C_8  and  C_9
REMARK                            x       y       z     vdW  Elec       q    Type
REMARK                         _______ _______ _______ _____ _____    ______ ____
ROOT
ATOM      1  S   LIG A   1      -8.941  -0.460 124.162  0.00  0.00    -0.013 S 
ENDROOT
BRANCH   1   2
ATOM      2  S   LIG A   1      -7.011  -0.125 123.542  0.00  0.00    -0.013 S 
BRANCH   2   3
ATOM      3  S   LIG A   1      -6.357  -1.879 122.689  0.00  0.00    -0.077 S 
BRANCH   3   4
ATOM      4  C   LIG A   1      -5.320  -2.645 123.969  0.00  0.00    +0.108 C 
BRANCH   4   5
ATOM      5  C   LIG A   1      -4.288  -3.564 123.398  0.00  0.00    -0.023 C 
ATOM      6  C   LIG A   1      -4.317  -4.895 123.548  0.00  0.00    +0.005 C 
ENDBRANCH   4   5
ENDBRANCH   3   4
ENDBRANCH   2   3
ENDBRANCH   1   2
BRANCH   1   7
ATOM      7  S   LIG A   1      -9.023  -2.387 124.882  0.00  0.00    -0.077 S 
BRANCH   7   8
ATOM      8  C   LIG A   1      -8.364  -2.198 126.571  0.00  0.00    +0.108 C 
BRANCH   8   9
ATOM      9  C   LIG A   1      -8.597  -3.445 127.386  0.00  0.00    -0.023 C 
ATOM     10  C   LIG A   1      -8.630  -3.469 128.719  0.00  0.00    +0.005 C 
ENDBRANCH   8   9
ENDBRANCH   7   8
ENDBRANCH   1   7
TORSDOF 7
ENDMDL
MODEL 2
REMARK VINA RESULT:      -3.8      3.680      5.204
REMARK  Name = NuBBE_1982
REMARK  7 active torsions:
REMARK  status: ('A' for Active; 'I' for Inactive)
REMARK    1  A    between atoms: S_1  and  S_2
REMARK    2  A    between atoms: S_1  and  S_7
REMARK    3  A    between atoms: S_2  and  S_3
REMARK    4  A    between atoms: S_3  and  C_4
REMARK    5  A    between atoms: C_4  and  C_5
REMARK    6  A    between atoms: S_7  and  C_8
REMARK    7  A    between atoms: C_8  and  C_9
REMARK                            x       y       z     vdW  Elec       q    Type
REMARK                         _______ _______ _______ _____ _____    ______ ____
ROOT
ATOM      1  S   LIG A   1      -8.825   0.493 123.303  0.00  0.00    -0.013 S 
ENDROOT
BRANCH   1   2
ATOM      2  S   LIG A   1      -7.199  -0.286 124.291  0.00  0.00    -0.013 S 
BRANCH   2   3
ATOM      3  S   LIG A   1      -6.506  -1.843 123.138  0.00  0.00    -0.077 S 
BRANCH   3   4
ATOM      4  C   LIG A   1      -5.247  -2.645 124.173  0.00  0.00    +0.108 C 
BRANCH   4   5
ATOM      5  C   LIG A   1      -4.381  -3.586 123.398  0.00  0.00    -0.023 C 
ATOM      6  C   LIG A   1      -4.364  -4.911 123.595  0.00  0.00    +0.005 C 
ENDBRANCH   4   5
ENDBRANCH   3   4
ENDBRANCH   2   3
ENDBRANCH   1   2
BRANCH   1   7
ATOM      7  S   LIG A   1      -8.639   2.541 123.347  0.00  0.00    -0.077 S 
BRANCH   7   8
ATOM      8  C   LIG A   1      -6.869   2.778 122.979  0.00  0.00    +0.108 C 
BRANCH   8   9
ATOM      9  C   LIG A   1      -6.678   3.462 121.649  0.00  0.00    -0.023 C 
ATOM     10  C   LIG A   1      -5.558   3.395 120.930  0.00  0.00    +0.005 C 
ENDBRANCH   8   9
ENDBRANCH   7   8
ENDBRANCH   1   7
TORSDOF 7
ENDMDL
MODEL 3
REMARK VINA RESULT:      -3.6      4.322      5.833
REMARK  Name = NuBBE_1982
REMARK  7 active torsions:
REMARK  status: ('A' for Active; 'I' for Inactive)
REMARK    1  A    between atoms: S_1  and  S_2
REMARK    2  A    between atoms: S_1  and  S_7
REMARK    3  A    between atoms: S_2  and  S_3
REMARK    4  A    between atoms: S_3  and  C_4
REMARK    5  A    between atoms: C_4  and  C_5
REMARK    6  A    between atoms: S_7  and  C_8
REMARK    7  A    between atoms: C_8  and  C_9
REMARK                            x       y       z     vdW  Elec       q    Type
REMARK                         _______ _______ _______ _____ _____    ______ ____
ROOT
ATOM      1  S   LIG A   1      -5.744  -0.820 126.131  0.00  0.00    -0.013 S 
ENDROOT
BRANCH   1   2
ATOM      2  S   LIG A   1      -6.563   1.035 126.466  0.00  0.00    -0.013 S 
BRANCH   2   3
ATOM      3  S   LIG A   1      -5.231   2.057 127.655  0.00  0.00    -0.077 S 
BRANCH   3   4
ATOM      4  C   LIG A   1      -3.998   2.711 126.492  0.00  0.00    +0.108 C 
BRANCH   4   5
ATOM      5  C   LIG A   1      -2.704   3.052 127.159  0.00  0.00    -0.023 C 
ATOM      6  C   LIG A   1      -1.517   3.010 126.540  0.00  0.00    +0.005 C 
ENDBRANCH   4   5
ENDBRANCH   3   4
ENDBRANCH   2   3
ENDBRANCH   1   2
BRANCH   1   7
ATOM      7  S   LIG A   1      -6.280  -1.387 124.227  0.00  0.00    -0.077 S 
BRANCH   7   8
ATOM      8  C   LIG A   1      -6.022  -3.191 124.272  0.00  0.00    +0.108 C 
BRANCH   8   9
ATOM      9  C   LIG A   1      -4.717  -3.569 123.618  0.00  0.00    -0.023 C 
ATOM     10  C   LIG A   1      -4.278  -4.822 123.499  0.00  0.00    +0.005 C 
ENDBRANCH   8   9
ENDBRANCH   7   8
ENDBRANCH   1   7
TORSDOF 7
ENDMDL
MODEL 4
REMARK VINA RESULT:      -3.6      2.711      5.763
REMARK  Name = NuBBE_1982
REMARK  7 active torsions:
REMARK  status: ('A' for Active; 'I' for Inactive)
REMARK    1  A    between atoms: S_1  and  S_2
REMARK    2  A    between atoms: S_1  and  S_7
REMARK    3  A    between atoms: S_2  and  S_3
REMARK    4  A    between atoms: S_3  and  C_4
REMARK    5  A    between atoms: C_4  and  C_5
REMARK    6  A    between atoms: S_7  and  C_8
REMARK    7  A    between atoms: C_8  and  C_9
REMARK                            x       y       z     vdW  Elec       q    Type
REMARK                         _______ _______ _______ _____ _____    ______ ____
ROOT
ATOM      1  S   LIG A   1      -6.667  -2.185 126.233  0.00  0.00    -0.013 S 
ENDROOT
BRANCH   1   2
ATOM      2  S   LIG A   1      -7.978  -2.773 127.702  0.00  0.00    -0.013 S 
BRANCH   2   3
ATOM      3  S   LIG A   1      -7.527  -1.658 129.371  0.00  0.00    -0.077 S 
BRANCH   3   4
ATOM      4  C   LIG A   1      -7.106  -2.891 130.637  0.00  0.00    +0.108 C 
BRANCH   4   5
ATOM      5  C   LIG A   1      -6.419  -4.089 130.066  0.00  0.00    -0.023 C 
ATOM      6  C   LIG A   1      -5.533  -4.829 130.746  0.00  0.00    +0.005 C 
ENDBRANCH   4   5
ENDBRANCH   3   4
ENDBRANCH   2   3
ENDBRANCH   1   2
BRANCH   1   7
ATOM      7  S   LIG A   1      -7.174  -3.204 124.520  0.00  0.00    -0.077 S 
BRANCH   7   8
ATOM      8  C   LIG A   1      -5.811  -2.768 123.391  0.00  0.00    +0.108 C 
BRANCH   8   9
ATOM      9  C   LIG A   1      -4.550  -3.511 123.751  0.00  0.00    -0.023 C 
ATOM     10  C   LIG A   1      -4.351  -4.807 123.504  0.00  0.00    +0.005 C 
ENDBRANCH   8   9
ENDBRANCH   7   8
ENDBRANCH   1   7
TORSDOF 7
ENDMDL
MODEL 5
REMARK VINA RESULT:      -3.5      1.436      1.577
REMARK  Name = NuBBE_1982
REMARK  7 active torsions:
REMARK  status: ('A' for Active; 'I' for Inactive)
REMARK    1  A    between atoms: S_1  and  S_2
REMARK    2  A    between atoms: S_1  and  S_7
REMARK    3  A    between atoms: S_2  and  S_3
REMARK    4  A    between atoms: S_3  and  C_4
REMARK    5  A    between atoms: C_4  and  C_5
REMARK    6  A    between atoms: S_7  and  C_8
REMARK    7  A    between atoms: C_8  and  C_9
REMARK                            x       y       z     vdW  Elec       q    Type
REMARK                         _______ _______ _______ _____ _____    ______ ____
ROOT
ATOM      1  S   LIG A   1      -7.582  -0.402 123.502  0.00  0.00    -0.013 S 
ENDROOT
BRANCH   1   2
ATOM      2  S   LIG A   1      -6.754  -0.106 125.359  0.00  0.00    -0.013 S 
BRANCH   2   3
ATOM      3  S   LIG A   1      -5.551  -1.734 125.729  0.00  0.00    -0.077 S 
BRANCH   3   4
ATOM      4  C   LIG A   1      -5.174  -2.401 124.082  0.00  0.00    +0.108 C 
BRANCH   4   5
ATOM      5  C   LIG A   1      -5.243  -3.894 124.038  0.00  0.00    -0.023 C 
ATOM      6  C   LIG A   1      -4.267  -4.666 123.542  0.00  0.00    +0.005 C 
ENDBRANCH   4   5
ENDBRANCH   3   4
ENDBRANCH   2   3
ENDBRANCH   1   2
BRANCH   1   7
ATOM      7  S   LIG A   1      -8.943  -1.936 123.680  0.00  0.00    -0.077 S 
BRANCH   7   8
ATOM      8  C   LIG A   1      -9.263  -1.964 125.474  0.00  0.00    +0.108 C 
BRANCH   8   9
ATOM      9  C   LIG A   1      -9.046  -3.344 126.042  0.00  0.00    -0.023 C 
ATOM     10  C   LIG A   1      -8.738  -3.586 127.317  0.00  0.00    +0.005 C 
ENDBRANCH   8   9
ENDBRANCH   7   8
ENDBRANCH   1   7
TORSDOF 7
ENDMDL
MODEL 6
REMARK VINA RESULT:      -3.5      2.729      5.496
REMARK  Name = NuBBE_1982
REMARK  7 active torsions:
REMARK  status: ('A' for Active; 'I' for Inactive)
REMARK    1  A    between atoms: S_1  and  S_2
REMARK    2  A    between atoms: S_1  and  S_7
REMARK    3  A    between atoms: S_2  and  S_3
REMARK    4  A    between atoms: S_3  and  C_4
REMARK    5  A    between atoms: C_4  and  C_5
REMARK    6  A    between atoms: S_7  and  C_8
REMARK    7  A    between atoms: C_8  and  C_9
REMARK                            x       y       z     vdW  Elec       q    Type
REMARK                         _______ _______ _______ _____ _____    ______ ____
ROOT
ATOM      1  S   LIG A   1      -8.039  -3.545 124.699  0.00  0.00    -0.013 S 
ENDROOT
BRANCH   1   2
ATOM      2  S   LIG A   1      -9.091  -2.283 125.934  0.00  0.00    -0.013 S 
BRANCH   2   3
ATOM      3  S   LIG A   1      -8.244  -0.420 125.724  0.00  0.00    -0.077 S 
BRANCH   3   4
ATOM      4  C   LIG A   1      -9.624   0.649 125.219  0.00  0.00    +0.108 C 
BRANCH   4   5
ATOM      5  C   LIG A   1      -9.162   1.936 124.615  0.00  0.00    -0.023 C 
ATOM      6  C   LIG A   1      -9.232   2.207 123.305  0.00  0.00    +0.005 C 
ENDBRANCH   4   5
ENDBRANCH   3   4
ENDBRANCH   2   3
ENDBRANCH   1   2
BRANCH   1   7
ATOM      7  S   LIG A   1      -6.923  -2.368 123.434  0.00  0.00    -0.077 S 
BRANCH   7   8
ATOM      8  C   LIG A   1      -5.259  -2.477 124.169  0.00  0.00    +0.108 C 
BRANCH   8   9
ATOM      9  C   LIG A   1      -4.398  -3.463 123.420  0.00  0.00    -0.023 C 
ATOM     10  C   LIG A   1      -4.420  -4.780 123.627  0.00  0.00    +0.005 C 
ENDBRANCH   8   9
ENDBRANCH   7   8
ENDBRANCH   1   7
TORSDOF 7
ENDMDL
MODEL 7
REMARK VINA RESULT:      -3.5      5.232      7.239
REMARK  Name = NuBBE_1982
REMARK  7 active torsions:
REMARK  status: ('A' for Active; 'I' for Inactive)
REMARK    1  A    between atoms: S_1  and  S_2
REMARK    2  A    between atoms: S_1  and  S_7
REMARK    3  A    between atoms: S_2  and  S_3
REMARK    4  A    between atoms: S_3  and  C_4
REMARK    5  A    between atoms: C_4  and  C_5
REMARK    6  A    between atoms: S_7  and  C_8
REMARK    7  A    between atoms: C_8  and  C_9
REMARK                            x       y       z     vdW  Elec       q    Type
REMARK                         _______ _______ _______ _____ _____    ______ ____
ROOT
ATOM      1  S   LIG A   1      -7.315   3.070 123.654  0.00  0.00    -0.013 S 
ENDROOT
BRANCH   1   2
ATOM      2  S   LIG A   1      -8.940   2.275 124.628  0.00  0.00    -0.013 S 
BRANCH   2   3
ATOM      3  S   LIG A   1      -9.707   0.818 123.394  0.00  0.00    -0.077 S 
BRANCH   3   4
ATOM      4  C   LIG A   1      -8.888  -0.710 123.937  0.00  0.00    +0.108 C 
BRANCH   4   5
ATOM      5  C   LIG A   1      -9.158  -1.862 123.022  0.00  0.00    -0.023 C 
ATOM      6  C   LIG A   1      -9.361  -3.115 123.449  0.00  0.00    +0.005 C 
ENDBRANCH   4   5
ENDBRANCH   3   4
ENDBRANCH   2   3
ENDBRANCH   1   2
BRANCH   1   7
ATOM      7  S   LIG A   1      -7.860   3.349 121.690  0.00  0.00    -0.077 S 
BRANCH   7   8
ATOM      8  C   LIG A   1      -6.248   3.583 120.871  0.00  0.00    +0.108 C 
BRANCH   8   9
ATOM      9  C   LIG A   1      -6.353   4.578 119.743  0.00  0.00    -0.023 C 
ATOM     10  C   LIG A   1      -7.262   4.511 118.770  0.00  0.00    +0.005 C 
ENDBRANCH   8   9
ENDBRANCH   7   8
ENDBRANCH   1   7
TORSDOF 7
ENDMDL
MODEL 8
REMARK VINA RESULT:      -3.5     10.101     12.108
REMARK  Name = NuBBE_1982
REMARK  7 active torsions:
REMARK  status: ('A' for Active; 'I' for Inactive)
REMARK    1  A    between atoms: S_1  and  S_2
REMARK    2  A    between atoms: S_1  and  S_7
REMARK    3  A    between atoms: S_2  and  S_3
REMARK    4  A    between atoms: S_3  and  C_4
REMARK    5  A    between atoms: C_4  and  C_5
REMARK    6  A    between atoms: S_7  and  C_8
REMARK    7  A    between atoms: C_8  and  C_9
REMARK                            x       y       z     vdW  Elec       q    Type
REMARK                         _______ _______ _______ _____ _____    ______ ____
ROOT
ATOM      1  S   LIG A   1      -8.950   6.459 131.142  0.00  0.00    -0.013 S 
ENDROOT
BRANCH   1   2
ATOM      2  S   LIG A   1     -10.672   5.659 130.356  0.00  0.00    -0.013 S 
BRANCH   2   3
ATOM      3  S   LIG A   1     -12.214   6.879 130.963  0.00  0.00    -0.077 S 
BRANCH   3   4
ATOM      4  C   LIG A   1     -13.136   7.233 129.438  0.00  0.00    +0.108 C 
BRANCH   4   5
ATOM      5  C   LIG A   1     -12.784   8.562 128.850  0.00  0.00    -0.023 C 
ATOM      6  C   LIG A   1     -13.027   9.730 129.460  0.00  0.00    +0.005 C 
ENDBRANCH   4   5
ENDBRANCH   3   4
ENDBRANCH   2   3
ENDBRANCH   1   2
BRANCH   1   7
ATOM      7  S   LIG A   1      -8.777   5.758 133.068  0.00  0.00    -0.077 S 
BRANCH   7   8
ATOM      8  C   LIG A   1      -8.103   4.084 132.813  0.00  0.00    +0.108 C 
BRANCH   8   9
ATOM      9  C   LIG A   1      -9.098   3.029 133.227  0.00  0.00    -0.023 C 
ATOM     10  C   LIG A   1      -9.670   2.170 132.383  0.00  0.00    +0.005 C 
ENDBRANCH   8   9
ENDBRANCH   7   8
ENDBRANCH   1   7
TORSDOF 7
ENDMDL
MODEL 9
REMARK VINA RESULT:      -3.5      3.911      5.415
REMARK  Name = NuBBE_1982
REMARK  7 active torsions:
REMARK  status: ('A' for Active; 'I' for Inactive)
REMARK    1  A    between atoms: S_1  and  S_2
REMARK    2  A    between atoms: S_1  and  S_7
REMARK    3  A    between atoms: S_2  and  S_3
REMARK    4  A    between atoms: S_3  and  C_4
REMARK    5  A    between atoms: C_4  and  C_5
REMARK    6  A    between atoms: S_7  and  C_8
REMARK    7  A    between atoms: C_8  and  C_9
REMARK                            x       y       z     vdW  Elec       q    Type
REMARK                         _______ _______ _______ _____ _____    ______ ____
ROOT
ATOM      1  S   LIG A   1      -6.800   0.177 124.402  0.00  0.00    -0.013 S 
ENDROOT
BRANCH   1   2
ATOM      2  S   LIG A   1      -8.490   1.334 124.569  0.00  0.00    -0.013 S 
BRANCH   2   3
ATOM      3  S   LIG A   1      -8.475   2.626 122.968  0.00  0.00    -0.077 S 
BRANCH   3   4
ATOM      4  C   LIG A   1      -6.765   3.237 122.896  0.00  0.00    +0.108 C 
BRANCH   4   5
ATOM      5  C   LIG A   1      -6.228   3.274 121.501  0.00  0.00    -0.023 C 
ATOM      6  C   LIG A   1      -5.159   3.995 121.138  0.00  0.00    +0.005 C 
ENDBRANCH   4   5
ENDBRANCH   3   4
ENDBRANCH   2   3
ENDBRANCH   1   2
BRANCH   1   7
ATOM      7  S   LIG A   1      -7.229  -1.652 125.241  0.00  0.00    -0.077 S 
BRANCH   7   8
ATOM      8  C   LIG A   1      -6.772  -2.807 123.908  0.00  0.00    +0.108 C 
BRANCH   8   9
ATOM      9  C   LIG A   1      -5.275  -2.879 123.742  0.00  0.00    -0.023 C 
ATOM     10  C   LIG A   1      -4.583  -4.018 123.699  0.00  0.00    +0.005 C 
ENDBRANCH   8   9
ENDBRANCH   7   8
ENDBRANCH   1   7
TORSDOF 7
ENDMDL
