MODEL 1
REMARK VINA RESULT:      -7.4      0.000      0.000
REMARK  Name = NuBBE_2462
REMARK  11 active torsions:
REMARK  status: ('A' for Active; 'I' for Inactive)
REMARK    1  A    between atoms: C_1  and  O_2
REMARK    2  A    between atoms: O_2  and  C_3
REMARK    3  A    between atoms: C_4  and  O_5
REMARK    4  A    between atoms: C_8  and  C_10
REMARK    5  A    between atoms: C_13  and  O_14
REMARK    6  A    between atoms: C_15  and  O_16
REMARK    7  A    between atoms: O_16  and  C_17
REMARK    8  A    between atoms: C_19  and  C_21
REMARK    9  A    between atoms: C_21  and  O_22
REMARK   10  A    between atoms: C_23  and  C_25
REMARK   11  A    between atoms: C_25  and  O_26
REMARK                            x       y       z     vdW  Elec       q    Type
REMARK                         _______ _______ _______ _____ _____    ______ ____
ROOT
ATOM      1  C   LIG A   1      -7.388   2.143 124.206  0.00  0.00    +0.162 A 
ATOM      2  C   LIG A   1      -8.303   1.818 125.206  0.00  0.00    +0.159 A 
ATOM      3  C   LIG A   1      -8.608   0.496 125.511  0.00  0.00    +0.053 A 
ATOM      4  C   LIG A   1      -8.009  -0.560 124.797  0.00  0.00    -0.033 A 
ATOM      5  C   LIG A   1      -8.392  -2.003 125.145  0.00  0.00    +0.055 C 
ATOM      6  C   LIG A   1      -7.922  -3.045 124.078  0.00  0.00    +0.032 C 
ATOM      7  C   LIG A   1      -6.552  -2.715 123.420  0.00  0.00    +0.025 C 
ATOM      8  C   LIG A   1      -6.517  -1.292 122.861  0.00  0.00    +0.041 C 
ATOM      9  C   LIG A   1      -7.100  -0.241 123.771  0.00  0.00    -0.040 A 
ATOM     10  C   LIG A   1      -6.797   1.109 123.485  0.00  0.00    +0.053 A 
ENDROOT
BRANCH   5  11
ATOM     11  C   LIG A   1      -8.063  -2.433 126.585  0.00  0.00    -0.036 A 
ATOM     12  C   LIG A   1      -8.886  -3.304 127.303  0.00  0.00    +0.008 A 
ATOM     13  C   LIG A   1      -8.573  -3.683 128.612  0.00  0.00    +0.049 A 
ATOM     14  C   LIG A   1      -7.414  -3.199 129.220  0.00  0.00    +0.159 A 
ATOM     15  C   LIG A   1      -6.540  -2.370 128.524  0.00  0.00    +0.162 A 
ATOM     16  C   LIG A   1      -6.879  -1.974 127.213  0.00  0.00    +0.053 A 
BRANCH  14  17
ATOM     17  O   LIG A   1      -7.189  -3.554 130.526  0.00  0.00    -0.503 OA
ATOM     18  H   LIG A   1      -7.791  -4.266 130.775  0.00  0.00    +0.292 HD
ENDBRANCH  14  17
BRANCH  15  19
ATOM     19  O   LIG A   1      -5.358  -1.852 128.997  0.00  0.00    -0.491 OA
ATOM     20  C   LIG A   1      -4.224  -2.714 128.921  0.00  0.00    +0.277 C 
ENDBRANCH  15  19
ENDBRANCH   5  11
BRANCH   1  22
ATOM     21  C   LIG A   1      -6.039   3.839 123.250  0.00  0.00    +0.277 C 
ATOM     22  O   LIG A   1      -7.214   3.482 123.971  0.00  0.00    -0.491 OA
ENDBRANCH   1  22
BRANCH   2  23
ATOM     23  O   LIG A   1      -8.929   2.808 125.913  0.00  0.00    -0.503 OA
ATOM     24  H   LIG A   1      -8.286   3.072 126.601  0.00  0.00    +0.292 HD
ENDBRANCH   2  23
BRANCH   6  25
ATOM     25  C   LIG A   1      -9.023  -3.171 122.999  0.00  0.00    +0.160 C 
BRANCH  25  26
ATOM     26  O   LIG A   1     -10.286  -3.501 123.567  0.00  0.00    -0.395 OA
ATOM     27  H   LIG A   1     -10.888  -3.715 122.833  0.00  0.00    +0.209 HD
ENDBRANCH  25  26
ENDBRANCH   6  25
BRANCH   7  28
ATOM     28  C   LIG A   1      -5.334  -2.987 124.308  0.00  0.00    +0.160 C 
BRANCH  28  29
ATOM     29  O   LIG A   1      -4.582  -4.061 123.757  0.00  0.00    -0.395 OA
ATOM     30  H   LIG A   1      -3.956  -4.357 124.439  0.00  0.00    +0.209 HD
ENDBRANCH  28  29
ENDBRANCH   7  28
TORSDOF 9
ENDMDL
MODEL 2
REMARK VINA RESULT:      -6.7      1.713      6.096
REMARK  Name = NuBBE_2462
REMARK  11 active torsions:
REMARK  status: ('A' for Active; 'I' for Inactive)
REMARK    1  A    between atoms: C_1  and  O_2
REMARK    2  A    between atoms: O_2  and  C_3
REMARK    3  A    between atoms: C_4  and  O_5
REMARK    4  A    between atoms: C_8  and  C_10
REMARK    5  A    between atoms: C_13  and  O_14
REMARK    6  A    between atoms: C_15  and  O_16
REMARK    7  A    between atoms: O_16  and  C_17
REMARK    8  A    between atoms: C_19  and  C_21
REMARK    9  A    between atoms: C_21  and  O_22
REMARK   10  A    between atoms: C_23  and  C_25
REMARK   11  A    between atoms: C_25  and  O_26
REMARK                            x       y       z     vdW  Elec       q    Type
REMARK                         _______ _______ _______ _____ _____    ______ ____
ROOT
ATOM      1  C   LIG A   1      -7.920  -1.709 128.569  0.00  0.00    +0.162 A 
ATOM      2  C   LIG A   1      -7.298  -0.501 128.257  0.00  0.00    +0.159 A 
ATOM      3  C   LIG A   1      -6.859  -0.221 126.968  0.00  0.00    +0.053 A 
ATOM      4  C   LIG A   1      -7.016  -1.166 125.937  0.00  0.00    -0.033 A 
ATOM      5  C   LIG A   1      -6.495  -0.829 124.535  0.00  0.00    +0.055 C 
ATOM      6  C   LIG A   1      -6.428  -2.067 123.582  0.00  0.00    +0.032 C 
ATOM      7  C   LIG A   1      -7.578  -3.094 123.785  0.00  0.00    +0.025 C 
ATOM      8  C   LIG A   1      -7.707  -3.523 125.247  0.00  0.00    +0.041 C 
ATOM      9  C   LIG A   1      -7.624  -2.397 126.245  0.00  0.00    -0.040 A 
ATOM     10  C   LIG A   1      -8.071  -2.657 127.560  0.00  0.00    +0.053 A 
ENDROOT
BRANCH   5  11
ATOM     11  C   LIG A   1      -7.149   0.397 123.875  0.00  0.00    -0.036 A 
ATOM     12  C   LIG A   1      -8.535   0.550 123.806  0.00  0.00    +0.008 A 
ATOM     13  C   LIG A   1      -9.112   1.670 123.201  0.00  0.00    +0.049 A 
ATOM     14  C   LIG A   1      -8.299   2.668 122.661  0.00  0.00    +0.159 A 
ATOM     15  C   LIG A   1      -6.914   2.581 122.753  0.00  0.00    +0.162 A 
ATOM     16  C   LIG A   1      -6.342   1.434 123.343  0.00  0.00    +0.053 A 
BRANCH  14  17
ATOM     17  O   LIG A   1      -8.918   3.713 122.025  0.00  0.00    -0.503 OA
ATOM     18  H   LIG A   1      -9.295   4.313 122.681  0.00  0.00    +0.292 HD
ENDBRANCH  14  17
BRANCH  15  19
ATOM     19  O   LIG A   1      -6.007   3.505 122.289  0.00  0.00    -0.491 OA
ATOM     20  C   LIG A   1      -5.570   3.329 120.943  0.00  0.00    +0.277 C 
ENDBRANCH  15  19
ENDBRANCH   5  11
BRANCH   1  22
ATOM     21  C   LIG A   1      -7.515  -2.866 130.595  0.00  0.00    +0.277 C 
ATOM     22  O   LIG A   1      -8.260  -1.882 129.885  0.00  0.00    -0.491 OA
ENDBRANCH   1  22
BRANCH   2  23
ATOM     23  O   LIG A   1      -7.103   0.442 129.230  0.00  0.00    -0.503 OA
ATOM     24  H   LIG A   1      -6.164   0.700 129.146  0.00  0.00    +0.292 HD
ENDBRANCH   2  23
BRANCH   6  25
ATOM     25  C   LIG A   1      -5.053  -2.753 123.766  0.00  0.00    +0.160 C 
BRANCH  25  26
ATOM     26  O   LIG A   1      -5.065  -4.096 123.295  0.00  0.00    -0.395 OA
ATOM     27  H   LIG A   1      -5.268  -4.669 124.054  0.00  0.00    +0.209 HD
ENDBRANCH  25  26
ENDBRANCH   6  25
BRANCH   7  28
ATOM     28  C   LIG A   1      -8.933  -2.657 123.219  0.00  0.00    +0.160 C 
BRANCH  28  29
ATOM     29  O   LIG A   1      -9.964  -3.428 123.822  0.00  0.00    -0.395 OA
ATOM     30  H   LIG A   1     -10.641  -3.590 123.143  0.00  0.00    +0.209 HD
ENDBRANCH  28  29
ENDBRANCH   7  28
TORSDOF 9
ENDMDL
MODEL 3
REMARK VINA RESULT:      -6.6      8.189     10.648
REMARK  Name = NuBBE_2462
REMARK  11 active torsions:
REMARK  status: ('A' for Active; 'I' for Inactive)
REMARK    1  A    between atoms: C_1  and  O_2
REMARK    2  A    between atoms: O_2  and  C_3
REMARK    3  A    between atoms: C_4  and  O_5
REMARK    4  A    between atoms: C_8  and  C_10
REMARK    5  A    between atoms: C_13  and  O_14
REMARK    6  A    between atoms: C_15  and  O_16
REMARK    7  A    between atoms: O_16  and  C_17
REMARK    8  A    between atoms: C_19  and  C_21
REMARK    9  A    between atoms: C_21  and  O_22
REMARK   10  A    between atoms: C_23  and  C_25
REMARK   11  A    between atoms: C_25  and  O_26
REMARK                            x       y       z     vdW  Elec       q    Type
REMARK                         _______ _______ _______ _____ _____    ______ ____
ROOT
ATOM      1  C   LIG A   1      -3.187   3.583 128.199  0.00  0.00    +0.162 A 
ATOM      2  C   LIG A   1      -3.867   3.000 129.267  0.00  0.00    +0.159 A 
ATOM      3  C   LIG A   1      -4.196   3.728 130.404  0.00  0.00    +0.053 A 
ATOM      4  C   LIG A   1      -3.833   5.083 130.516  0.00  0.00    -0.033 A 
ATOM      5  C   LIG A   1      -4.191   5.845 131.797  0.00  0.00    +0.055 C 
ATOM      6  C   LIG A   1      -3.452   7.216 131.933  0.00  0.00    +0.032 C 
ATOM      7  C   LIG A   1      -3.240   7.966 130.587  0.00  0.00    +0.025 C 
ATOM      8  C   LIG A   1      -2.573   7.075 129.538  0.00  0.00    +0.041 C 
ATOM      9  C   LIG A   1      -3.127   5.677 129.452  0.00  0.00    -0.040 A 
ATOM     10  C   LIG A   1      -2.811   4.919 128.302  0.00  0.00    +0.053 A 
ENDROOT
BRANCH   5  11
ATOM     11  C   LIG A   1      -5.697   5.948 132.093  0.00  0.00    -0.036 A 
ATOM     12  C   LIG A   1      -6.602   6.463 131.162  0.00  0.00    +0.008 A 
ATOM     13  C   LIG A   1      -7.967   6.550 131.448  0.00  0.00    +0.049 A 
ATOM     14  C   LIG A   1      -8.451   6.107 132.680  0.00  0.00    +0.159 A 
ATOM     15  C   LIG A   1      -7.593   5.541 133.618  0.00  0.00    +0.162 A 
ATOM     16  C   LIG A   1      -6.214   5.481 133.328  0.00  0.00    +0.053 A 
BRANCH  14  17
ATOM     17  O   LIG A   1      -9.789   6.274 132.932  0.00  0.00    -0.503 OA
ATOM     18  H   LIG A   1      -9.906   6.915 133.643  0.00  0.00    +0.292 HD
ENDBRANCH  14  17
BRANCH  15  19
ATOM     19  O   LIG A   1      -7.946   5.044 134.850  0.00  0.00    -0.491 OA
ATOM     20  C   LIG A   1      -7.575   5.840 135.974  0.00  0.00    +0.277 C 
ENDBRANCH  15  19
ENDBRANCH   5  11
BRANCH   1  22
ATOM     21  C   LIG A   1      -1.630   2.984 126.517  0.00  0.00    +0.277 C 
ATOM     22  O   LIG A   1      -2.878   2.744 127.160  0.00  0.00    -0.491 OA
ENDBRANCH   1  22
BRANCH   2  23
ATOM     23  O   LIG A   1      -4.223   1.679 129.215  0.00  0.00    -0.503 OA
ATOM     24  H   LIG A   1      -4.771   1.597 128.410  0.00  0.00    +0.292 HD
ENDBRANCH   2  23
BRANCH   6  25
ATOM     25  C   LIG A   1      -2.095   6.974 132.635  0.00  0.00    +0.160 C 
BRANCH  25  26
ATOM     26  O   LIG A   1      -1.320   8.165 132.716  0.00  0.00    -0.395 OA
ATOM     27  H   LIG A   1      -0.896   8.296 131.851  0.00  0.00    +0.209 HD
ENDBRANCH  25  26
ENDBRANCH   6  25
BRANCH   7  28
ATOM     28  C   LIG A   1      -4.498   8.633 130.022  0.00  0.00    +0.160 C 
BRANCH  28  29
ATOM     29  O   LIG A   1      -4.158   9.916 129.510  0.00  0.00    -0.395 OA
ATOM     30  H   LIG A   1      -3.676   9.778 128.677  0.00  0.00    +0.209 HD
ENDBRANCH  28  29
ENDBRANCH   7  28
TORSDOF 9
ENDMDL
MODEL 4
REMARK VINA RESULT:      -6.5      1.309      5.958
REMARK  Name = NuBBE_2462
REMARK  11 active torsions:
REMARK  status: ('A' for Active; 'I' for Inactive)
REMARK    1  A    between atoms: C_1  and  O_2
REMARK    2  A    between atoms: O_2  and  C_3
REMARK    3  A    between atoms: C_4  and  O_5
REMARK    4  A    between atoms: C_8  and  C_10
REMARK    5  A    between atoms: C_13  and  O_14
REMARK    6  A    between atoms: C_15  and  O_16
REMARK    7  A    between atoms: O_16  and  C_17
REMARK    8  A    between atoms: C_19  and  C_21
REMARK    9  A    between atoms: C_21  and  O_22
REMARK   10  A    between atoms: C_23  and  C_25
REMARK   11  A    between atoms: C_25  and  O_26
REMARK                            x       y       z     vdW  Elec       q    Type
REMARK                         _______ _______ _______ _____ _____    ______ ____
ROOT
ATOM      1  C   LIG A   1      -7.612  -2.107 129.394  0.00  0.00    +0.162 A 
ATOM      2  C   LIG A   1      -6.804  -1.028 129.042  0.00  0.00    +0.159 A 
ATOM      3  C   LIG A   1      -6.468  -0.773 127.717  0.00  0.00    +0.053 A 
ATOM      4  C   LIG A   1      -6.924  -1.617 126.687  0.00  0.00    -0.033 A 
ATOM      5  C   LIG A   1      -6.510  -1.318 125.242  0.00  0.00    +0.055 C 
ATOM      6  C   LIG A   1      -6.798  -2.496 124.256  0.00  0.00    +0.032 C 
ATOM      7  C   LIG A   1      -8.097  -3.291 124.569  0.00  0.00    +0.025 C 
ATOM      8  C   LIG A   1      -8.140  -3.760 126.024  0.00  0.00    +0.041 C 
ATOM      9  C   LIG A   1      -7.723  -2.723 127.034  0.00  0.00    -0.040 A 
ATOM     10  C   LIG A   1      -8.061  -2.957 128.387  0.00  0.00    +0.053 A 
ENDROOT
BRANCH   5  11
ATOM     11  C   LIG A   1      -6.981   0.043 124.700  0.00  0.00    -0.036 A 
ATOM     12  C   LIG A   1      -6.874   0.378 123.348  0.00  0.00    +0.008 A 
ATOM     13  C   LIG A   1      -7.306   1.620 122.873  0.00  0.00    +0.049 A 
ATOM     14  C   LIG A   1      -7.865   2.548 123.753  0.00  0.00    +0.159 A 
ATOM     15  C   LIG A   1      -8.036   2.236 125.098  0.00  0.00    +0.162 A 
ATOM     16  C   LIG A   1      -7.575   0.990 125.571  0.00  0.00    +0.053 A 
BRANCH  14  17
ATOM     17  O   LIG A   1      -8.213   3.773 123.244  0.00  0.00    -0.503 OA
ATOM     18  H   LIG A   1      -8.811   4.219 123.857  0.00  0.00    +0.292 HD
ENDBRANCH  14  17
BRANCH  15  19
ATOM     19  O   LIG A   1      -8.597   3.046 126.058  0.00  0.00    -0.491 OA
ATOM     20  C   LIG A   1      -7.686   3.644 126.979  0.00  0.00    +0.277 C 
ENDBRANCH  15  19
ENDBRANCH   5  11
BRANCH   1  22
ATOM     21  C   LIG A   1      -7.027  -3.268 131.374  0.00  0.00    +0.277 C 
ATOM     22  O   LIG A   1      -7.827  -2.278 130.737  0.00  0.00    -0.491 OA
ENDBRANCH   1  22
BRANCH   2  23
ATOM     23  O   LIG A   1      -6.317  -0.190 130.009  0.00  0.00    -0.503 OA
ATOM     24  H   LIG A   1      -7.109   0.213 130.415  0.00  0.00    +0.292 HD
ENDBRANCH   2  23
BRANCH   6  25
ATOM     25  C   LIG A   1      -5.573  -3.442 124.252  0.00  0.00    +0.160 C 
BRANCH  25  26
ATOM     26  O   LIG A   1      -4.597  -3.041 123.297  0.00  0.00    -0.395 OA
ATOM     27  H   LIG A   1      -3.998  -2.415 123.737  0.00  0.00    +0.209 HD
ENDBRANCH  25  26
ENDBRANCH   6  25
BRANCH   7  28
ATOM     28  C   LIG A   1      -9.394  -2.574 124.183  0.00  0.00    +0.160 C 
BRANCH  28  29
ATOM     29  O   LIG A   1     -10.189  -3.441 123.384  0.00  0.00    -0.395 OA
ATOM     30  H   LIG A   1      -9.814  -4.335 123.463  0.00  0.00    +0.209 HD
ENDBRANCH  28  29
ENDBRANCH   7  28
TORSDOF 9
ENDMDL
MODEL 5
REMARK VINA RESULT:      -6.4      2.001      6.562
REMARK  Name = NuBBE_2462
REMARK  11 active torsions:
REMARK  status: ('A' for Active; 'I' for Inactive)
REMARK    1  A    between atoms: C_1  and  O_2
REMARK    2  A    between atoms: O_2  and  C_3
REMARK    3  A    between atoms: C_4  and  O_5
REMARK    4  A    between atoms: C_8  and  C_10
REMARK    5  A    between atoms: C_13  and  O_14
REMARK    6  A    between atoms: C_15  and  O_16
REMARK    7  A    between atoms: O_16  and  C_17
REMARK    8  A    between atoms: C_19  and  C_21
REMARK    9  A    between atoms: C_21  and  O_22
REMARK   10  A    between atoms: C_23  and  C_25
REMARK   11  A    between atoms: C_25  and  O_26
REMARK                            x       y       z     vdW  Elec       q    Type
REMARK                         _______ _______ _______ _____ _____    ______ ____
ROOT
ATOM      1  C   LIG A   1      -6.542  -1.513 128.735  0.00  0.00    +0.162 A 
ATOM      2  C   LIG A   1      -5.478  -0.754 128.252  0.00  0.00    +0.159 A 
ATOM      3  C   LIG A   1      -5.538  -0.119 127.018  0.00  0.00    +0.053 A 
ATOM      4  C   LIG A   1      -6.681  -0.242 126.204  0.00  0.00    -0.033 A 
ATOM      5  C   LIG A   1      -6.699   0.452 124.837  0.00  0.00    +0.055 C 
ATOM      6  C   LIG A   1      -7.862  -0.030 123.911  0.00  0.00    +0.032 C 
ATOM      7  C   LIG A   1      -9.184  -0.358 124.660  0.00  0.00    +0.025 C 
ATOM      8  C   LIG A   1      -8.955  -1.331 125.818  0.00  0.00    +0.041 C 
ATOM      9  C   LIG A   1      -7.753  -1.024 126.673  0.00  0.00    -0.040 A 
ATOM     10  C   LIG A   1      -7.674  -1.653 127.936  0.00  0.00    +0.053 A 
ENDROOT
BRANCH   5  11
ATOM     11  C   LIG A   1      -6.568   1.984 124.884  0.00  0.00    -0.036 A 
ATOM     12  C   LIG A   1      -6.853   2.717 126.038  0.00  0.00    +0.008 A 
ATOM     13  C   LIG A   1      -6.731   4.109 126.062  0.00  0.00    +0.049 A 
ATOM     14  C   LIG A   1      -6.307   4.792 124.921  0.00  0.00    +0.159 A 
ATOM     15  C   LIG A   1      -5.964   4.097 123.765  0.00  0.00    +0.162 A 
ATOM     16  C   LIG A   1      -6.115   2.695 123.745  0.00  0.00    +0.053 A 
BRANCH  14  17
ATOM     17  O   LIG A   1      -6.264   6.161 124.982  0.00  0.00    -0.503 OA
ATOM     18  H   LIG A   1      -7.034   6.486 125.465  0.00  0.00    +0.292 HD
ENDBRANCH  14  17
BRANCH  15  19
ATOM     19  O   LIG A   1      -5.507   4.646 122.590  0.00  0.00    -0.491 OA
ATOM     20  C   LIG A   1      -5.783   3.901 121.405  0.00  0.00    +0.277 C 
ENDBRANCH  15  19
ENDBRANCH   5  11
BRANCH   1  22
ATOM     21  C   LIG A   1      -6.976  -3.388 130.115  0.00  0.00    +0.277 C 
ATOM     22  O   LIG A   1      -6.336  -2.128 129.942  0.00  0.00    -0.491 OA
ENDBRANCH   1  22
BRANCH   2  23
ATOM     23  O   LIG A   1      -4.336  -0.621 128.996  0.00  0.00    -0.503 OA
ATOM     24  H   LIG A   1      -4.515  -1.110 129.822  0.00  0.00    +0.292 HD
ENDBRANCH   2  23
BRANCH   6  25
ATOM     25  C   LIG A   1      -7.374  -1.262 123.112  0.00  0.00    +0.160 C 
BRANCH  25  26
ATOM     26  O   LIG A   1      -8.442  -1.904 122.424  0.00  0.00    -0.395 OA
ATOM     27  H   LIG A   1      -8.126  -2.115 121.528  0.00  0.00    +0.209 HD
ENDBRANCH  25  26
ENDBRANCH   6  25
BRANCH   7  28
ATOM     28  C   LIG A   1      -9.980   0.867 125.121  0.00  0.00    +0.160 C 
BRANCH  28  29
ATOM     29  O   LIG A   1     -10.792   1.329 124.049  0.00  0.00    -0.395 OA
ATOM     30  H   LIG A   1     -10.237   1.349 123.251  0.00  0.00    +0.209 HD
ENDBRANCH  28  29
ENDBRANCH   7  28
TORSDOF 9
ENDMDL
MODEL 6
REMARK VINA RESULT:      -6.2      3.760      6.616
REMARK  Name = NuBBE_2462
REMARK  11 active torsions:
REMARK  status: ('A' for Active; 'I' for Inactive)
REMARK    1  A    between atoms: C_1  and  O_2
REMARK    2  A    between atoms: O_2  and  C_3
REMARK    3  A    between atoms: C_4  and  O_5
REMARK    4  A    between atoms: C_8  and  C_10
REMARK    5  A    between atoms: C_13  and  O_14
REMARK    6  A    between atoms: C_15  and  O_16
REMARK    7  A    between atoms: O_16  and  C_17
REMARK    8  A    between atoms: C_19  and  C_21
REMARK    9  A    between atoms: C_21  and  O_22
REMARK   10  A    between atoms: C_23  and  C_25
REMARK   11  A    between atoms: C_25  and  O_26
REMARK                            x       y       z     vdW  Elec       q    Type
REMARK                         _______ _______ _______ _____ _____    ______ ____
ROOT
ATOM      1  C   LIG A   1      -9.148   1.981 123.747  0.00  0.00    +0.162 A 
ATOM      2  C   LIG A   1      -8.334   3.107 123.642  0.00  0.00    +0.159 A 
ATOM      3  C   LIG A   1      -7.629   3.599 124.734  0.00  0.00    +0.053 A 
ATOM      4  C   LIG A   1      -7.734   2.978 125.993  0.00  0.00    -0.033 A 
ATOM      5  C   LIG A   1      -6.962   3.567 127.179  0.00  0.00    +0.055 C 
ATOM      6  C   LIG A   1      -7.418   2.999 128.563  0.00  0.00    +0.032 C 
ATOM      7  C   LIG A   1      -7.825   1.499 128.536  0.00  0.00    +0.025 C 
ATOM      8  C   LIG A   1      -8.858   1.208 127.447  0.00  0.00    +0.041 C 
ATOM      9  C   LIG A   1      -8.571   1.853 126.116  0.00  0.00    -0.040 A 
ATOM     10  C   LIG A   1      -9.270   1.364 124.990  0.00  0.00    +0.053 A 
ENDROOT
BRANCH   5  11
ATOM     11  C   LIG A   1      -5.432   3.583 127.016  0.00  0.00    -0.036 A 
ATOM     12  C   LIG A   1      -4.742   2.531 126.410  0.00  0.00    +0.008 A 
ATOM     13  C   LIG A   1      -3.351   2.561 126.271  0.00  0.00    +0.049 A 
ATOM     14  C   LIG A   1      -2.627   3.661 126.734  0.00  0.00    +0.159 A 
ATOM     15  C   LIG A   1      -3.279   4.753 127.298  0.00  0.00    +0.162 A 
ATOM     16  C   LIG A   1      -4.680   4.701 127.456  0.00  0.00    +0.053 A 
BRANCH  14  17
ATOM     17  O   LIG A   1      -1.261   3.610 126.629  0.00  0.00    -0.503 OA
ATOM     18  H   LIG A   1      -1.016   3.323 125.740  0.00  0.00    +0.292 HD
ENDBRANCH  14  17
BRANCH  15  19
ATOM     19  O   LIG A   1      -2.688   5.904 127.764  0.00  0.00    -0.491 OA
ATOM     20  C   LIG A   1      -2.452   5.959 129.170  0.00  0.00    +0.277 C 
ENDBRANCH  15  19
ENDBRANCH   5  11
BRANCH   1  22
ATOM     21  C   LIG A   1     -10.167   0.251 122.491  0.00  0.00    +0.277 C 
ATOM     22  O   LIG A   1      -9.827   1.628 122.611  0.00  0.00    -0.491 OA
ENDBRANCH   1  22
BRANCH   2  23
ATOM     23  O   LIG A   1      -8.216   3.759 122.445  0.00  0.00    -0.503 OA
ATOM     24  H   LIG A   1      -7.356   3.469 122.083  0.00  0.00    +0.292 HD
ENDBRANCH   2  23
BRANCH   6  25
ATOM     25  C   LIG A   1      -8.588   3.867 129.086  0.00  0.00    +0.160 C 
BRANCH  25  26
ATOM     26  O   LIG A   1      -8.711   5.085 128.360  0.00  0.00    -0.395 OA
ATOM     27  H   LIG A   1      -8.325   4.939 127.479  0.00  0.00    +0.209 HD
ENDBRANCH  25  26
ENDBRANCH   6  25
BRANCH   7  28
ATOM     28  C   LIG A   1      -6.650   0.519 128.456  0.00  0.00    +0.160 C 
BRANCH  28  29
ATOM     29  O   LIG A   1      -7.101  -0.709 127.899  0.00  0.00    -0.395 OA
ATOM     30  H   LIG A   1      -7.829  -1.032 128.457  0.00  0.00    +0.209 HD
ENDBRANCH  28  29
ENDBRANCH   7  28
TORSDOF 9
ENDMDL
MODEL 7
REMARK VINA RESULT:      -6.2      3.410      6.854
REMARK  Name = NuBBE_2462
REMARK  11 active torsions:
REMARK  status: ('A' for Active; 'I' for Inactive)
REMARK    1  A    between atoms: C_1  and  O_2
REMARK    2  A    between atoms: O_2  and  C_3
REMARK    3  A    between atoms: C_4  and  O_5
REMARK    4  A    between atoms: C_8  and  C_10
REMARK    5  A    between atoms: C_13  and  O_14
REMARK    6  A    between atoms: C_15  and  O_16
REMARK    7  A    between atoms: O_16  and  C_17
REMARK    8  A    between atoms: C_19  and  C_21
REMARK    9  A    between atoms: C_21  and  O_22
REMARK   10  A    between atoms: C_23  and  C_25
REMARK   11  A    between atoms: C_25  and  O_26
REMARK                            x       y       z     vdW  Elec       q    Type
REMARK                         _______ _______ _______ _____ _____    ______ ____
ROOT
ATOM      1  C   LIG A   1      -7.836  -0.959 126.421  0.00  0.00    +0.162 A 
ATOM      2  C   LIG A   1      -6.449  -0.870 126.529  0.00  0.00    +0.159 A 
ATOM      3  C   LIG A   1      -5.759   0.263 126.116  0.00  0.00    +0.053 A 
ATOM      4  C   LIG A   1      -6.446   1.356 125.555  0.00  0.00    -0.033 A 
ATOM      5  C   LIG A   1      -5.646   2.577 125.088  0.00  0.00    +0.055 C 
ATOM      6  C   LIG A   1      -6.474   3.558 124.196  0.00  0.00    +0.032 C 
ATOM      7  C   LIG A   1      -7.969   3.687 124.602  0.00  0.00    +0.025 C 
ATOM      8  C   LIG A   1      -8.650   2.322 124.707  0.00  0.00    +0.041 C 
ATOM      9  C   LIG A   1      -7.845   1.268 125.422  0.00  0.00    -0.040 A 
ATOM     10  C   LIG A   1      -8.527   0.110 125.857  0.00  0.00    +0.053 A 
ENDROOT
BRANCH   5  11
ATOM     11  C   LIG A   1      -4.856   3.298 126.193  0.00  0.00    -0.036 A 
ATOM     12  C   LIG A   1      -3.459   3.327 126.207  0.00  0.00    +0.008 A 
ATOM     13  C   LIG A   1      -2.757   3.986 127.220  0.00  0.00    +0.049 A 
ATOM     14  C   LIG A   1      -3.452   4.641 128.238  0.00  0.00    +0.159 A 
ATOM     15  C   LIG A   1      -4.843   4.680 128.236  0.00  0.00    +0.162 A 
ATOM     16  C   LIG A   1      -5.541   3.991 127.222  0.00  0.00    +0.053 A 
BRANCH  14  17
ATOM     17  O   LIG A   1      -2.713   5.217 129.239  0.00  0.00    -0.503 OA
ATOM     18  H   LIG A   1      -2.417   4.535 129.855  0.00  0.00    +0.292 HD
ENDBRANCH  14  17
BRANCH  15  19
ATOM     19  O   LIG A   1      -5.641   5.313 129.160  0.00  0.00    -0.491 OA
ATOM     20  C   LIG A   1      -6.792   4.588 129.589  0.00  0.00    +0.277 C 
ENDBRANCH  15  19
ENDBRANCH   5  11
BRANCH   1  22
ATOM     21  C   LIG A   1      -9.240  -2.784 125.868  0.00  0.00    +0.277 C 
ATOM     22  O   LIG A   1      -8.389  -2.149 126.816  0.00  0.00    -0.491 OA
ENDBRANCH   1  22
BRANCH   2  23
ATOM     23  O   LIG A   1      -5.732  -1.915 127.048  0.00  0.00    -0.503 OA
ATOM     24  H   LIG A   1      -4.978  -1.499 127.508  0.00  0.00    +0.292 HD
ENDBRANCH   2  23
BRANCH   6  25
ATOM     25  C   LIG A   1      -6.352   3.102 122.722  0.00  0.00    +0.160 C 
BRANCH  25  26
ATOM     26  O   LIG A   1      -7.219   3.837 121.866  0.00  0.00    -0.395 OA
ATOM     27  H   LIG A   1      -8.132   3.615 122.116  0.00  0.00    +0.209 HD
ENDBRANCH  25  26
ENDBRANCH   6  25
BRANCH   7  28
ATOM     28  C   LIG A   1      -8.221   4.525 125.859  0.00  0.00    +0.160 C 
BRANCH  28  29
ATOM     29  O   LIG A   1      -8.638   5.830 125.477  0.00  0.00    -0.395 OA
ATOM     30  H   LIG A   1      -8.405   5.947 124.540  0.00  0.00    +0.209 HD
ENDBRANCH  28  29
ENDBRANCH   7  28
TORSDOF 9
ENDMDL
MODEL 8
REMARK VINA RESULT:      -6.2      7.406     10.050
REMARK  Name = NuBBE_2462
REMARK  11 active torsions:
REMARK  status: ('A' for Active; 'I' for Inactive)
REMARK    1  A    between atoms: C_1  and  O_2
REMARK    2  A    between atoms: O_2  and  C_3
REMARK    3  A    between atoms: C_4  and  O_5
REMARK    4  A    between atoms: C_8  and  C_10
REMARK    5  A    between atoms: C_13  and  O_14
REMARK    6  A    between atoms: C_15  and  O_16
REMARK    7  A    between atoms: O_16  and  C_17
REMARK    8  A    between atoms: C_19  and  C_21
REMARK    9  A    between atoms: C_21  and  O_22
REMARK   10  A    between atoms: C_23  and  C_25
REMARK   11  A    between atoms: C_25  and  O_26
REMARK                            x       y       z     vdW  Elec       q    Type
REMARK                         _______ _______ _______ _____ _____    ______ ____
ROOT
ATOM      1  C   LIG A   1     -10.727   6.209 129.537  0.00  0.00    +0.162 A 
ATOM      2  C   LIG A   1      -9.802   7.252 129.511  0.00  0.00    +0.159 A 
ATOM      3  C   LIG A   1      -8.665   7.235 130.310  0.00  0.00    +0.053 A 
ATOM      4  C   LIG A   1      -8.424   6.163 131.190  0.00  0.00    -0.033 A 
ATOM      5  C   LIG A   1      -7.173   6.195 132.075  0.00  0.00    +0.055 C 
ATOM      6  C   LIG A   1      -7.196   5.134 133.224  0.00  0.00    +0.032 C 
ATOM      7  C   LIG A   1      -7.873   3.788 132.839  0.00  0.00    +0.025 C 
ATOM      8  C   LIG A   1      -9.267   4.000 132.248  0.00  0.00    +0.041 C 
ATOM      9  C   LIG A   1      -9.363   5.116 131.241  0.00  0.00    -0.040 A 
ATOM     10  C   LIG A   1     -10.507   5.149 130.411  0.00  0.00    +0.053 A 
ENDROOT
BRANCH   5  11
ATOM     11  C   LIG A   1      -5.838   6.218 131.312  0.00  0.00    -0.036 A 
ATOM     12  C   LIG A   1      -4.731   6.931 131.777  0.00  0.00    +0.008 A 
ATOM     13  C   LIG A   1      -3.525   6.942 131.070  0.00  0.00    +0.049 A 
ATOM     14  C   LIG A   1      -3.408   6.223 129.879  0.00  0.00    +0.159 A 
ATOM     15  C   LIG A   1      -4.470   5.459 129.405  0.00  0.00    +0.162 A 
ATOM     16  C   LIG A   1      -5.689   5.475 130.114  0.00  0.00    +0.053 A 
BRANCH  14  17
ATOM     17  O   LIG A   1      -2.224   6.320 129.195  0.00  0.00    -0.503 OA
ATOM     18  H   LIG A   1      -2.382   6.721 128.331  0.00  0.00    +0.292 HD
ENDBRANCH  14  17
BRANCH  15  19
ATOM     19  O   LIG A   1      -4.474   4.687 128.267  0.00  0.00    -0.491 OA
ATOM     20  C   LIG A   1      -5.751   4.225 127.831  0.00  0.00    +0.277 C 
ENDBRANCH  15  19
ENDBRANCH   5  11
BRANCH   1  22
ATOM     21  C   LIG A   1     -12.995   6.875 129.382  0.00  0.00    +0.277 C 
ATOM     22  O   LIG A   1     -11.829   6.371 128.739  0.00  0.00    -0.491 OA
ENDBRANCH   1  22
BRANCH   2  23
ATOM     23  O   LIG A   1     -10.002   8.327 128.687  0.00  0.00    -0.503 OA
ATOM     24  H   LIG A   1      -9.681   9.097 129.195  0.00  0.00    +0.292 HD
ENDBRANCH   2  23
BRANCH   6  25
ATOM     25  C   LIG A   1      -7.898   5.759 134.453  0.00  0.00    +0.160 C 
BRANCH  25  26
ATOM     26  O   LIG A   1      -8.491   4.768 135.285  0.00  0.00    -0.395 OA
ATOM     27  H   LIG A   1      -9.438   4.978 135.359  0.00  0.00    +0.209 HD
ENDBRANCH  25  26
ENDBRANCH   6  25
BRANCH   7  28
ATOM     28  C   LIG A   1      -7.027   2.882 131.940  0.00  0.00    +0.160 C 
BRANCH  28  29
ATOM     29  O   LIG A   1      -5.707   2.799 132.465  0.00  0.00    -0.395 OA
ATOM     30  H   LIG A   1      -5.121   2.532 131.737  0.00  0.00    +0.209 HD
ENDBRANCH  28  29
ENDBRANCH   7  28
TORSDOF 9
ENDMDL
MODEL 9
REMARK VINA RESULT:      -6.1      8.149     10.258
REMARK  Name = NuBBE_2462
REMARK  11 active torsions:
REMARK  status: ('A' for Active; 'I' for Inactive)
REMARK    1  A    between atoms: C_1  and  O_2
REMARK    2  A    between atoms: O_2  and  C_3
REMARK    3  A    between atoms: C_4  and  O_5
REMARK    4  A    between atoms: C_8  and  C_10
REMARK    5  A    between atoms: C_13  and  O_14
REMARK    6  A    between atoms: C_15  and  O_16
REMARK    7  A    between atoms: O_16  and  C_17
REMARK    8  A    between atoms: C_19  and  C_21
REMARK    9  A    between atoms: C_21  and  O_22
REMARK   10  A    between atoms: C_23  and  C_25
REMARK   11  A    between atoms: C_25  and  O_26
REMARK                            x       y       z     vdW  Elec       q    Type
REMARK                         _______ _______ _______ _____ _____    ______ ____
ROOT
ATOM      1  C   LIG A   1     -10.777   6.225 129.519  0.00  0.00    +0.162 A 
ATOM      2  C   LIG A   1      -9.838   7.254 129.482  0.00  0.00    +0.159 A 
ATOM      3  C   LIG A   1      -8.699   7.230 130.279  0.00  0.00    +0.053 A 
ATOM      4  C   LIG A   1      -8.471   6.163 131.168  0.00  0.00    -0.033 A 
ATOM      5  C   LIG A   1      -7.217   6.185 132.050  0.00  0.00    +0.055 C 
ATOM      6  C   LIG A   1      -7.251   5.135 133.207  0.00  0.00    +0.032 C 
ATOM      7  C   LIG A   1      -7.946   3.794 132.836  0.00  0.00    +0.025 C 
ATOM      8  C   LIG A   1      -9.339   4.020 132.246  0.00  0.00    +0.041 C 
ATOM      9  C   LIG A   1      -9.423   5.128 131.229  0.00  0.00    -0.040 A 
ATOM     10  C   LIG A   1     -10.568   5.169 130.402  0.00  0.00    +0.053 A 
ENDROOT
BRANCH   5  11
ATOM     11  C   LIG A   1      -5.883   6.185 131.283  0.00  0.00    -0.036 A 
ATOM     12  C   LIG A   1      -5.720   5.493 130.081  0.00  0.00    +0.008 A 
ATOM     13  C   LIG A   1      -4.500   5.502 129.399  0.00  0.00    +0.049 A 
ATOM     14  C   LIG A   1      -3.419   6.221 129.912  0.00  0.00    +0.159 A 
ATOM     15  C   LIG A   1      -3.552   6.965 131.080  0.00  0.00    +0.162 A 
ATOM     16  C   LIG A   1      -4.780   6.928 131.773  0.00  0.00    +0.053 A 
BRANCH  14  17
ATOM     17  O   LIG A   1      -2.229   6.144 129.235  0.00  0.00    -0.503 OA
ATOM     18  H   LIG A   1      -1.883   7.033 129.088  0.00  0.00    +0.292 HD
ENDBRANCH  14  17
BRANCH  15  19
ATOM     19  O   LIG A   1      -2.578   7.735 131.671  0.00  0.00    -0.491 OA
ATOM     20  C   LIG A   1      -1.762   7.074 132.637  0.00  0.00    +0.277 C 
ENDBRANCH  15  19
ENDBRANCH   5  11
BRANCH   1  22
ATOM     21  C   LIG A   1     -13.048   6.877 129.373  0.00  0.00    +0.277 C 
ATOM     22  O   LIG A   1     -11.878   6.393 128.722  0.00  0.00    -0.491 OA
ENDBRANCH   1  22
BRANCH   2  23
ATOM     23  O   LIG A   1     -10.026   8.325 128.650  0.00  0.00    -0.503 OA
ATOM     24  H   LIG A   1      -9.151   8.757 128.593  0.00  0.00    +0.292 HD
ENDBRANCH   2  23
BRANCH   6  25
ATOM     25  C   LIG A   1      -7.942   5.780 134.433  0.00  0.00    +0.160 C 
BRANCH  25  26
ATOM     26  O   LIG A   1      -8.466   4.799 135.322  0.00  0.00    -0.395 OA
ATOM     27  H   LIG A   1      -9.113   5.243 135.897  0.00  0.00    +0.209 HD
ENDBRANCH  25  26
ENDBRANCH   6  25
BRANCH   7  28
ATOM     28  C   LIG A   1      -7.114   2.869 131.943  0.00  0.00    +0.160 C 
BRANCH  28  29
ATOM     29  O   LIG A   1      -5.788   2.794 132.452  0.00  0.00    -0.395 OA
ATOM     30  H   LIG A   1      -5.848   2.485 133.372  0.00  0.00    +0.209 HD
ENDBRANCH  28  29
ENDBRANCH   7  28
TORSDOF 9
ENDMDL
