MODEL 1
REMARK VINA RESULT:      -8.7      0.000      0.000
REMARK  Name = NuBBE_2366
REMARK  6 active torsions:
REMARK  status: ('A' for Active; 'I' for Inactive)
REMARK    1  A    between atoms: C_2  and  C_3
REMARK    2  A    between atoms: C_10  and  O_11
REMARK    3  A    between atoms: C_12  and  O_13
REMARK    4  A    between atoms: O_13  and  C_14
REMARK    5  A    between atoms: C_15  and  O_16
REMARK    6  A    between atoms: O_16  and  C_17
REMARK                            x       y       z     vdW  Elec       q    Type
REMARK                         _______ _______ _______ _____ _____    ______ ____
ROOT
ATOM      1  O   LIG A   1      -4.911   3.422 127.721  0.00  0.00    -0.276 OA
ATOM      2  C   LIG A   1      -5.168   2.204 127.645  0.00  0.00    +0.217 C 
ATOM      3  C   LIG A   1      -4.802   1.326 128.807  0.00  0.00    +0.110 C 
ATOM      4  N   LIG A   1      -5.789   1.652 126.561  0.00  0.00    -0.264 N 
ATOM      5  C   LIG A   1      -6.222   0.281 126.275  0.00  0.00    +0.096 C 
ATOM      6  C   LIG A   1      -7.557   0.375 125.499  0.00  0.00    +0.061 C 
ATOM      7  C   LIG A   1      -7.054   1.548 124.623  0.00  0.00    -0.007 A 
ATOM      8  C   LIG A   1      -6.082   2.312 125.323  0.00  0.00    +0.086 A 
ATOM      9  C   LIG A   1      -5.505   3.446 124.743  0.00  0.00    +0.184 A 
ATOM     10  C   LIG A   1      -5.926   3.856 123.457  0.00  0.00    +0.205 A 
ATOM     11  C   LIG A   1      -7.005   3.193 122.842  0.00  0.00    +0.166 A 
ATOM     12  C   LIG A   1      -7.563   2.064 123.444  0.00  0.00    +0.056 A 
ATOM     13  C   LIG A   1      -8.065  -1.093 125.278  0.00  0.00    +0.140 C 
ATOM     14  O   LIG A   1      -8.618  -1.586 126.550  0.00  0.00    -0.357 OA
ATOM     15  C   LIG A   1      -8.699  -3.016 126.518  0.00  0.00    +0.163 C 
ATOM     16  C   LIG A   1      -7.880  -3.461 125.328  0.00  0.00    +0.039 C 
ATOM     17  C   LIG A   1      -7.059  -2.204 124.996  0.00  0.00    +0.017 C 
ATOM     18  C   LIG A   1      -5.864  -2.152 126.017  0.00  0.00    +0.013 C 
ATOM     19  C   LIG A   1      -5.928  -0.986 127.054  0.00  0.00    +0.025 C 
ATOM     20  C   LIG A   1      -6.638  -2.160 123.526  0.00  0.00    +0.012 C 
ATOM     21  C   LIG A   1      -7.862  -2.123 122.594  0.00  0.00    +0.016 C 
ATOM     22  C   LIG A   1      -8.900  -1.050 122.979  0.00  0.00    +0.087 C 
ATOM     23  N   LIG A   1      -9.214  -0.969 124.403  0.00  0.00    -0.274 NA
ATOM     24  C   LIG A   1      -9.889   0.252 124.908  0.00  0.00    +0.088 C 
ATOM     25  C   LIG A   1      -8.922   0.931 125.955  0.00  0.00    +0.033 C 
ENDROOT
BRANCH   9  26
ATOM     26  O   LIG A   1      -4.469   4.113 125.338  0.00  0.00    -0.502 OA
ATOM     27  H   LIG A   1      -4.659   4.145 126.302  0.00  0.00    +0.292 HD
ENDBRANCH   9  26
BRANCH  10  28
ATOM     28  O   LIG A   1      -5.252   4.919 122.897  0.00  0.00    -0.488 OA
ATOM     29  C   LIG A   1      -4.414   4.628 121.779  0.00  0.00    +0.277 C 
ENDBRANCH  10  28
BRANCH  11  30
ATOM     30  O   LIG A   1      -7.565   3.732 121.708  0.00  0.00    -0.491 OA
ATOM     31  C   LIG A   1      -8.872   3.273 121.369  0.00  0.00    +0.277 C 
ENDBRANCH  11  30
TORSDOF 3
ENDMDL
MODEL 2
REMARK VINA RESULT:      -8.2      2.528      4.914
REMARK  Name = NuBBE_2366
REMARK  6 active torsions:
REMARK  status: ('A' for Active; 'I' for Inactive)
REMARK    1  A    between atoms: C_2  and  C_3
REMARK    2  A    between atoms: C_10  and  O_11
REMARK    3  A    between atoms: C_12  and  O_13
REMARK    4  A    between atoms: O_13  and  C_14
REMARK    5  A    between atoms: C_15  and  O_16
REMARK    6  A    between atoms: O_16  and  C_17
REMARK                            x       y       z     vdW  Elec       q    Type
REMARK                         _______ _______ _______ _____ _____    ______ ____
ROOT
ATOM      1  O   LIG A   1      -6.729   4.036 124.670  0.00  0.00    -0.276 OA
ATOM      2  C   LIG A   1      -6.875   2.872 124.245  0.00  0.00    +0.217 C 
ATOM      3  C   LIG A   1      -6.654   2.617 122.782  0.00  0.00    +0.110 C 
ATOM      4  N   LIG A   1      -7.201   1.828 125.062  0.00  0.00    -0.264 N 
ATOM      5  C   LIG A   1      -7.379   0.397 124.797  0.00  0.00    +0.096 C 
ATOM      6  C   LIG A   1      -6.822  -0.368 126.021  0.00  0.00    +0.061 C 
ATOM      7  C   LIG A   1      -7.454   0.626 127.027  0.00  0.00    -0.007 A 
ATOM      8  C   LIG A   1      -7.576   1.915 126.443  0.00  0.00    +0.086 A 
ATOM      9  C   LIG A   1      -8.092   2.989 127.174  0.00  0.00    +0.184 A 
ATOM     10  C   LIG A   1      -8.460   2.794 128.525  0.00  0.00    +0.205 A 
ATOM     11  C   LIG A   1      -8.181   1.560 129.143  0.00  0.00    +0.166 A 
ATOM     12  C   LIG A   1      -7.665   0.505 128.389  0.00  0.00    +0.056 A 
ATOM     13  C   LIG A   1      -6.928  -1.899 125.693  0.00  0.00    +0.140 C 
ATOM     14  O   LIG A   1      -5.853  -2.243 124.748  0.00  0.00    -0.357 OA
ATOM     15  C   LIG A   1      -6.156  -3.488 124.108  0.00  0.00    +0.163 C 
ATOM     16  C   LIG A   1      -7.607  -3.780 124.411  0.00  0.00    +0.039 C 
ATOM     17  C   LIG A   1      -8.127  -2.420 124.909  0.00  0.00    +0.017 C 
ATOM     18  C   LIG A   1      -8.393  -1.536 123.636  0.00  0.00    +0.013 C 
ATOM     19  C   LIG A   1      -7.431  -0.318 123.462  0.00  0.00    +0.025 C 
ATOM     20  C   LIG A   1      -9.331  -2.568 125.841  0.00  0.00    +0.012 C 
ATOM     21  C   LIG A   1      -8.967  -3.368 127.104  0.00  0.00    +0.016 C 
ATOM     22  C   LIG A   1      -7.690  -2.866 127.807  0.00  0.00    +0.087 C 
ATOM     23  N   LIG A   1      -6.565  -2.576 126.923  0.00  0.00    -0.274 NA
ATOM     24  C   LIG A   1      -5.453  -1.744 127.447  0.00  0.00    +0.088 C 
ATOM     25  C   LIG A   1      -5.381  -0.437 126.564  0.00  0.00    +0.033 C 
ENDROOT
BRANCH   9  26
ATOM     26  O   LIG A   1      -8.350   4.201 126.593  0.00  0.00    -0.502 OA
ATOM     27  H   LIG A   1      -9.045   4.056 125.914  0.00  0.00    +0.292 HD
ENDBRANCH   9  26
BRANCH  10  28
ATOM     28  O   LIG A   1      -9.054   3.860 129.163  0.00  0.00    -0.488 OA
ATOM     29  C   LIG A   1      -8.188   4.746 129.871  0.00  0.00    +0.277 C 
ENDBRANCH  10  28
BRANCH  11  30
ATOM     30  O   LIG A   1      -8.320   1.445 130.506  0.00  0.00    -0.491 OA
ATOM     31  C   LIG A   1      -8.397   0.118 131.024  0.00  0.00    +0.277 C 
ENDBRANCH  11  30
TORSDOF 3
ENDMDL
MODEL 3
REMARK VINA RESULT:      -8.2      1.769      2.626
REMARK  Name = NuBBE_2366
REMARK  6 active torsions:
REMARK  status: ('A' for Active; 'I' for Inactive)
REMARK    1  A    between atoms: C_2  and  C_3
REMARK    2  A    between atoms: C_10  and  O_11
REMARK    3  A    between atoms: C_12  and  O_13
REMARK    4  A    between atoms: O_13  and  C_14
REMARK    5  A    between atoms: C_15  and  O_16
REMARK    6  A    between atoms: O_16  and  C_17
REMARK                            x       y       z     vdW  Elec       q    Type
REMARK                         _______ _______ _______ _____ _____    ______ ____
ROOT
ATOM      1  O   LIG A   1      -7.563   2.344 130.239  0.00  0.00    -0.276 OA
ATOM      2  C   LIG A   1      -7.712   1.214 129.731  0.00  0.00    +0.217 C 
ATOM      3  C   LIG A   1      -8.285   0.121 130.587  0.00  0.00    +0.110 C 
ATOM      4  N   LIG A   1      -7.399   0.948 128.430  0.00  0.00    -0.264 N 
ATOM      5  C   LIG A   1      -7.527  -0.268 127.622  0.00  0.00    +0.096 C 
ATOM      6  C   LIG A   1      -7.927   0.171 126.193  0.00  0.00    +0.061 C 
ATOM      7  C   LIG A   1      -6.933   1.358 126.197  0.00  0.00    -0.007 A 
ATOM      8  C   LIG A   1      -6.723   1.828 127.521  0.00  0.00    +0.086 A 
ATOM      9  C   LIG A   1      -5.887   2.920 127.772  0.00  0.00    +0.184 A 
ATOM     10  C   LIG A   1      -5.273   3.586 126.687  0.00  0.00    +0.205 A 
ATOM     11  C   LIG A   1      -5.617   3.220 125.372  0.00  0.00    +0.166 A 
ATOM     12  C   LIG A   1      -6.456   2.126 125.150  0.00  0.00    +0.056 A 
ATOM     13  C   LIG A   1      -8.155  -1.137 125.357  0.00  0.00    +0.140 C 
ATOM     14  O   LIG A   1      -9.453  -1.713 125.749  0.00  0.00    -0.357 OA
ATOM     15  C   LIG A   1      -9.511  -3.086 125.344  0.00  0.00    +0.163 C 
ATOM     16  C   LIG A   1      -8.099  -3.481 124.977  0.00  0.00    +0.039 C 
ATOM     17  C   LIG A   1      -7.262  -2.349 125.595  0.00  0.00    +0.017 C 
ATOM     18  C   LIG A   1      -7.131  -2.659 127.131  0.00  0.00    +0.013 C 
ATOM     19  C   LIG A   1      -7.888  -1.669 128.073  0.00  0.00    +0.025 C 
ATOM     20  C   LIG A   1      -5.927  -2.157 124.872  0.00  0.00    +0.012 C 
ATOM     21  C   LIG A   1      -6.139  -1.769 123.398  0.00  0.00    +0.016 C 
ATOM     22  C   LIG A   1      -7.129  -0.604 123.202  0.00  0.00    +0.087 C 
ATOM     23  N   LIG A   1      -8.353  -0.686 123.994  0.00  0.00    -0.274 NA
ATOM     24  C   LIG A   1      -9.168   0.543 124.163  0.00  0.00    +0.088 C 
ATOM     25  C   LIG A   1      -9.207   0.878 125.705  0.00  0.00    +0.033 C 
ENDROOT
BRANCH   9  26
ATOM     26  O   LIG A   1      -5.560   3.300 129.045  0.00  0.00    -0.502 OA
ATOM     27  H   LIG A   1      -6.080   4.108 129.251  0.00  0.00    +0.292 HD
ENDBRANCH   9  26
BRANCH  10  28
ATOM     28  O   LIG A   1      -4.383   4.589 127.002  0.00  0.00    -0.488 OA
ATOM     29  C   LIG A   1      -3.002   4.230 127.043  0.00  0.00    +0.277 C 
ENDBRANCH  10  28
BRANCH  11  30
ATOM     30  O   LIG A   1      -5.207   4.013 124.325  0.00  0.00    -0.491 OA
ATOM     31  C   LIG A   1      -5.959   3.905 123.119  0.00  0.00    +0.277 C 
ENDBRANCH  11  30
TORSDOF 3
ENDMDL
MODEL 4
REMARK VINA RESULT:      -7.7      6.253      9.724
REMARK  Name = NuBBE_2366
REMARK  6 active torsions:
REMARK  status: ('A' for Active; 'I' for Inactive)
REMARK    1  A    between atoms: C_2  and  C_3
REMARK    2  A    between atoms: C_10  and  O_11
REMARK    3  A    between atoms: C_12  and  O_13
REMARK    4  A    between atoms: O_13  and  C_14
REMARK    5  A    between atoms: C_15  and  O_16
REMARK    6  A    between atoms: O_16  and  C_17
REMARK                            x       y       z     vdW  Elec       q    Type
REMARK                         _______ _______ _______ _____ _____    ______ ____
ROOT
ATOM      1  O   LIG A   1      -8.088   5.360 135.380  0.00  0.00    -0.276 OA
ATOM      2  C   LIG A   1      -6.913   5.685 135.114  0.00  0.00    +0.217 C 
ATOM      3  C   LIG A   1      -5.993   6.015 136.255  0.00  0.00    +0.110 C 
ATOM      4  N   LIG A   1      -6.434   5.726 133.837  0.00  0.00    -0.264 N 
ATOM      5  C   LIG A   1      -5.105   6.031 133.301  0.00  0.00    +0.096 C 
ATOM      6  C   LIG A   1      -4.872   5.094 132.092  0.00  0.00    +0.061 C 
ATOM      7  C   LIG A   1      -6.315   5.290 131.564  0.00  0.00    -0.007 A 
ATOM      8  C   LIG A   1      -7.202   5.575 132.636  0.00  0.00    +0.086 A 
ATOM      9  C   LIG A   1      -8.569   5.759 132.407  0.00  0.00    +0.184 A 
ATOM     10  C   LIG A   1      -9.077   5.621 131.095  0.00  0.00    +0.205 A 
ATOM     11  C   LIG A   1      -8.221   5.175 130.070  0.00  0.00    +0.166 A 
ATOM     12  C   LIG A   1      -6.860   4.998 130.327  0.00  0.00    +0.056 A 
ATOM     13  C   LIG A   1      -3.413   5.358 131.579  0.00  0.00    +0.140 C 
ATOM     14  O   LIG A   1      -2.474   4.707 132.508  0.00  0.00    -0.357 OA
ATOM     15  C   LIG A   1      -1.164   5.260 132.333  0.00  0.00    +0.163 C 
ATOM     16  C   LIG A   1      -1.337   6.511 131.504  0.00  0.00    +0.039 C 
ATOM     17  C   LIG A   1      -2.849   6.774 131.606  0.00  0.00    +0.017 C 
ATOM     18  C   LIG A   1      -3.105   7.455 133.000  0.00  0.00    +0.013 C 
ATOM     19  C   LIG A   1      -3.895   6.583 134.028  0.00  0.00    +0.025 C 
ATOM     20  C   LIG A   1      -3.380   7.565 130.408  0.00  0.00    +0.012 C 
ATOM     21  C   LIG A   1      -3.173   6.795 129.092  0.00  0.00    +0.016 C 
ATOM     22  C   LIG A   1      -3.667   5.335 129.146  0.00  0.00    +0.087 C 
ATOM     23  N   LIG A   1      -3.299   4.597 130.351  0.00  0.00    -0.274 NA
ATOM     24  C   LIG A   1      -4.033   3.345 130.664  0.00  0.00    +0.088 C 
ATOM     25  C   LIG A   1      -4.763   3.557 132.047  0.00  0.00    +0.033 C 
ENDROOT
BRANCH   9  26
ATOM     26  O   LIG A   1      -9.417   6.172 133.399  0.00  0.00    -0.502 OA
ATOM     27  H   LIG A   1      -9.961   6.903 133.032  0.00  0.00    +0.292 HD
ENDBRANCH   9  26
BRANCH  10  28
ATOM     28  O   LIG A   1     -10.411   5.911 130.915  0.00  0.00    -0.488 OA
ATOM     29  C   LIG A   1     -10.716   7.148 130.271  0.00  0.00    +0.277 C 
ENDBRANCH  10  28
BRANCH  11  30
ATOM     30  O   LIG A   1      -8.758   4.816 128.856  0.00  0.00    -0.491 OA
ATOM     31  C   LIG A   1      -7.887   4.133 127.957  0.00  0.00    +0.277 C 
ENDBRANCH  11  30
TORSDOF 3
ENDMDL
MODEL 5
REMARK VINA RESULT:      -7.6      3.936      7.567
REMARK  Name = NuBBE_2366
REMARK  6 active torsions:
REMARK  status: ('A' for Active; 'I' for Inactive)
REMARK    1  A    between atoms: C_2  and  C_3
REMARK    2  A    between atoms: C_10  and  O_11
REMARK    3  A    between atoms: C_12  and  O_13
REMARK    4  A    between atoms: O_13  and  C_14
REMARK    5  A    between atoms: C_15  and  O_16
REMARK    6  A    between atoms: O_16  and  C_17
REMARK                            x       y       z     vdW  Elec       q    Type
REMARK                         _______ _______ _______ _____ _____    ______ ____
ROOT
ATOM      1  O   LIG A   1      -7.893   1.169 129.463  0.00  0.00    -0.276 OA
ATOM      2  C   LIG A   1      -7.184   1.926 130.157  0.00  0.00    +0.217 C 
ATOM      3  C   LIG A   1      -7.043   1.622 131.621  0.00  0.00    +0.110 C 
ATOM      4  N   LIG A   1      -6.518   2.994 129.630  0.00  0.00    -0.264 N 
ATOM      5  C   LIG A   1      -5.611   3.976 130.232  0.00  0.00    +0.096 C 
ATOM      6  C   LIG A   1      -4.517   4.291 129.185  0.00  0.00    +0.061 C 
ATOM      7  C   LIG A   1      -5.536   4.342 128.021  0.00  0.00    -0.007 A 
ATOM      8  C   LIG A   1      -6.648   3.502 128.295  0.00  0.00    +0.086 A 
ATOM      9  C   LIG A   1      -7.686   3.360 127.370  0.00  0.00    +0.184 A 
ATOM     10  C   LIG A   1      -7.606   4.034 126.130  0.00  0.00    +0.205 A 
ATOM     11  C   LIG A   1      -6.427   4.729 125.800  0.00  0.00    +0.166 A 
ATOM     12  C   LIG A   1      -5.405   4.854 126.742  0.00  0.00    +0.056 A 
ATOM     13  C   LIG A   1      -3.496   5.268 129.867  0.00  0.00    +0.140 C 
ATOM     14  O   LIG A   1      -2.657   4.488 130.792  0.00  0.00    -0.357 OA
ATOM     15  C   LIG A   1      -2.020   5.369 131.724  0.00  0.00    +0.163 C 
ATOM     16  C   LIG A   1      -2.720   6.702 131.596  0.00  0.00    +0.039 C 
ATOM     17  C   LIG A   1      -4.004   6.335 130.831  0.00  0.00    +0.017 C 
ATOM     18  C   LIG A   1      -5.002   5.718 131.878  0.00  0.00    +0.013 C 
ATOM     19  C   LIG A   1      -5.292   4.194 131.697  0.00  0.00    +0.025 C 
ATOM     20  C   LIG A   1      -4.565   7.520 130.043  0.00  0.00    +0.012 C 
ATOM     21  C   LIG A   1      -3.566   8.009 128.980  0.00  0.00    +0.016 C 
ATOM     22  C   LIG A   1      -3.003   6.880 128.094  0.00  0.00    +0.087 C 
ATOM     23  N   LIG A   1      -2.594   5.674 128.808  0.00  0.00    -0.274 NA
ATOM     24  C   LIG A   1      -2.407   4.423 128.031  0.00  0.00    +0.088 C 
ATOM     25  C   LIG A   1      -3.443   3.366 128.577  0.00  0.00    +0.033 C 
ENDROOT
BRANCH   9  26
ATOM     26  O   LIG A   1      -8.830   2.671 127.669  0.00  0.00    -0.502 OA
ATOM     27  H   LIG A   1      -9.256   3.127 128.427  0.00  0.00    +0.292 HD
ENDBRANCH   9  26
BRANCH  10  28
ATOM     28  O   LIG A   1      -8.702   3.937 125.302  0.00  0.00    -0.488 OA
ATOM     29  C   LIG A   1      -8.748   2.808 124.430  0.00  0.00    +0.277 C 
ENDBRANCH  10  28
BRANCH  11  30
ATOM     30  O   LIG A   1      -6.254   5.183 124.513  0.00  0.00    -0.491 OA
ATOM     31  C   LIG A   1      -5.527   4.328 123.633  0.00  0.00    +0.277 C 
ENDBRANCH  11  30
TORSDOF 3
ENDMDL
MODEL 6
REMARK VINA RESULT:      -7.3      3.895      6.493
REMARK  Name = NuBBE_2366
REMARK  6 active torsions:
REMARK  status: ('A' for Active; 'I' for Inactive)
REMARK    1  A    between atoms: C_2  and  C_3
REMARK    2  A    between atoms: C_10  and  O_11
REMARK    3  A    between atoms: C_12  and  O_13
REMARK    4  A    between atoms: O_13  and  C_14
REMARK    5  A    between atoms: C_15  and  O_16
REMARK    6  A    between atoms: O_16  and  C_17
REMARK                            x       y       z     vdW  Elec       q    Type
REMARK                         _______ _______ _______ _____ _____    ______ ____
ROOT
ATOM      1  O   LIG A   1      -7.010  -2.281 127.854  0.00  0.00    -0.276 OA
ATOM      2  C   LIG A   1      -7.415  -1.737 128.902  0.00  0.00    +0.217 C 
ATOM      3  C   LIG A   1      -7.495  -2.569 130.149  0.00  0.00    +0.110 C 
ATOM      4  N   LIG A   1      -7.761  -0.418 128.957  0.00  0.00    -0.264 N 
ATOM      5  C   LIG A   1      -8.213   0.429 130.064  0.00  0.00    +0.096 C 
ATOM      6  C   LIG A   1      -7.586   1.828 129.857  0.00  0.00    +0.061 C 
ATOM      7  C   LIG A   1      -7.864   1.812 128.334  0.00  0.00    -0.007 A 
ATOM      8  C   LIG A   1      -7.873   0.479 127.843  0.00  0.00    +0.086 A 
ATOM      9  C   LIG A   1      -8.073   0.214 126.485  0.00  0.00    +0.184 A 
ATOM     10  C   LIG A   1      -8.229   1.293 125.585  0.00  0.00    +0.205 A 
ATOM     11  C   LIG A   1      -8.053   2.609 126.052  0.00  0.00    +0.166 A 
ATOM     12  C   LIG A   1      -7.853   2.844 127.413  0.00  0.00    +0.056 A 
ATOM     13  C   LIG A   1      -7.996   2.704 131.093  0.00  0.00    +0.140 C 
ATOM     14  O   LIG A   1      -7.170   2.294 132.241  0.00  0.00    -0.357 OA
ATOM     15  C   LIG A   1      -7.779   2.746 133.457  0.00  0.00    +0.163 C 
ATOM     16  C   LIG A   1      -9.184   3.171 133.097  0.00  0.00    +0.039 C 
ATOM     17  C   LIG A   1      -9.380   2.538 131.708  0.00  0.00    +0.017 C 
ATOM     18  C   LIG A   1      -9.715   1.019 131.939  0.00  0.00    +0.013 C 
ATOM     19  C   LIG A   1      -8.611   0.019 131.468  0.00  0.00    +0.025 C 
ATOM     20  C   LIG A   1     -10.413   3.294 130.870  0.00  0.00    +0.012 C 
ATOM     21  C   LIG A   1      -9.973   4.745 130.613  0.00  0.00    +0.016 C 
ATOM     22  C   LIG A   1      -8.529   4.869 130.087  0.00  0.00    +0.087 C 
ATOM     23  N   LIG A   1      -7.541   4.044 130.776  0.00  0.00    -0.274 NA
ATOM     24  C   LIG A   1      -6.234   3.805 130.113  0.00  0.00    +0.088 C 
ATOM     25  C   LIG A   1      -6.103   2.252 129.867  0.00  0.00    +0.033 C 
ENDROOT
BRANCH   9  26
ATOM     26  O   LIG A   1      -8.226  -1.062 126.014  0.00  0.00    -0.502 OA
ATOM     27  H   LIG A   1      -8.701  -1.001 125.157  0.00  0.00    +0.292 HD
ENDBRANCH   9  26
BRANCH  10  28
ATOM     28  O   LIG A   1      -8.522   0.969 124.279  0.00  0.00    -0.488 OA
ATOM     29  C   LIG A   1      -9.862   1.202 123.846  0.00  0.00    +0.277 C 
ENDBRANCH  10  28
BRANCH  11  30
ATOM     30  O   LIG A   1      -7.971   3.638 125.143  0.00  0.00    -0.491 OA
ATOM     31  C   LIG A   1      -6.666   3.958 124.666  0.00  0.00    +0.277 C 
ENDBRANCH  11  30
TORSDOF 3
ENDMDL
MODEL 7
REMARK VINA RESULT:      -7.2      2.873      6.115
REMARK  Name = NuBBE_2366
REMARK  6 active torsions:
REMARK  status: ('A' for Active; 'I' for Inactive)
REMARK    1  A    between atoms: C_2  and  C_3
REMARK    2  A    between atoms: C_10  and  O_11
REMARK    3  A    between atoms: C_12  and  O_13
REMARK    4  A    between atoms: O_13  and  C_14
REMARK    5  A    between atoms: C_15  and  O_16
REMARK    6  A    between atoms: O_16  and  C_17
REMARK                            x       y       z     vdW  Elec       q    Type
REMARK                         _______ _______ _______ _____ _____    ______ ____
ROOT
ATOM      1  O   LIG A   1      -6.424   2.458 130.199  0.00  0.00    -0.276 OA
ATOM      2  C   LIG A   1      -7.086   2.259 129.159  0.00  0.00    +0.217 C 
ATOM      3  C   LIG A   1      -7.893   3.397 128.602  0.00  0.00    +0.110 C 
ATOM      4  N   LIG A   1      -7.080   1.062 128.504  0.00  0.00    -0.264 N 
ATOM      5  C   LIG A   1      -7.731   0.621 127.267  0.00  0.00    +0.096 C 
ATOM      6  C   LIG A   1      -6.747  -0.330 126.545  0.00  0.00    +0.061 C 
ATOM      7  C   LIG A   1      -6.346  -1.040 127.861  0.00  0.00    -0.007 A 
ATOM      8  C   LIG A   1      -6.480  -0.156 128.965  0.00  0.00    +0.086 A 
ATOM      9  C   LIG A   1      -6.143  -0.566 130.259  0.00  0.00    +0.184 A 
ATOM     10  C   LIG A   1      -5.626  -1.866 130.461  0.00  0.00    +0.205 A 
ATOM     11  C   LIG A   1      -5.341  -2.674 129.344  0.00  0.00    +0.166 A 
ATOM     12  C   LIG A   1      -5.687  -2.240 128.063  0.00  0.00    +0.056 A 
ATOM     13  C   LIG A   1      -7.409  -0.725 125.178  0.00  0.00    +0.140 C 
ATOM     14  O   LIG A   1      -7.281   0.417 124.257  0.00  0.00    -0.357 OA
ATOM     15  C   LIG A   1      -8.213   0.272 123.179  0.00  0.00    +0.163 C 
ATOM     16  C   LIG A   1      -9.176  -0.816 123.593  0.00  0.00    +0.039 C 
ATOM     17  C   LIG A   1      -8.916  -0.938 125.105  0.00  0.00    +0.017 C 
ATOM     18  C   LIG A   1      -9.685   0.244 125.800  0.00  0.00    +0.013 C 
ATOM     19  C   LIG A   1      -8.776   1.341 126.439  0.00  0.00    +0.025 C 
ATOM     20  C   LIG A   1      -9.270  -2.326 125.642  0.00  0.00    +0.012 C 
ATOM     21  C   LIG A   1      -8.414  -3.419 124.978  0.00  0.00    +0.016 C 
ATOM     22  C   LIG A   1      -6.903  -3.111 124.987  0.00  0.00    +0.087 C 
ATOM     23  N   LIG A   1      -6.543  -1.744 124.618  0.00  0.00    -0.274 NA
ATOM     24  C   LIG A   1      -5.184  -1.255 124.963  0.00  0.00    +0.088 C 
ATOM     25  C   LIG A   1      -5.355  -0.036 125.950  0.00  0.00    +0.033 C 
ENDROOT
BRANCH   9  26
ATOM     26  O   LIG A   1      -6.395   0.217 131.352  0.00  0.00    -0.502 OA
ATOM     27  H   LIG A   1      -7.088  -0.235 131.881  0.00  0.00    +0.292 HD
ENDBRANCH   9  26
BRANCH  10  28
ATOM     28  O   LIG A   1      -5.408  -2.247 131.766  0.00  0.00    -0.488 OA
ATOM     29  C   LIG A   1      -6.393  -3.091 132.360  0.00  0.00    +0.277 C 
ENDBRANCH  10  28
BRANCH  11  30
ATOM     30  O   LIG A   1      -4.627  -3.836 129.521  0.00  0.00    -0.491 OA
ATOM     31  C   LIG A   1      -3.237  -3.777 129.208  0.00  0.00    +0.277 C 
ENDBRANCH  11  30
TORSDOF 3
ENDMDL
MODEL 8
REMARK VINA RESULT:      -7.2      1.982      6.298
REMARK  Name = NuBBE_2366
REMARK  6 active torsions:
REMARK  status: ('A' for Active; 'I' for Inactive)
REMARK    1  A    between atoms: C_2  and  C_3
REMARK    2  A    between atoms: C_10  and  O_11
REMARK    3  A    between atoms: C_12  and  O_13
REMARK    4  A    between atoms: O_13  and  C_14
REMARK    5  A    between atoms: C_15  and  O_16
REMARK    6  A    between atoms: O_16  and  C_17
REMARK                            x       y       z     vdW  Elec       q    Type
REMARK                         _______ _______ _______ _____ _____    ______ ____
ROOT
ATOM      1  O   LIG A   1      -7.106   2.433 122.490  0.00  0.00    -0.276 OA
ATOM      2  C   LIG A   1      -6.390   2.967 123.362  0.00  0.00    +0.217 C 
ATOM      3  C   LIG A   1      -5.635   4.213 122.996  0.00  0.00    +0.110 C 
ATOM      4  N   LIG A   1      -6.292   2.477 124.632  0.00  0.00    -0.264 N 
ATOM      5  C   LIG A   1      -5.562   2.953 125.811  0.00  0.00    +0.096 C 
ATOM      6  C   LIG A   1      -6.452   2.672 127.045  0.00  0.00    +0.061 C 
ATOM      7  C   LIG A   1      -6.861   1.271 126.528  0.00  0.00    -0.007 A 
ATOM      8  C   LIG A   1      -6.830   1.236 125.108  0.00  0.00    +0.086 A 
ATOM      9  C   LIG A   1      -7.194   0.080 124.410  0.00  0.00    +0.184 A 
ATOM     10  C   LIG A   1      -7.634  -1.054 125.130  0.00  0.00    +0.205 A 
ATOM     11  C   LIG A   1      -7.819  -0.956 126.522  0.00  0.00    +0.166 A 
ATOM     12  C   LIG A   1      -7.449   0.210 127.193  0.00  0.00    +0.056 A 
ATOM     13  C   LIG A   1      -5.710   3.268 128.292  0.00  0.00    +0.140 C 
ATOM     14  O   LIG A   1      -5.872   4.731 128.269  0.00  0.00    -0.357 OA
ATOM     15  C   LIG A   1      -4.888   5.338 129.116  0.00  0.00    +0.163 C 
ATOM     16  C   LIG A   1      -3.875   4.261 129.429  0.00  0.00    +0.039 C 
ATOM     17  C   LIG A   1      -4.189   3.186 128.374  0.00  0.00    +0.017 C 
ATOM     18  C   LIG A   1      -3.528   3.657 127.027  0.00  0.00    +0.013 C 
ATOM     19  C   LIG A   1      -4.532   4.061 125.902  0.00  0.00    +0.025 C 
ATOM     20  C   LIG A   1      -3.770   1.788 128.831  0.00  0.00    +0.012 C 
ATOM     21  C   LIG A   1      -4.526   1.364 130.103  0.00  0.00    +0.016 C 
ATOM     22  C   LIG A   1      -6.052   1.560 130.009  0.00  0.00    +0.087 C 
ATOM     23  N   LIG A   1      -6.483   2.832 129.438  0.00  0.00    -0.274 NA
ATOM     24  C   LIG A   1      -7.884   2.953 128.961  0.00  0.00    +0.088 C 
ATOM     25  C   LIG A   1      -7.834   3.249 127.412  0.00  0.00    +0.033 C 
ENDROOT
BRANCH   9  26
ATOM     26  O   LIG A   1      -7.039  -0.023 123.054  0.00  0.00    -0.502 OA
ATOM     27  H   LIG A   1      -7.123  -0.973 122.822  0.00  0.00    +0.292 HD
ENDBRANCH   9  26
BRANCH  10  28
ATOM     28  O   LIG A   1      -7.882  -2.193 124.396  0.00  0.00    -0.488 OA
ATOM     29  C   LIG A   1      -6.848  -3.177 124.372  0.00  0.00    +0.277 C 
ENDBRANCH  10  28
BRANCH  11  30
ATOM     30  O   LIG A   1      -8.464  -1.973 127.186  0.00  0.00    -0.491 OA
ATOM     31  C   LIG A   1      -7.734  -2.605 128.236  0.00  0.00    +0.277 C 
ENDBRANCH  11  30
TORSDOF 3
ENDMDL
MODEL 9
REMARK VINA RESULT:      -7.1      4.883      7.352
REMARK  Name = NuBBE_2366
REMARK  6 active torsions:
REMARK  status: ('A' for Active; 'I' for Inactive)
REMARK    1  A    between atoms: C_2  and  C_3
REMARK    2  A    between atoms: C_10  and  O_11
REMARK    3  A    between atoms: C_12  and  O_13
REMARK    4  A    between atoms: O_13  and  C_14
REMARK    5  A    between atoms: C_15  and  O_16
REMARK    6  A    between atoms: O_16  and  C_17
REMARK                            x       y       z     vdW  Elec       q    Type
REMARK                         _______ _______ _______ _____ _____    ______ ____
ROOT
ATOM      1  O   LIG A   1     -10.497   6.665 127.160  0.00  0.00    -0.276 OA
ATOM      2  C   LIG A   1     -10.092   6.653 128.340  0.00  0.00    +0.217 C 
ATOM      3  C   LIG A   1     -10.610   7.705 129.278  0.00  0.00    +0.110 C 
ATOM      4  N   LIG A   1      -9.222   5.712 128.808  0.00  0.00    -0.264 N 
ATOM      5  C   LIG A   1      -8.654   5.481 130.139  0.00  0.00    +0.096 C 
ATOM      6  C   LIG A   1      -8.559   3.950 130.338  0.00  0.00    +0.061 C 
ATOM      7  C   LIG A   1      -8.046   3.717 128.896  0.00  0.00    -0.007 A 
ATOM      8  C   LIG A   1      -8.531   4.729 128.025  0.00  0.00    +0.086 A 
ATOM      9  C   LIG A   1      -8.225   4.711 126.661  0.00  0.00    +0.184 A 
ATOM     10  C   LIG A   1      -7.454   3.647 126.138  0.00  0.00    +0.205 A 
ATOM     11  C   LIG A   1      -7.120   2.564 126.974  0.00  0.00    +0.166 A 
ATOM     12  C   LIG A   1      -7.440   2.609 128.332  0.00  0.00    +0.056 A 
ATOM     13  C   LIG A   1      -8.040   3.706 131.799  0.00  0.00    +0.140 C 
ATOM     14  O   LIG A   1      -9.154   3.950 132.730  0.00  0.00    -0.357 OA
ATOM     15  C   LIG A   1      -8.640   4.154 134.051  0.00  0.00    +0.163 C 
ATOM     16  C   LIG A   1      -7.152   4.365 133.901  0.00  0.00    +0.039 C 
ATOM     17  C   LIG A   1      -7.003   4.650 132.396  0.00  0.00    +0.017 C 
ATOM     18  C   LIG A   1      -7.412   6.151 132.170  0.00  0.00    +0.013 C 
ATOM     19  C   LIG A   1      -8.736   6.363 131.369  0.00  0.00    +0.025 C 
ATOM     20  C   LIG A   1      -5.612   4.287 131.874  0.00  0.00    +0.012 C 
ATOM     21  C   LIG A   1      -5.321   2.786 132.050  0.00  0.00    +0.016 C 
ATOM     22  C   LIG A   1      -6.445   1.873 131.522  0.00  0.00    +0.087 C 
ATOM     23  N   LIG A   1      -7.800   2.279 131.883  0.00  0.00    -0.274 NA
ATOM     24  C   LIG A   1      -8.936   1.703 131.121  0.00  0.00    +0.088 C 
ATOM     25  C   LIG A   1      -9.684   2.896 130.409  0.00  0.00    +0.033 C 
ENDROOT
BRANCH   9  26
ATOM     26  O   LIG A   1      -8.561   5.747 125.832  0.00  0.00    -0.502 OA
ATOM     27  H   LIG A   1      -8.043   5.638 125.005  0.00  0.00    +0.292 HD
ENDBRANCH   9  26
BRANCH  10  28
ATOM     28  O   LIG A   1      -7.101   3.735 124.810  0.00  0.00    -0.488 OA
ATOM     29  C   LIG A   1      -5.817   4.289 124.524  0.00  0.00    +0.277 C 
ENDBRANCH  10  28
BRANCH  11  30
ATOM     30  O   LIG A   1      -6.579   1.429 126.417  0.00  0.00    -0.491 OA
ATOM     31  C   LIG A   1      -5.173   1.255 126.577  0.00  0.00    +0.277 C 
ENDBRANCH  11  30
TORSDOF 3
ENDMDL
