MODEL 1
REMARK VINA RESULT:      -7.3      0.000      0.000
REMARK  Name = NuBBE_152
REMARK  9 active torsions:
REMARK  status: ('A' for Active; 'I' for Inactive)
REMARK    1  A    between atoms: C_1  and  C_2
REMARK    2  A    between atoms: C_2  and  C_3
REMARK    3  A    between atoms: C_6  and  C_7
REMARK    4  A    between atoms: C_7  and  C_8
REMARK    5  A    between atoms: C_9  and  C_10
REMARK    6  A    between atoms: C_9  and  C_11
REMARK    7  A    between atoms: C_13  and  C_14
REMARK    8  A    between atoms: C_14  and  O_15
REMARK    9  A    between atoms: O_15  and  C_16
REMARK                            x       y       z     vdW  Elec       q    Type
REMARK                         _______ _______ _______ _____ _____    ______ ____
ROOT
ATOM      1  C   LIG A   1      -5.571  -2.779 128.951  0.00  0.00    +0.060 C 
ATOM      2  C   LIG A   1      -7.032  -2.369 128.736  0.00  0.00    +0.123 C 
ATOM      3  C   LIG A   1      -7.960  -3.306 129.515  0.00  0.00    +0.060 C 
ATOM      4  O   LIG A   1      -7.305  -2.577 127.334  0.00  0.00    -0.481 OA
ATOM      5  C   LIG A   1      -7.976  -1.611 126.636  0.00  0.00    +0.132 A 
ATOM      6  C   LIG A   1      -8.387  -1.925 125.326  0.00  0.00    -0.001 A 
ATOM      7  C   LIG A   1      -9.063  -0.948 124.571  0.00  0.00    +0.022 A 
ATOM      8  C   LIG A   1      -9.292   0.328 125.097  0.00  0.00    +0.060 A 
ATOM      9  C   LIG A   1      -8.875   0.624 126.398  0.00  0.00    +0.026 A 
ATOM     10  C   LIG A   1      -8.219  -0.338 127.167  0.00  0.00    +0.018 A 
ATOM     11  C   LIG A   1      -7.769   0.007 128.504  0.00  0.00    +0.011 C 
ATOM     12  C   LIG A   1      -7.215  -0.957 129.239  0.00  0.00    +0.020 C 
ENDROOT
BRANCH   8  13
ATOM     13  C   LIG A   1      -9.920   1.368 124.230  0.00  0.00    +0.339 C 
ATOM     14  O   LIG A   1     -11.022   1.262 123.731  0.00  0.00    -0.245 OA
BRANCH  13  15
ATOM     15  O   LIG A   1      -9.045   2.391 124.054  0.00  0.00    -0.465 OA
ATOM     16  C   LIG A   1      -8.713   2.717 122.709  0.00  0.00    +0.280 C 
ENDBRANCH  13  15
ENDBRANCH   8  13
BRANCH   6  17
ATOM     17  C   LIG A   1      -8.116  -3.279 124.705  0.00  0.00    +0.066 C 
BRANCH  17  18
ATOM     18  C   LIG A   1      -6.655  -3.518 124.430  0.00  0.00    -0.023 C 
ATOM     19  C   LIG A   1      -5.874  -2.909 123.514  0.00  0.00    -0.079 C 
ATOM     20  C   LIG A   1      -6.342  -1.873 122.531  0.00  0.00    +0.038 C 
ATOM     21  C   LIG A   1      -4.405  -3.233 123.416  0.00  0.00    +0.038 C 
ENDBRANCH  17  18
ENDBRANCH   6  17
TORSDOF 4
ENDMDL
MODEL 2
REMARK VINA RESULT:      -7.2      1.564      5.088
REMARK  Name = NuBBE_152
REMARK  9 active torsions:
REMARK  status: ('A' for Active; 'I' for Inactive)
REMARK    1  A    between atoms: C_1  and  C_2
REMARK    2  A    between atoms: C_2  and  C_3
REMARK    3  A    between atoms: C_6  and  C_7
REMARK    4  A    between atoms: C_7  and  C_8
REMARK    5  A    between atoms: C_9  and  C_10
REMARK    6  A    between atoms: C_9  and  C_11
REMARK    7  A    between atoms: C_13  and  C_14
REMARK    8  A    between atoms: C_14  and  O_15
REMARK    9  A    between atoms: O_15  and  C_16
REMARK                            x       y       z     vdW  Elec       q    Type
REMARK                         _______ _______ _______ _____ _____    ______ ____
ROOT
ATOM      1  C   LIG A   1      -9.809   1.117 123.198  0.00  0.00    +0.060 C 
ATOM      2  C   LIG A   1      -8.570   0.863 124.064  0.00  0.00    +0.123 C 
ATOM      3  C   LIG A   1      -7.299   1.154 123.259  0.00  0.00    +0.060 C 
ATOM      4  O   LIG A   1      -8.567  -0.551 124.354  0.00  0.00    -0.481 OA
ATOM      5  C   LIG A   1      -8.313  -0.968 125.633  0.00  0.00    +0.132 A 
ATOM      6  C   LIG A   1      -8.135  -2.349 125.841  0.00  0.00    -0.001 A 
ATOM      7  C   LIG A   1      -7.891  -2.816 127.147  0.00  0.00    +0.022 A 
ATOM      8  C   LIG A   1      -7.863  -1.928 128.228  0.00  0.00    +0.060 A 
ATOM      9  C   LIG A   1      -8.044  -0.560 128.003  0.00  0.00    +0.026 A 
ATOM     10  C   LIG A   1      -8.269  -0.079 126.713  0.00  0.00    +0.018 A 
ATOM     11  C   LIG A   1      -8.486   1.343 126.514  0.00  0.00    +0.011 C 
ATOM     12  C   LIG A   1      -8.621   1.780 125.262  0.00  0.00    +0.020 C 
ENDROOT
BRANCH   8  13
ATOM     13  C   LIG A   1      -7.703  -2.473 129.608  0.00  0.00    +0.339 C 
ATOM     14  O   LIG A   1      -7.935  -1.842 130.619  0.00  0.00    -0.245 OA
BRANCH  13  15
ATOM     15  O   LIG A   1      -7.211  -3.736 129.535  0.00  0.00    -0.465 OA
ATOM     16  C   LIG A   1      -6.130  -4.045 130.409  0.00  0.00    +0.280 C 
ENDBRANCH  13  15
ENDBRANCH   8  13
BRANCH   6  17
ATOM     17  C   LIG A   1      -8.206  -3.346 124.704  0.00  0.00    +0.066 C 
BRANCH  17  18
ATOM     18  C   LIG A   1      -6.912  -4.083 124.486  0.00  0.00    -0.023 C 
ATOM     19  C   LIG A   1      -5.802  -3.642 123.859  0.00  0.00    -0.079 C 
ATOM     20  C   LIG A   1      -5.660  -2.299 123.197  0.00  0.00    +0.038 C 
ATOM     21  C   LIG A   1      -4.564  -4.499 123.785  0.00  0.00    +0.038 C 
ENDBRANCH  17  18
ENDBRANCH   6  17
TORSDOF 4
ENDMDL
MODEL 3
REMARK VINA RESULT:      -7.1      3.784      6.104
REMARK  Name = NuBBE_152
REMARK  9 active torsions:
REMARK  status: ('A' for Active; 'I' for Inactive)
REMARK    1  A    between atoms: C_1  and  C_2
REMARK    2  A    between atoms: C_2  and  C_3
REMARK    3  A    between atoms: C_6  and  C_7
REMARK    4  A    between atoms: C_7  and  C_8
REMARK    5  A    between atoms: C_9  and  C_10
REMARK    6  A    between atoms: C_9  and  C_11
REMARK    7  A    between atoms: C_13  and  C_14
REMARK    8  A    between atoms: C_14  and  O_15
REMARK    9  A    between atoms: O_15  and  C_16
REMARK                            x       y       z     vdW  Elec       q    Type
REMARK                         _______ _______ _______ _____ _____    ______ ____
ROOT
ATOM      1  C   LIG A   1      -6.484  -1.939 122.660  0.00  0.00    +0.060 C 
ATOM      2  C   LIG A   1      -7.116  -1.033 123.724  0.00  0.00    +0.123 C 
ATOM      3  C   LIG A   1      -8.620  -1.306 123.820  0.00  0.00    +0.060 C 
ATOM      4  O   LIG A   1      -6.964   0.318 123.240  0.00  0.00    -0.481 OA
ATOM      5  C   LIG A   1      -6.536   1.290 124.103  0.00  0.00    +0.132 A 
ATOM      6  C   LIG A   1      -6.579   2.623 123.650  0.00  0.00    -0.001 A 
ATOM      7  C   LIG A   1      -6.127   3.647 124.504  0.00  0.00    +0.022 A 
ATOM      8  C   LIG A   1      -5.610   3.346 125.769  0.00  0.00    +0.060 A 
ATOM      9  C   LIG A   1      -5.573   2.017 126.201  0.00  0.00    +0.026 A 
ATOM     10  C   LIG A   1      -6.033   0.991 125.374  0.00  0.00    +0.018 A 
ATOM     11  C   LIG A   1      -5.953  -0.383 125.838  0.00  0.00    +0.011 C 
ATOM     12  C   LIG A   1      -6.470  -1.331 125.056  0.00  0.00    +0.020 C 
ENDROOT
BRANCH   8  13
ATOM     13  C   LIG A   1      -5.048   4.448 126.603  0.00  0.00    +0.339 C 
ATOM     14  O   LIG A   1      -5.345   5.618 126.474  0.00  0.00    -0.245 OA
BRANCH  13  15
ATOM     15  O   LIG A   1      -4.130   3.934 127.462  0.00  0.00    -0.465 OA
ATOM     16  C   LIG A   1      -2.785   4.365 127.283  0.00  0.00    +0.280 C 
ENDBRANCH  13  15
ENDBRANCH   8  13
BRANCH   6  17
ATOM     17  C   LIG A   1      -7.087   2.985 122.271  0.00  0.00    +0.066 C 
BRANCH  17  18
ATOM     18  C   LIG A   1      -6.134   3.863 121.505  0.00  0.00    -0.023 C 
ATOM     19  C   LIG A   1      -6.314   4.417 120.288  0.00  0.00    -0.079 C 
ATOM     20  C   LIG A   1      -7.523   4.217 119.417  0.00  0.00    +0.038 C 
ATOM     21  C   LIG A   1      -5.270   5.326 119.691  0.00  0.00    +0.038 C 
ENDBRANCH  17  18
ENDBRANCH   6  17
TORSDOF 4
ENDMDL
MODEL 4
REMARK VINA RESULT:      -7.0      9.809     11.290
REMARK  Name = NuBBE_152
REMARK  9 active torsions:
REMARK  status: ('A' for Active; 'I' for Inactive)
REMARK    1  A    between atoms: C_1  and  C_2
REMARK    2  A    between atoms: C_2  and  C_3
REMARK    3  A    between atoms: C_6  and  C_7
REMARK    4  A    between atoms: C_7  and  C_8
REMARK    5  A    between atoms: C_9  and  C_10
REMARK    6  A    between atoms: C_9  and  C_11
REMARK    7  A    between atoms: C_13  and  C_14
REMARK    8  A    between atoms: C_14  and  O_15
REMARK    9  A    between atoms: O_15  and  C_16
REMARK                            x       y       z     vdW  Elec       q    Type
REMARK                         _______ _______ _______ _____ _____    ______ ____
ROOT
ATOM      1  C   LIG A   1      -2.055   5.254 132.316  0.00  0.00    +0.060 C 
ATOM      2  C   LIG A   1      -3.085   6.371 132.518  0.00  0.00    +0.123 C 
ATOM      3  C   LIG A   1      -2.614   7.326 133.619  0.00  0.00    +0.060 C 
ATOM      4  O   LIG A   1      -4.283   5.728 133.005  0.00  0.00    -0.481 OA
ATOM      5  C   LIG A   1      -5.491   6.078 132.467  0.00  0.00    +0.132 A 
ATOM      6  C   LIG A   1      -6.649   5.572 133.090  0.00  0.00    -0.001 A 
ATOM      7  C   LIG A   1      -7.909   5.896 132.552  0.00  0.00    +0.022 A 
ATOM      8  C   LIG A   1      -8.012   6.677 131.395  0.00  0.00    +0.060 A 
ATOM      9  C   LIG A   1      -6.853   7.170 130.789  0.00  0.00    +0.026 A 
ATOM     10  C   LIG A   1      -5.596   6.873 131.319  0.00  0.00    +0.018 A 
ATOM     11  C   LIG A   1      -4.408   7.372 130.650  0.00  0.00    +0.011 C 
ATOM     12  C   LIG A   1      -3.229   7.135 131.224  0.00  0.00    +0.020 C 
ENDROOT
BRANCH   8  13
ATOM     13  C   LIG A   1      -9.359   6.914 130.798  0.00  0.00    +0.339 C 
ATOM     14  O   LIG A   1      -9.542   7.277 129.655  0.00  0.00    -0.245 OA
BRANCH  13  15
ATOM     15  O   LIG A   1     -10.309   6.715 131.748  0.00  0.00    -0.465 OA
ATOM     16  C   LIG A   1     -11.623   6.430 131.280  0.00  0.00    +0.280 C 
ENDBRANCH  13  15
ENDBRANCH   8  13
BRANCH   6  17
ATOM     17  C   LIG A   1      -6.577   4.684 134.314  0.00  0.00    +0.066 C 
BRANCH  17  18
ATOM     18  C   LIG A   1      -7.402   5.199 135.463  0.00  0.00    -0.023 C 
ATOM     19  C   LIG A   1      -7.055   6.120 136.385  0.00  0.00    -0.079 C 
ATOM     20  C   LIG A   1      -5.715   6.797 136.469  0.00  0.00    +0.038 C 
ATOM     21  C   LIG A   1      -8.036   6.564 137.440  0.00  0.00    +0.038 C 
ENDBRANCH  17  18
ENDBRANCH   6  17
TORSDOF 4
ENDMDL
MODEL 5
REMARK VINA RESULT:      -6.9      7.650     10.177
REMARK  Name = NuBBE_152
REMARK  9 active torsions:
REMARK  status: ('A' for Active; 'I' for Inactive)
REMARK    1  A    between atoms: C_1  and  C_2
REMARK    2  A    between atoms: C_2  and  C_3
REMARK    3  A    between atoms: C_6  and  C_7
REMARK    4  A    between atoms: C_7  and  C_8
REMARK    5  A    between atoms: C_9  and  C_10
REMARK    6  A    between atoms: C_9  and  C_11
REMARK    7  A    between atoms: C_13  and  C_14
REMARK    8  A    between atoms: C_14  and  O_15
REMARK    9  A    between atoms: O_15  and  C_16
REMARK                            x       y       z     vdW  Elec       q    Type
REMARK                         _______ _______ _______ _____ _____    ______ ____
ROOT
ATOM      1  C   LIG A   1     -12.646   7.185 131.391  0.00  0.00    +0.060 C 
ATOM      2  C   LIG A   1     -11.463   6.506 130.691  0.00  0.00    +0.123 C 
ATOM      3  C   LIG A   1     -11.964   5.350 129.818  0.00  0.00    +0.060 C 
ATOM      4  O   LIG A   1     -10.659   5.922 131.737  0.00  0.00    -0.481 OA
ATOM      5  C   LIG A   1      -9.300   6.079 131.698  0.00  0.00    +0.132 A 
ATOM      6  C   LIG A   1      -8.536   5.345 132.625  0.00  0.00    -0.001 A 
ATOM      7  C   LIG A   1      -7.136   5.496 132.627  0.00  0.00    +0.022 A 
ATOM      8  C   LIG A   1      -6.514   6.389 131.747  0.00  0.00    +0.060 A 
ATOM      9  C   LIG A   1      -7.288   7.111 130.834  0.00  0.00    +0.026 A 
ATOM     10  C   LIG A   1      -8.675   6.960 130.808  0.00  0.00    +0.018 A 
ATOM     11  C   LIG A   1      -9.457   7.748 129.871  0.00  0.00    +0.011 C 
ATOM     12  C   LIG A   1     -10.769   7.524 129.818  0.00  0.00    +0.020 C 
ENDROOT
BRANCH   8  13
ATOM     13  C   LIG A   1      -5.039   6.596 131.848  0.00  0.00    +0.339 C 
ATOM     14  O   LIG A   1      -4.368   6.251 132.798  0.00  0.00    -0.245 OA
BRANCH  13  15
ATOM     15  O   LIG A   1      -4.608   7.271 130.752  0.00  0.00    -0.465 OA
ATOM     16  C   LIG A   1      -3.531   6.684 130.030  0.00  0.00    +0.280 C 
ENDBRANCH  13  15
ENDBRANCH   8  13
BRANCH   6  17
ATOM     17  C   LIG A   1      -9.176   4.405 133.625  0.00  0.00    +0.066 C 
BRANCH  17  18
ATOM     18  C   LIG A   1      -8.778   2.968 133.419  0.00  0.00    -0.023 C 
ATOM     19  C   LIG A   1      -9.153   2.138 132.424  0.00  0.00    -0.079 C 
ATOM     20  C   LIG A   1     -10.110   2.492 131.319  0.00  0.00    +0.038 C 
ATOM     21  C   LIG A   1      -8.607   0.736 132.339  0.00  0.00    +0.038 C 
ENDBRANCH  17  18
ENDBRANCH   6  17
TORSDOF 4
ENDMDL
MODEL 6
REMARK VINA RESULT:      -6.9      3.570      4.277
REMARK  Name = NuBBE_152
REMARK  9 active torsions:
REMARK  status: ('A' for Active; 'I' for Inactive)
REMARK    1  A    between atoms: C_1  and  C_2
REMARK    2  A    between atoms: C_2  and  C_3
REMARK    3  A    between atoms: C_6  and  C_7
REMARK    4  A    between atoms: C_7  and  C_8
REMARK    5  A    between atoms: C_9  and  C_10
REMARK    6  A    between atoms: C_9  and  C_11
REMARK    7  A    between atoms: C_13  and  C_14
REMARK    8  A    between atoms: C_14  and  O_15
REMARK    9  A    between atoms: O_15  and  C_16
REMARK                            x       y       z     vdW  Elec       q    Type
REMARK                         _______ _______ _______ _____ _____    ______ ____
ROOT
ATOM      1  C   LIG A   1      -2.071   2.975 126.773  0.00  0.00    +0.060 C 
ATOM      2  C   LIG A   1      -3.558   3.042 127.141  0.00  0.00    +0.123 C 
ATOM      3  C   LIG A   1      -3.731   2.903 128.656  0.00  0.00    +0.060 C 
ATOM      4  O   LIG A   1      -4.171   1.881 126.541  0.00  0.00    -0.481 OA
ATOM      5  C   LIG A   1      -5.357   2.026 125.873  0.00  0.00    +0.132 A 
ATOM      6  C   LIG A   1      -6.017   0.851 125.464  0.00  0.00    -0.001 A 
ATOM      7  C   LIG A   1      -7.230   0.962 124.757  0.00  0.00    +0.022 A 
ATOM      8  C   LIG A   1      -7.755   2.218 124.433  0.00  0.00    +0.060 A 
ATOM      9  C   LIG A   1      -7.085   3.373 124.845  0.00  0.00    +0.026 A 
ATOM     10  C   LIG A   1      -5.891   3.282 125.562  0.00  0.00    +0.018 A 
ATOM     11  C   LIG A   1      -5.201   4.499 125.949  0.00  0.00    +0.011 C 
ATOM     12  C   LIG A   1      -4.104   4.378 126.697  0.00  0.00    +0.020 C 
ENDROOT
BRANCH   8  13
ATOM     13  C   LIG A   1      -8.988   2.294 123.596  0.00  0.00    +0.339 C 
ATOM     14  O   LIG A   1      -9.864   1.453 123.597  0.00  0.00    -0.245 OA
BRANCH  13  15
ATOM     15  O   LIG A   1      -8.929   3.402 122.814  0.00  0.00    -0.465 OA
ATOM     16  C   LIG A   1      -8.685   3.187 121.428  0.00  0.00    +0.280 C 
ENDBRANCH  13  15
ENDBRANCH   8  13
BRANCH   6  17
ATOM     17  C   LIG A   1      -5.457  -0.525 125.754  0.00  0.00    +0.066 C 
BRANCH  17  18
ATOM     18  C   LIG A   1      -6.424  -1.633 125.431  0.00  0.00    -0.023 C 
ATOM     19  C   LIG A   1      -6.265  -2.640 124.547  0.00  0.00    -0.079 C 
ATOM     20  C   LIG A   1      -5.070  -2.824 123.653  0.00  0.00    +0.038 C 
ATOM     21  C   LIG A   1      -7.320  -3.705 124.392  0.00  0.00    +0.038 C 
ENDBRANCH  17  18
ENDBRANCH   6  17
TORSDOF 4
ENDMDL
MODEL 7
REMARK VINA RESULT:      -6.8      2.501      3.797
REMARK  Name = NuBBE_152
REMARK  9 active torsions:
REMARK  status: ('A' for Active; 'I' for Inactive)
REMARK    1  A    between atoms: C_1  and  C_2
REMARK    2  A    between atoms: C_2  and  C_3
REMARK    3  A    between atoms: C_6  and  C_7
REMARK    4  A    between atoms: C_7  and  C_8
REMARK    5  A    between atoms: C_9  and  C_10
REMARK    6  A    between atoms: C_9  and  C_11
REMARK    7  A    between atoms: C_13  and  C_14
REMARK    8  A    between atoms: C_14  and  O_15
REMARK    9  A    between atoms: O_15  and  C_16
REMARK                            x       y       z     vdW  Elec       q    Type
REMARK                         _______ _______ _______ _____ _____    ______ ____
ROOT
ATOM      1  C   LIG A   1      -6.857  -1.774 130.835  0.00  0.00    +0.060 C 
ATOM      2  C   LIG A   1      -6.762  -2.749 129.656  0.00  0.00    +0.123 C 
ATOM      3  C   LIG A   1      -5.605  -3.729 129.877  0.00  0.00    +0.060 C 
ATOM      4  O   LIG A   1      -6.422  -1.951 128.503  0.00  0.00    -0.481 OA
ATOM      5  C   LIG A   1      -7.090  -2.161 127.327  0.00  0.00    +0.132 A 
ATOM      6  C   LIG A   1      -6.608  -1.500 126.181  0.00  0.00    -0.001 A 
ATOM      7  C   LIG A   1      -7.283  -1.677 124.958  0.00  0.00    +0.022 A 
ATOM      8  C   LIG A   1      -8.435  -2.468 124.887  0.00  0.00    +0.060 A 
ATOM      9  C   LIG A   1      -8.901  -3.115 126.035  0.00  0.00    +0.026 A 
ATOM     10  C   LIG A   1      -8.234  -2.964 127.252  0.00  0.00    +0.018 A 
ATOM     11  C   LIG A   1      -8.759  -3.623 128.435  0.00  0.00    +0.011 C 
ATOM     12  C   LIG A   1      -8.056  -3.521 129.563  0.00  0.00    +0.020 C 
ENDROOT
BRANCH   8  13
ATOM     13  C   LIG A   1      -9.180  -2.549 123.596  0.00  0.00    +0.339 C 
ATOM     14  O   LIG A   1      -9.964  -3.433 123.317  0.00  0.00    -0.245 OA
BRANCH  13  15
ATOM     15  O   LIG A   1      -8.791  -1.527 122.792  0.00  0.00    -0.465 OA
ATOM     16  C   LIG A   1      -9.760  -0.515 122.540  0.00  0.00    +0.280 C 
ENDBRANCH  13  15
ENDBRANCH   8  13
BRANCH   6  17
ATOM     17  C   LIG A   1      -5.393  -0.598 126.228  0.00  0.00    +0.066 C 
BRANCH  17  18
ATOM     18  C   LIG A   1      -5.639   0.753 125.611  0.00  0.00    -0.023 C 
ATOM     19  C   LIG A   1      -5.281   1.961 126.092  0.00  0.00    -0.079 C 
ATOM     20  C   LIG A   1      -4.584   2.197 127.404  0.00  0.00    +0.038 C 
ATOM     21  C   LIG A   1      -5.558   3.218 125.308  0.00  0.00    +0.038 C 
ENDBRANCH  17  18
ENDBRANCH   6  17
TORSDOF 4
ENDMDL
MODEL 8
REMARK VINA RESULT:      -6.7      2.148      2.944
REMARK  Name = NuBBE_152
REMARK  9 active torsions:
REMARK  status: ('A' for Active; 'I' for Inactive)
REMARK    1  A    between atoms: C_1  and  C_2
REMARK    2  A    between atoms: C_2  and  C_3
REMARK    3  A    between atoms: C_6  and  C_7
REMARK    4  A    between atoms: C_7  and  C_8
REMARK    5  A    between atoms: C_9  and  C_10
REMARK    6  A    between atoms: C_9  and  C_11
REMARK    7  A    between atoms: C_13  and  C_14
REMARK    8  A    between atoms: C_14  and  O_15
REMARK    9  A    between atoms: O_15  and  C_16
REMARK                            x       y       z     vdW  Elec       q    Type
REMARK                         _______ _______ _______ _____ _____    ______ ____
ROOT
ATOM      1  C   LIG A   1      -3.751  -3.290 129.189  0.00  0.00    +0.060 C 
ATOM      2  C   LIG A   1      -5.041  -2.508 128.914  0.00  0.00    +0.123 C 
ATOM      3  C   LIG A   1      -6.242  -3.254 129.503  0.00  0.00    +0.060 C 
ATOM      4  O   LIG A   1      -5.211  -2.505 127.481  0.00  0.00    -0.481 OA
ATOM      5  C   LIG A   1      -5.554  -1.339 126.853  0.00  0.00    +0.132 A 
ATOM      6  C   LIG A   1      -5.892  -1.414 125.488  0.00  0.00    -0.001 A 
ATOM      7  C   LIG A   1      -6.232  -0.230 124.804  0.00  0.00    +0.022 A 
ATOM      8  C   LIG A   1      -6.200   1.006 125.459  0.00  0.00    +0.060 A 
ATOM      9  C   LIG A   1      -5.860   1.061 126.814  0.00  0.00    +0.026 A 
ATOM     10  C   LIG A   1      -5.538  -0.104 127.510  0.00  0.00    +0.018 A 
ATOM     11  C   LIG A   1      -5.158  -0.012 128.909  0.00  0.00    +0.011 C 
ATOM     12  C   LIG A   1      -4.930  -1.150 129.565  0.00  0.00    +0.020 C 
ENDROOT
BRANCH   8  13
ATOM     13  C   LIG A   1      -6.468   2.248 124.675  0.00  0.00    +0.339 C 
ATOM     14  O   LIG A   1      -6.273   3.371 125.093  0.00  0.00    -0.245 OA
BRANCH  13  15
ATOM     15  O   LIG A   1      -7.006   1.910 123.476  0.00  0.00    -0.465 OA
ATOM     16  C   LIG A   1      -8.194   2.600 123.099  0.00  0.00    +0.280 C 
ENDBRANCH  13  15
ENDBRANCH   8  13
BRANCH   6  17
ATOM     17  C   LIG A   1      -5.892  -2.726 124.733  0.00  0.00    +0.066 C 
BRANCH  17  18
ATOM     18  C   LIG A   1      -7.167  -2.965 123.968  0.00  0.00    -0.023 C 
ATOM     19  C   LIG A   1      -8.390  -3.245 124.464  0.00  0.00    -0.079 C 
ATOM     20  C   LIG A   1      -8.712  -3.423 125.922  0.00  0.00    +0.038 C 
ATOM     21  C   LIG A   1      -9.578  -3.396 123.549  0.00  0.00    +0.038 C 
ENDBRANCH  17  18
ENDBRANCH   6  17
TORSDOF 4
ENDMDL
MODEL 9
REMARK VINA RESULT:      -6.6      3.381      6.878
REMARK  Name = NuBBE_152
REMARK  9 active torsions:
REMARK  status: ('A' for Active; 'I' for Inactive)
REMARK    1  A    between atoms: C_1  and  C_2
REMARK    2  A    between atoms: C_2  and  C_3
REMARK    3  A    between atoms: C_6  and  C_7
REMARK    4  A    between atoms: C_7  and  C_8
REMARK    5  A    between atoms: C_9  and  C_10
REMARK    6  A    between atoms: C_9  and  C_11
REMARK    7  A    between atoms: C_13  and  C_14
REMARK    8  A    between atoms: C_14  and  O_15
REMARK    9  A    between atoms: O_15  and  C_16
REMARK                            x       y       z     vdW  Elec       q    Type
REMARK                         _______ _______ _______ _____ _____    ______ ____
ROOT
ATOM      1  C   LIG A   1      -6.221  -5.042 134.301  0.00  0.00    +0.060 C 
ATOM      2  C   LIG A   1      -5.594  -4.256 133.144  0.00  0.00    +0.123 C 
ATOM      3  C   LIG A   1      -4.299  -3.583 133.607  0.00  0.00    +0.060 C 
ATOM      4  O   LIG A   1      -6.525  -3.199 132.826  0.00  0.00    -0.481 OA
ATOM      5  C   LIG A   1      -6.825  -2.948 131.515  0.00  0.00    +0.132 A 
ATOM      6  C   LIG A   1      -7.586  -1.797 131.234  0.00  0.00    -0.001 A 
ATOM      7  C   LIG A   1      -7.930  -1.517 129.898  0.00  0.00    +0.022 A 
ATOM      8  C   LIG A   1      -7.554  -2.386 128.867  0.00  0.00    +0.060 A 
ATOM      9  C   LIG A   1      -6.800  -3.525 129.165  0.00  0.00    +0.026 A 
ATOM     10  C   LIG A   1      -6.436  -3.808 130.482  0.00  0.00    +0.018 A 
ATOM     11  C   LIG A   1      -5.680  -5.015 130.765  0.00  0.00    +0.011 C 
ATOM     12  C   LIG A   1      -5.283  -5.216 132.021  0.00  0.00    +0.020 C 
ENDROOT
BRANCH   8  13
ATOM     13  C   LIG A   1      -8.024  -2.109 127.478  0.00  0.00    +0.339 C 
ATOM     14  O   LIG A   1      -7.748  -1.104 126.855  0.00  0.00    -0.245 OA
BRANCH  13  15
ATOM     15  O   LIG A   1      -8.837  -3.117 127.073  0.00  0.00    -0.465 OA
ATOM     16  C   LIG A   1      -9.448  -2.964 125.795  0.00  0.00    +0.280 C 
ENDBRANCH  13  15
ENDBRANCH   8  13
BRANCH   6  17
ATOM     17  C   LIG A   1      -8.053  -0.858 132.326  0.00  0.00    +0.066 C 
BRANCH  17  18
ATOM     18  C   LIG A   1      -9.026   0.179 131.834  0.00  0.00    -0.023 C 
ATOM     19  C   LIG A   1      -9.054   1.496 132.129  0.00  0.00    -0.079 C 
ATOM     20  C   LIG A   1      -8.113   2.189 133.074  0.00  0.00    +0.038 C 
ATOM     21  C   LIG A   1     -10.073   2.407 131.494  0.00  0.00    +0.038 C 
ENDBRANCH  17  18
ENDBRANCH   6  17
TORSDOF 4
ENDMDL
