MODEL 1
REMARK VINA RESULT:      -8.1      0.000      0.000
REMARK  Name = NuBBE_239
REMARK  20 active torsions:
REMARK  status: ('A' for Active; 'I' for Inactive)
REMARK    1  A    between atoms: C_1  and  C_2
REMARK    2  A    between atoms: C_7  and  O_9
REMARK    3  A    between atoms: C_12  and  O_14
REMARK    4  A    between atoms: O_14  and  C_15
REMARK    5  A    between atoms: C_15  and  C_16
REMARK    6  A    between atoms: C_19  and  O_21
REMARK    7  A    between atoms: O_21  and  C_22
REMARK    8  A    between atoms: C_22  and  C_23
REMARK    9  A    between atoms: C_26  and  O_28
REMARK   10  A    between atoms: O_28  and  C_29
REMARK   11  A    between atoms: C_29  and  C_30
REMARK   12  A    between atoms: C_30  and  C_31
REMARK   13  A    between atoms: C_31  and  C_32
REMARK   14  A    between atoms: C_32  and  C_33
REMARK   15  A    between atoms: C_33  and  C_34
REMARK   16  A    between atoms: C_39  and  C_40
REMARK   17  A    between atoms: C_39  and  C_41
REMARK   18  A    between atoms: C_41  and  C_42
REMARK   19  A    between atoms: C_43  and  C_44
REMARK   20  A    between atoms: C_43  and  C_46
REMARK                            x       y       z     vdW  Elec       q    Type
REMARK                         _______ _______ _______ _____ _____    ______ ____
ROOT
ATOM      1  C   LIG A   1      -2.035   3.252 126.949  0.00  0.00    +0.008 C 
ATOM      2  C   LIG A   1      -3.523   2.968 126.718  0.00  0.00    -0.005 C 
ATOM      3  C   LIG A   1      -4.034   3.681 125.456  0.00  0.00    +0.036 C 
ATOM      4  C   LIG A   1      -5.527   3.485 125.112  0.00  0.00    +0.131 C 
ATOM      5  C   LIG A   1      -6.539   3.071 126.249  0.00  0.00    +0.089 C 
ATOM      6  C   LIG A   1      -7.480   2.077 125.594  0.00  0.00    +0.012 C 
ATOM      7  C   LIG A   1      -8.497   2.856 124.810  0.00  0.00    +0.343 C 
ATOM      8  O   LIG A   1      -8.586   4.131 125.475  0.00  0.00    -0.297 OA
ATOM      9  C   LIG A   1      -7.660   4.122 126.580  0.00  0.00    +0.327 C 
ATOM     10  C   LIG A   1      -7.403   0.749 125.719  0.00  0.00    +0.023 C 
ATOM     11  C   LIG A   1      -6.382   0.019 126.496  0.00  0.00    +0.200 C 
ATOM     12  C   LIG A   1      -5.658   0.908 127.521  0.00  0.00    +0.054 C 
ATOM     13  C   LIG A   1      -5.837   2.489 127.520  0.00  0.00    +0.018 C 
ATOM     14  C   LIG A   1      -4.482   3.250 127.912  0.00  0.00    -0.022 C 
ATOM     15  C   LIG A   1      -3.989   2.646 129.262  0.00  0.00    +0.012 C 
ENDROOT
BRANCH   4  16
ATOM     16  O   LIG A   1      -5.989   4.596 124.328  0.00  0.00    -0.391 OA
ATOM     17  H   LIG A   1      -5.238   5.079 123.941  0.00  0.00    +0.210 HD
ENDBRANCH   4  16
BRANCH   7  18
ATOM     18  O   LIG A   1      -9.781   2.232 124.743  0.00  0.00    -0.431 OA
BRANCH  18  19
ATOM     19  C   LIG A   1     -10.059   1.649 123.541  0.00  0.00    +0.306 C 
ATOM     20  C   LIG A   1      -9.181   2.224 122.476  0.00  0.00    +0.136 C 
ATOM     21  O   LIG A   1     -10.831   0.730 123.336  0.00  0.00    -0.251 OA
ENDBRANCH  18  19
ENDBRANCH   7  18
BRANCH   9  22
ATOM     22  O   LIG A   1      -8.418   3.714 127.744  0.00  0.00    -0.434 OA
BRANCH  22  23
ATOM     23  C   LIG A   1      -8.630   4.632 128.722  0.00  0.00    +0.306 C 
ATOM     24  C   LIG A   1      -7.972   4.177 129.999  0.00  0.00    +0.136 C 
ATOM     25  O   LIG A   1      -9.254   5.673 128.605  0.00  0.00    -0.251 OA
ENDBRANCH  22  23
ENDBRANCH   9  22
BRANCH  11  26
ATOM     26  O   LIG A   1      -5.471  -0.659 125.583  0.00  0.00    -0.457 OA
BRANCH  26  27
ATOM     27  C   LIG A   1      -5.613  -2.021 125.528  0.00  0.00    +0.308 C 
ATOM     28  O   LIG A   1      -5.274  -2.763 126.460  0.00  0.00    -0.251 OA
BRANCH  27  29
ATOM     29  C   LIG A   1      -6.136  -2.549 124.220  0.00  0.00    +0.120 C 
BRANCH  29  30
ATOM     30  C   LIG A   1      -7.223  -3.649 124.356  0.00  0.00    +0.011 C 
BRANCH  30  31
ATOM     31  C   LIG A   1      -8.697  -3.222 124.175  0.00  0.00    +0.000 C 
BRANCH  31  32
ATOM     32  C   LIG A   1      -9.350  -2.830 125.500  0.00  0.00    -0.003 C 
ATOM     33  C   LIG A   1      -8.799  -3.566 126.712  0.00  0.00    +0.004 C 
ENDBRANCH  31  32
ENDBRANCH  30  31
ENDBRANCH  29  30
ENDBRANCH  27  29
ENDBRANCH  26  27
ENDBRANCH  11  26
BRANCH  14  34
ATOM     34  C   LIG A   1      -4.715   4.809 128.151  0.00  0.00    +0.034 C 
BRANCH  34  35
ATOM     35  C   LIG A   1      -4.390   5.365 129.527  0.00  0.00    -0.023 C 
ATOM     36  C   LIG A   1      -3.286   6.009 129.964  0.00  0.00    -0.055 C 
ATOM     37  C   LIG A   1      -3.234   6.530 131.385  0.00  0.00    +0.043 C 
BRANCH  36  38
ATOM     38  C   LIG A   1      -2.144   6.334 129.129  0.00  0.00    -0.005 C 
ATOM     39  C   LIG A   1      -2.216   7.049 127.998  0.00  0.00    +0.008 C 
ENDBRANCH  36  38
ENDBRANCH  34  35
ENDBRANCH  14  34
TORSDOF 14
ENDMDL
MODEL 2
REMARK VINA RESULT:      -7.5      2.074      7.326
REMARK  Name = NuBBE_239
REMARK  20 active torsions:
REMARK  status: ('A' for Active; 'I' for Inactive)
REMARK    1  A    between atoms: C_1  and  C_2
REMARK    2  A    between atoms: C_7  and  O_9
REMARK    3  A    between atoms: C_12  and  O_14
REMARK    4  A    between atoms: O_14  and  C_15
REMARK    5  A    between atoms: C_15  and  C_16
REMARK    6  A    between atoms: C_19  and  O_21
REMARK    7  A    between atoms: O_21  and  C_22
REMARK    8  A    between atoms: C_22  and  C_23
REMARK    9  A    between atoms: C_26  and  O_28
REMARK   10  A    between atoms: O_28  and  C_29
REMARK   11  A    between atoms: C_29  and  C_30
REMARK   12  A    between atoms: C_30  and  C_31
REMARK   13  A    between atoms: C_31  and  C_32
REMARK   14  A    between atoms: C_32  and  C_33
REMARK   15  A    between atoms: C_33  and  C_34
REMARK   16  A    between atoms: C_39  and  C_40
REMARK   17  A    between atoms: C_39  and  C_41
REMARK   18  A    between atoms: C_41  and  C_42
REMARK   19  A    between atoms: C_43  and  C_44
REMARK   20  A    between atoms: C_43  and  C_46
REMARK                            x       y       z     vdW  Elec       q    Type
REMARK                         _______ _______ _______ _____ _____    ______ ____
ROOT
ATOM      1  C   LIG A   1      -7.641   1.929 129.523  0.00  0.00    +0.008 C 
ATOM      2  C   LIG A   1      -7.318   2.096 128.035  0.00  0.00    -0.005 C 
ATOM      3  C   LIG A   1      -8.554   2.560 127.247  0.00  0.00    +0.036 C 
ATOM      4  C   LIG A   1      -8.367   2.760 125.728  0.00  0.00    +0.131 C 
ATOM      5  C   LIG A   1      -7.192   2.016 124.984  0.00  0.00    +0.089 C 
ATOM      6  C   LIG A   1      -6.661   3.023 123.981  0.00  0.00    +0.012 C 
ATOM      7  C   LIG A   1      -7.577   3.013 122.791  0.00  0.00    +0.343 C 
ATOM      8  O   LIG A   1      -8.154   1.692 122.774  0.00  0.00    -0.297 OA
ATOM      9  C   LIG A   1      -7.628   0.963 123.901  0.00  0.00    +0.327 C 
ATOM     10  C   LIG A   1      -5.563   3.766 124.147  0.00  0.00    +0.023 C 
ATOM     11  C   LIG A   1      -4.689   3.751 125.337  0.00  0.00    +0.200 C 
ATOM     12  C   LIG A   1      -4.880   2.496 126.206  0.00  0.00    +0.054 C 
ATOM     13  C   LIG A   1      -6.083   1.488 125.953  0.00  0.00    +0.018 C 
ATOM     14  C   LIG A   1      -6.659   0.880 127.320  0.00  0.00    -0.022 C 
ATOM     15  C   LIG A   1      -5.452   0.279 128.102  0.00  0.00    +0.012 C 
ENDROOT
BRANCH   4  16
ATOM     16  O   LIG A   1      -9.632   2.612 125.065  0.00  0.00    -0.391 OA
ATOM     17  H   LIG A   1     -10.281   2.188 125.653  0.00  0.00    +0.210 HD
ENDBRANCH   4  16
BRANCH   7  18
ATOM     18  O   LIG A   1      -6.923   3.293 121.552  0.00  0.00    -0.431 OA
BRANCH  18  19
ATOM     19  C   LIG A   1      -7.728   3.863 120.610  0.00  0.00    +0.306 C 
ATOM     20  C   LIG A   1      -6.905   4.373 119.471  0.00  0.00    +0.136 C 
ATOM     21  O   LIG A   1      -8.945   3.891 120.609  0.00  0.00    -0.251 OA
ENDBRANCH  18  19
ENDBRANCH   7  18
BRANCH   9  22
ATOM     22  O   LIG A   1      -6.484   0.226 123.412  0.00  0.00    -0.434 OA
BRANCH  22  23
ATOM     23  C   LIG A   1      -6.583  -1.126 123.326  0.00  0.00    +0.306 C 
ATOM     24  C   LIG A   1      -5.652  -1.770 124.321  0.00  0.00    +0.136 C 
ATOM     25  O   LIG A   1      -7.309  -1.745 122.567  0.00  0.00    -0.251 OA
ENDBRANCH  22  23
ENDBRANCH   9  22
BRANCH  11  26
ATOM     26  O   LIG A   1      -4.861   4.993 126.081  0.00  0.00    -0.457 OA
BRANCH  26  27
ATOM     27  C   LIG A   1      -4.518   4.926 127.406  0.00  0.00    +0.308 C 
ATOM     28  O   LIG A   1      -5.363   4.923 128.312  0.00  0.00    -0.251 OA
BRANCH  27  29
ATOM     29  C   LIG A   1      -3.039   4.940 127.676  0.00  0.00    +0.120 C 
BRANCH  29  30
ATOM     30  C   LIG A   1      -2.497   6.284 128.235  0.00  0.00    +0.011 C 
BRANCH  30  31
ATOM     31  C   LIG A   1      -2.465   6.457 129.769  0.00  0.00    +0.000 C 
BRANCH  31  32
ATOM     32  C   LIG A   1      -3.353   7.609 130.239  0.00  0.00    -0.003 C 
ATOM     33  C   LIG A   1      -4.688   7.171 130.823  0.00  0.00    +0.004 C 
ENDBRANCH  31  32
ENDBRANCH  30  31
ENDBRANCH  29  30
ENDBRANCH  27  29
ENDBRANCH  26  27
ENDBRANCH  11  26
BRANCH  14  34
ATOM     34  C   LIG A   1      -7.692  -0.307 127.063  0.00  0.00    +0.034 C 
BRANCH  34  35
ATOM     35  C   LIG A   1      -7.638  -1.501 128.002  0.00  0.00    -0.023 C 
ATOM     36  C   LIG A   1      -8.192  -2.726 127.880  0.00  0.00    -0.055 C 
ATOM     37  C   LIG A   1      -7.931  -3.777 128.939  0.00  0.00    +0.043 C 
BRANCH  36  38
ATOM     38  C   LIG A   1      -8.967  -3.163 126.733  0.00  0.00    -0.005 C 
ATOM     39  C   LIG A   1      -8.437  -3.687 125.619  0.00  0.00    +0.008 C 
ENDBRANCH  36  38
ENDBRANCH  34  35
ENDBRANCH  14  34
TORSDOF 14
ENDMDL
MODEL 3
REMARK VINA RESULT:      -7.4      3.258      5.547
REMARK  Name = NuBBE_239
REMARK  20 active torsions:
REMARK  status: ('A' for Active; 'I' for Inactive)
REMARK    1  A    between atoms: C_1  and  C_2
REMARK    2  A    between atoms: C_7  and  O_9
REMARK    3  A    between atoms: C_12  and  O_14
REMARK    4  A    between atoms: O_14  and  C_15
REMARK    5  A    between atoms: C_15  and  C_16
REMARK    6  A    between atoms: C_19  and  O_21
REMARK    7  A    between atoms: O_21  and  C_22
REMARK    8  A    between atoms: C_22  and  C_23
REMARK    9  A    between atoms: C_26  and  O_28
REMARK   10  A    between atoms: O_28  and  C_29
REMARK   11  A    between atoms: C_29  and  C_30
REMARK   12  A    between atoms: C_30  and  C_31
REMARK   13  A    between atoms: C_31  and  C_32
REMARK   14  A    between atoms: C_32  and  C_33
REMARK   15  A    between atoms: C_33  and  C_34
REMARK   16  A    between atoms: C_39  and  C_40
REMARK   17  A    between atoms: C_39  and  C_41
REMARK   18  A    between atoms: C_41  and  C_42
REMARK   19  A    between atoms: C_43  and  C_44
REMARK   20  A    between atoms: C_43  and  C_46
REMARK                            x       y       z     vdW  Elec       q    Type
REMARK                         _______ _______ _______ _____ _____    ______ ____
ROOT
ATOM      1  C   LIG A   1      -5.359   0.537 128.298  0.00  0.00    +0.008 C 
ATOM      2  C   LIG A   1      -6.227   1.533 129.075  0.00  0.00    -0.005 C 
ATOM      3  C   LIG A   1      -7.250   2.215 128.153  0.00  0.00    +0.036 C 
ATOM      4  C   LIG A   1      -8.186   3.252 128.811  0.00  0.00    +0.131 C 
ATOM      5  C   LIG A   1      -7.750   3.949 130.157  0.00  0.00    +0.089 C 
ATOM      6  C   LIG A   1      -9.019   4.039 130.982  0.00  0.00    +0.012 C 
ATOM      7  C   LIG A   1      -9.806   5.219 130.488  0.00  0.00    +0.343 C 
ATOM      8  O   LIG A   1      -8.823   6.120 129.940  0.00  0.00    -0.297 OA
ATOM      9  C   LIG A   1      -7.528   5.504 130.079  0.00  0.00    +0.327 C 
ATOM     10  C   LIG A   1      -9.350   3.209 131.976  0.00  0.00    +0.023 C 
ATOM     11  C   LIG A   1      -8.551   2.053 132.429  0.00  0.00    +0.200 C 
ATOM     12  C   LIG A   1      -7.085   2.118 131.967  0.00  0.00    +0.054 C 
ATOM     13  C   LIG A   1      -6.600   3.193 130.900  0.00  0.00    +0.018 C 
ATOM     14  C   LIG A   1      -5.477   2.604 129.919  0.00  0.00    -0.022 C 
ATOM     15  C   LIG A   1      -4.347   2.012 130.815  0.00  0.00    +0.012 C 
ENDROOT
BRANCH   4  16
ATOM     16  O   LIG A   1      -8.642   4.184 127.819  0.00  0.00    -0.391 OA
ATOM     17  H   LIG A   1      -9.612   4.158 127.744  0.00  0.00    +0.210 HD
ENDBRANCH   4  16
BRANCH   7  18
ATOM     18  O   LIG A   1     -10.575   5.870 131.502  0.00  0.00    -0.431 OA
BRANCH  18  19
ATOM     19  C   LIG A   1     -11.807   6.286 131.090  0.00  0.00    +0.306 C 
ATOM     20  C   LIG A   1     -12.040   5.876 129.671  0.00  0.00    +0.136 C 
ATOM     21  O   LIG A   1     -12.659   6.832 131.767  0.00  0.00    -0.251 OA
ENDBRANCH  18  19
ENDBRANCH   7  18
BRANCH   9  22
ATOM     22  O   LIG A   1      -6.969   6.004 131.316  0.00  0.00    -0.434 OA
BRANCH  22  23
ATOM     23  C   LIG A   1      -5.827   6.737 131.251  0.00  0.00    +0.306 C 
ATOM     24  C   LIG A   1      -4.875   6.294 132.332  0.00  0.00    +0.136 C 
ATOM     25  O   LIG A   1      -5.588   7.622 130.447  0.00  0.00    -0.251 OA
ENDBRANCH  22  23
ENDBRANCH   9  22
BRANCH  11  26
ATOM     26  O   LIG A   1      -9.219   0.818 132.038  0.00  0.00    -0.457 OA
BRANCH  26  27
ATOM     27  C   LIG A   1      -8.416  -0.292 132.015  0.00  0.00    +0.308 C 
ATOM     28  O   LIG A   1      -7.881  -0.747 133.036  0.00  0.00    -0.251 OA
BRANCH  27  29
ATOM     29  C   LIG A   1      -8.169  -0.864 130.647  0.00  0.00    +0.120 C 
BRANCH  29  30
ATOM     30  C   LIG A   1      -7.605  -2.311 130.644  0.00  0.00    +0.011 C 
BRANCH  30  31
ATOM     31  C   LIG A   1      -7.012  -2.843 129.321  0.00  0.00    +0.000 C 
BRANCH  31  32
ATOM     32  C   LIG A   1      -8.009  -2.756 128.165  0.00  0.00    -0.003 C 
ATOM     33  C   LIG A   1      -8.944  -3.951 128.055  0.00  0.00    +0.004 C 
ENDBRANCH  31  32
ENDBRANCH  30  31
ENDBRANCH  29  30
ENDBRANCH  27  29
ENDBRANCH  26  27
ENDBRANCH  11  26
BRANCH  14  34
ATOM     34  C   LIG A   1      -4.815   3.737 129.014  0.00  0.00    +0.034 C 
BRANCH  34  35
ATOM     35  C   LIG A   1      -3.444   3.453 128.423  0.00  0.00    -0.023 C 
ATOM     36  C   LIG A   1      -3.096   3.105 127.166  0.00  0.00    -0.055 C 
ATOM     37  C   LIG A   1      -1.633   2.942 126.810  0.00  0.00    +0.043 C 
BRANCH  36  38
ATOM     38  C   LIG A   1      -4.034   2.961 126.068  0.00  0.00    -0.005 C 
ATOM     39  C   LIG A   1      -4.664   3.985 125.474  0.00  0.00    +0.008 C 
ENDBRANCH  36  38
ENDBRANCH  34  35
ENDBRANCH  14  34
TORSDOF 14
ENDMDL
MODEL 4
REMARK VINA RESULT:      -7.3      3.471      5.162
REMARK  Name = NuBBE_239
REMARK  20 active torsions:
REMARK  status: ('A' for Active; 'I' for Inactive)
REMARK    1  A    between atoms: C_1  and  C_2
REMARK    2  A    between atoms: C_7  and  O_9
REMARK    3  A    between atoms: C_12  and  O_14
REMARK    4  A    between atoms: O_14  and  C_15
REMARK    5  A    between atoms: C_15  and  C_16
REMARK    6  A    between atoms: C_19  and  O_21
REMARK    7  A    between atoms: O_21  and  C_22
REMARK    8  A    between atoms: C_22  and  C_23
REMARK    9  A    between atoms: C_26  and  O_28
REMARK   10  A    between atoms: O_28  and  C_29
REMARK   11  A    between atoms: C_29  and  C_30
REMARK   12  A    between atoms: C_30  and  C_31
REMARK   13  A    between atoms: C_31  and  C_32
REMARK   14  A    between atoms: C_32  and  C_33
REMARK   15  A    between atoms: C_33  and  C_34
REMARK   16  A    between atoms: C_39  and  C_40
REMARK   17  A    between atoms: C_39  and  C_41
REMARK   18  A    between atoms: C_41  and  C_42
REMARK   19  A    between atoms: C_43  and  C_44
REMARK   20  A    between atoms: C_43  and  C_46
REMARK                            x       y       z     vdW  Elec       q    Type
REMARK                         _______ _______ _______ _____ _____    ______ ____
ROOT
ATOM      1  C   LIG A   1      -4.544  -3.659 129.445  0.00  0.00    +0.008 C 
ATOM      2  C   LIG A   1      -5.517  -2.638 128.846  0.00  0.00    -0.005 C 
ATOM      3  C   LIG A   1      -4.762  -1.493 128.153  0.00  0.00    +0.036 C 
ATOM      4  C   LIG A   1      -5.628  -0.386 127.512  0.00  0.00    +0.131 C 
ATOM      5  C   LIG A   1      -7.106  -0.166 128.016  0.00  0.00    +0.089 C 
ATOM      6  C   LIG A   1      -7.909   0.129 126.763  0.00  0.00    +0.012 C 
ATOM      7  C   LIG A   1      -7.690   1.571 126.405  0.00  0.00    +0.343 C 
ATOM      8  O   LIG A   1      -7.382   2.223 127.654  0.00  0.00    -0.297 OA
ATOM      9  C   LIG A   1      -7.396   1.224 128.692  0.00  0.00    +0.327 C 
ATOM     10  C   LIG A   1      -8.676  -0.754 126.117  0.00  0.00    +0.023 C 
ATOM     11  C   LIG A   1      -8.862  -2.169 126.497  0.00  0.00    +0.200 C 
ATOM     12  C   LIG A   1      -8.452  -2.458 127.951  0.00  0.00    +0.054 C 
ATOM     13  C   LIG A   1      -7.672  -1.380 128.823  0.00  0.00    +0.018 C 
ATOM     14  C   LIG A   1      -6.600  -2.058 129.803  0.00  0.00    -0.022 C 
ATOM     15  C   LIG A   1      -7.351  -3.148 130.625  0.00  0.00    +0.012 C 
ENDROOT
BRANCH   4  16
ATOM     16  O   LIG A   1      -4.873   0.833 127.439  0.00  0.00    -0.391 OA
ATOM     17  H   LIG A   1      -3.937   0.670 127.652  0.00  0.00    +0.210 HD
ENDBRANCH   4  16
BRANCH   7  18
ATOM     18  O   LIG A   1      -8.814   2.191 125.777  0.00  0.00    -0.431 OA
BRANCH  18  19
ATOM     19  C   LIG A   1      -8.506   3.300 125.045  0.00  0.00    +0.306 C 
ATOM     20  C   LIG A   1      -8.024   2.901 123.687  0.00  0.00    +0.136 C 
ATOM     21  O   LIG A   1      -8.670   4.461 125.372  0.00  0.00    -0.251 OA
ENDBRANCH  18  19
ENDBRANCH   7  18
BRANCH   9  22
ATOM     22  O   LIG A   1      -8.724   1.248 129.265  0.00  0.00    -0.434 OA
BRANCH  22  23
ATOM     23  C   LIG A   1      -8.925   1.994 130.383  0.00  0.00    +0.306 C 
ATOM     24  C   LIG A   1      -8.891   1.106 131.600  0.00  0.00    +0.136 C 
ATOM     25  O   LIG A   1      -9.106   3.199 130.417  0.00  0.00    -0.251 OA
ENDBRANCH  22  23
ENDBRANCH   9  22
BRANCH  11  26
ATOM     26  O   LIG A   1      -8.183  -3.023 125.531  0.00  0.00    -0.457 OA
BRANCH  26  27
ATOM     27  C   LIG A   1      -8.641  -2.919 124.244  0.00  0.00    +0.308 C 
ATOM     28  O   LIG A   1      -9.820  -3.145 123.938  0.00  0.00    -0.251 OA
BRANCH  27  29
ATOM     29  C   LIG A   1      -7.587  -2.592 123.222  0.00  0.00    +0.120 C 
BRANCH  29  30
ATOM     30  C   LIG A   1      -6.403  -1.747 123.765  0.00  0.00    +0.011 C 
BRANCH  30  31
ATOM     31  C   LIG A   1      -5.062  -2.473 124.011  0.00  0.00    +0.000 C 
BRANCH  31  32
ATOM     32  C   LIG A   1      -5.206  -3.993 123.931  0.00  0.00    -0.003 C 
ATOM     33  C   LIG A   1      -3.936  -4.720 123.515  0.00  0.00    +0.004 C 
ENDBRANCH  31  32
ENDBRANCH  30  31
ENDBRANCH  29  30
ENDBRANCH  27  29
ENDBRANCH  26  27
ENDBRANCH  11  26
BRANCH  14  34
ATOM     34  C   LIG A   1      -5.994  -1.016 130.845  0.00  0.00    +0.034 C 
BRANCH  34  35
ATOM     35  C   LIG A   1      -6.021  -1.397 132.316  0.00  0.00    -0.023 C 
ATOM     36  C   LIG A   1      -5.035  -1.870 133.108  0.00  0.00    -0.055 C 
ATOM     37  C   LIG A   1      -5.305  -2.113 134.578  0.00  0.00    +0.043 C 
BRANCH  36  38
ATOM     38  C   LIG A   1      -3.668  -2.085 132.672  0.00  0.00    -0.005 C 
ATOM     39  C   LIG A   1      -2.650  -1.254 132.939  0.00  0.00    +0.008 C 
ENDBRANCH  36  38
ENDBRANCH  34  35
ENDBRANCH  14  34
TORSDOF 14
ENDMDL
MODEL 5
REMARK VINA RESULT:      -7.2      5.818      8.272
REMARK  Name = NuBBE_239
REMARK  20 active torsions:
REMARK  status: ('A' for Active; 'I' for Inactive)
REMARK    1  A    between atoms: C_1  and  C_2
REMARK    2  A    between atoms: C_7  and  O_9
REMARK    3  A    between atoms: C_12  and  O_14
REMARK    4  A    between atoms: O_14  and  C_15
REMARK    5  A    between atoms: C_15  and  C_16
REMARK    6  A    between atoms: C_19  and  O_21
REMARK    7  A    between atoms: O_21  and  C_22
REMARK    8  A    between atoms: C_22  and  C_23
REMARK    9  A    between atoms: C_26  and  O_28
REMARK   10  A    between atoms: O_28  and  C_29
REMARK   11  A    between atoms: C_29  and  C_30
REMARK   12  A    between atoms: C_30  and  C_31
REMARK   13  A    between atoms: C_31  and  C_32
REMARK   14  A    between atoms: C_32  and  C_33
REMARK   15  A    between atoms: C_33  and  C_34
REMARK   16  A    between atoms: C_39  and  C_40
REMARK   17  A    between atoms: C_39  and  C_41
REMARK   18  A    between atoms: C_41  and  C_42
REMARK   19  A    between atoms: C_43  and  C_44
REMARK   20  A    between atoms: C_43  and  C_46
REMARK                            x       y       z     vdW  Elec       q    Type
REMARK                         _______ _______ _______ _____ _____    ______ ____
ROOT
ATOM      1  C   LIG A   1      -3.144  -3.645 129.456  0.00  0.00    +0.008 C 
ATOM      2  C   LIG A   1      -4.307  -2.862 130.074  0.00  0.00    -0.005 C 
ATOM      3  C   LIG A   1      -3.823  -1.534 130.678  0.00  0.00    +0.036 C 
ATOM      4  C   LIG A   1      -4.898  -0.648 131.344  0.00  0.00    +0.131 C 
ATOM      5  C   LIG A   1      -6.240  -1.303 131.851  0.00  0.00    +0.089 C 
ATOM      6  C   LIG A   1      -7.323  -0.298 131.505  0.00  0.00    +0.012 C 
ATOM      7  C   LIG A   1      -7.310   0.773 132.558  0.00  0.00    +0.343 C 
ATOM      8  O   LIG A   1      -6.787   0.131 133.738  0.00  0.00    -0.297 OA
ATOM      9  C   LIG A   1      -6.487  -1.238 133.403  0.00  0.00    +0.327 C 
ATOM     10  C   LIG A   1      -8.139  -0.381 130.451  0.00  0.00    +0.023 C 
ATOM     11  C   LIG A   1      -8.118  -1.450 129.432  0.00  0.00    +0.200 C 
ATOM     12  C   LIG A   1      -7.372  -2.711 129.900  0.00  0.00    +0.054 C 
ATOM     13  C   LIG A   1      -6.510  -2.716 131.237  0.00  0.00    +0.018 C 
ATOM     14  C   LIG A   1      -5.194  -3.622 131.103  0.00  0.00    -0.022 C 
ATOM     15  C   LIG A   1      -5.651  -5.028 130.612  0.00  0.00    +0.012 C 
ENDROOT
BRANCH   4  16
ATOM     16  O   LIG A   1      -4.282   0.200 132.325  0.00  0.00    -0.391 OA
ATOM     17  H   LIG A   1      -4.898   0.897 132.611  0.00  0.00    +0.210 HD
ENDBRANCH   4  16
BRANCH   7  18
ATOM     18  O   LIG A   1      -8.593   1.344 132.822  0.00  0.00    -0.431 OA
BRANCH  18  19
ATOM     19  C   LIG A   1      -8.692   2.668 132.507  0.00  0.00    +0.306 C 
ATOM     20  C   LIG A   1      -8.998   3.466 133.734  0.00  0.00    +0.136 C 
ATOM     21  O   LIG A   1      -8.481   3.180 131.423  0.00  0.00    -0.251 OA
ENDBRANCH  18  19
ENDBRANCH   7  18
BRANCH   9  22
ATOM     22  O   LIG A   1      -7.651  -2.014 133.770  0.00  0.00    -0.434 OA
BRANCH  22  23
ATOM     23  C   LIG A   1      -7.615  -2.711 134.935  0.00  0.00    +0.306 C 
ATOM     24  C   LIG A   1      -8.277  -4.051 134.748  0.00  0.00    +0.136 C 
ATOM     25  O   LIG A   1      -7.124  -2.329 135.984  0.00  0.00    -0.251 OA
ENDBRANCH  22  23
ENDBRANCH   9  22
BRANCH  11  26
ATOM     26  O   LIG A   1      -7.602  -0.914 128.178  0.00  0.00    -0.457 OA
BRANCH  26  27
ATOM     27  C   LIG A   1      -7.501  -1.824 127.158  0.00  0.00    +0.308 C 
ATOM     28  O   LIG A   1      -8.493  -2.352 126.638  0.00  0.00    -0.251 OA
BRANCH  27  29
ATOM     29  C   LIG A   1      -6.093  -2.191 126.777  0.00  0.00    +0.120 C 
BRANCH  29  30
ATOM     30  C   LIG A   1      -5.705  -1.834 125.317  0.00  0.00    +0.011 C 
BRANCH  30  31
ATOM     31  C   LIG A   1      -6.037  -2.868 124.218  0.00  0.00    +0.000 C 
BRANCH  31  32
ATOM     32  C   LIG A   1      -4.811  -3.237 123.384  0.00  0.00    -0.003 C 
ATOM     33  C   LIG A   1      -4.296  -4.649 123.621  0.00  0.00    +0.004 C 
ENDBRANCH  31  32
ENDBRANCH  30  31
ENDBRANCH  29  30
ENDBRANCH  27  29
ENDBRANCH  26  27
ENDBRANCH  11  26
BRANCH  14  34
ATOM     34  C   LIG A   1      -4.461  -3.827 132.503  0.00  0.00    +0.034 C 
BRANCH  34  35
ATOM     35  C   LIG A   1      -4.935  -4.970 133.384  0.00  0.00    -0.023 C 
ATOM     36  C   LIG A   1      -4.797  -5.156 134.715  0.00  0.00    -0.055 C 
ATOM     37  C   LIG A   1      -5.428  -6.365 135.373  0.00  0.00    +0.043 C 
BRANCH  36  38
ATOM     38  C   LIG A   1      -4.151  -4.213 135.609  0.00  0.00    -0.005 C 
ATOM     39  C   LIG A   1      -4.240  -4.259 136.946  0.00  0.00    +0.008 C 
ENDBRANCH  36  38
ENDBRANCH  34  35
ENDBRANCH  14  34
TORSDOF 14
ENDMDL
MODEL 6
REMARK VINA RESULT:      -7.1      3.539      7.096
REMARK  Name = NuBBE_239
REMARK  20 active torsions:
REMARK  status: ('A' for Active; 'I' for Inactive)
REMARK    1  A    between atoms: C_1  and  C_2
REMARK    2  A    between atoms: C_7  and  O_9
REMARK    3  A    between atoms: C_12  and  O_14
REMARK    4  A    between atoms: O_14  and  C_15
REMARK    5  A    between atoms: C_15  and  C_16
REMARK    6  A    between atoms: C_19  and  O_21
REMARK    7  A    between atoms: O_21  and  C_22
REMARK    8  A    between atoms: C_22  and  C_23
REMARK    9  A    between atoms: C_26  and  O_28
REMARK   10  A    between atoms: O_28  and  C_29
REMARK   11  A    between atoms: C_29  and  C_30
REMARK   12  A    between atoms: C_30  and  C_31
REMARK   13  A    between atoms: C_31  and  C_32
REMARK   14  A    between atoms: C_32  and  C_33
REMARK   15  A    between atoms: C_33  and  C_34
REMARK   16  A    between atoms: C_39  and  C_40
REMARK   17  A    between atoms: C_39  and  C_41
REMARK   18  A    between atoms: C_41  and  C_42
REMARK   19  A    between atoms: C_43  and  C_44
REMARK   20  A    between atoms: C_43  and  C_46
REMARK                            x       y       z     vdW  Elec       q    Type
REMARK                         _______ _______ _______ _____ _____    ______ ____
ROOT
ATOM      1  C   LIG A   1      -6.685   3.230 134.419  0.00  0.00    +0.008 C 
ATOM      2  C   LIG A   1      -6.923   3.715 132.985  0.00  0.00    -0.005 C 
ATOM      3  C   LIG A   1      -7.090   2.531 132.020  0.00  0.00    +0.036 C 
ATOM      4  C   LIG A   1      -7.329   2.882 130.535  0.00  0.00    +0.131 C 
ATOM      5  C   LIG A   1      -6.874   4.289 129.986  0.00  0.00    +0.089 C 
ATOM      6  C   LIG A   1      -7.976   4.715 129.034  0.00  0.00    +0.012 C 
ATOM      7  C   LIG A   1      -7.758   4.004 127.730  0.00  0.00    +0.343 C 
ATOM      8  O   LIG A   1      -6.340   3.751 127.676  0.00  0.00    -0.297 OA
ATOM      9  C   LIG A   1      -5.750   4.262 128.887  0.00  0.00    +0.327 C 
ATOM     10  C   LIG A   1      -8.951   5.581 129.327  0.00  0.00    +0.023 C 
ATOM     11  C   LIG A   1      -9.137   6.257 130.627  0.00  0.00    +0.200 C 
ATOM     12  C   LIG A   1      -7.872   6.233 131.501  0.00  0.00    +0.054 C 
ATOM     13  C   LIG A   1      -6.614   5.339 131.116  0.00  0.00    +0.018 C 
ATOM     14  C   LIG A   1      -5.890   4.728 132.409  0.00  0.00    -0.022 C 
ATOM     15  C   LIG A   1      -5.581   5.916 133.369  0.00  0.00    +0.012 C 
ENDROOT
BRANCH   4  16
ATOM     16  O   LIG A   1      -6.896   1.792 129.708  0.00  0.00    -0.391 OA
ATOM     17  H   LIG A   1      -6.179   1.295 130.141  0.00  0.00    +0.210 HD
ENDBRANCH   4  16
BRANCH   7  18
ATOM     18  O   LIG A   1      -8.181   4.747 126.585  0.00  0.00    -0.431 OA
BRANCH  18  19
ATOM     19  C   LIG A   1      -7.677   4.291 125.403  0.00  0.00    +0.306 C 
ATOM     20  C   LIG A   1      -8.470   3.117 124.925  0.00  0.00    +0.136 C 
ATOM     21  O   LIG A   1      -6.776   4.788 124.751  0.00  0.00    -0.251 OA
ENDBRANCH  18  19
ENDBRANCH   7  18
BRANCH   9  22
ATOM     22  O   LIG A   1      -5.295   5.602 128.586  0.00  0.00    -0.434 OA
BRANCH  22  23
ATOM     23  C   LIG A   1      -4.019   5.761 128.146  0.00  0.00    +0.306 C 
ATOM     24  C   LIG A   1      -3.246   4.485 128.355  0.00  0.00    +0.136 C 
ATOM     25  O   LIG A   1      -3.553   6.773 127.652  0.00  0.00    -0.251 OA
ENDBRANCH  22  23
ENDBRANCH   9  22
BRANCH  11  26
ATOM     26  O   LIG A   1     -10.306   5.703 131.298  0.00  0.00    -0.457 OA
BRANCH  26  27
ATOM     27  C   LIG A   1     -11.488   5.855 130.622  0.00  0.00    +0.308 C 
ATOM     28  O   LIG A   1     -11.974   4.957 129.921  0.00  0.00    -0.251 OA
BRANCH  27  29
ATOM     29  C   LIG A   1     -12.106   7.222 130.732  0.00  0.00    +0.120 C 
BRANCH  29  30
ATOM     30  C   LIG A   1     -12.949   7.650 129.501  0.00  0.00    +0.011 C 
BRANCH  30  31
ATOM     31  C   LIG A   1     -12.386   8.777 128.607  0.00  0.00    +0.000 C 
BRANCH  31  32
ATOM     32  C   LIG A   1     -10.969   8.474 128.121  0.00  0.00    -0.003 C 
ATOM     33  C   LIG A   1     -10.908   7.670 126.832  0.00  0.00    +0.004 C 
ENDBRANCH  31  32
ENDBRANCH  30  31
ENDBRANCH  29  30
ENDBRANCH  27  29
ENDBRANCH  26  27
ENDBRANCH  11  26
BRANCH  14  34
ATOM     34  C   LIG A   1      -4.498   4.039 132.049  0.00  0.00    +0.034 C 
BRANCH  34  35
ATOM     35  C   LIG A   1      -3.259   4.539 132.772  0.00  0.00    -0.023 C 
ATOM     36  C   LIG A   1      -2.404   5.531 132.443  0.00  0.00    -0.055 C 
ATOM     37  C   LIG A   1      -1.266   5.883 133.379  0.00  0.00    +0.043 C 
BRANCH  36  38
ATOM     38  C   LIG A   1      -2.545   6.378 131.272  0.00  0.00    -0.005 C 
ATOM     39  C   LIG A   1      -3.156   7.571 131.273  0.00  0.00    +0.008 C 
ENDBRANCH  36  38
ENDBRANCH  34  35
ENDBRANCH  14  34
TORSDOF 14
ENDMDL
MODEL 7
REMARK VINA RESULT:      -7.1      2.852      6.089
REMARK  Name = NuBBE_239
REMARK  20 active torsions:
REMARK  status: ('A' for Active; 'I' for Inactive)
REMARK    1  A    between atoms: C_1  and  C_2
REMARK    2  A    between atoms: C_7  and  O_9
REMARK    3  A    between atoms: C_12  and  O_14
REMARK    4  A    between atoms: O_14  and  C_15
REMARK    5  A    between atoms: C_15  and  C_16
REMARK    6  A    between atoms: C_19  and  O_21
REMARK    7  A    between atoms: O_21  and  C_22
REMARK    8  A    between atoms: C_22  and  C_23
REMARK    9  A    between atoms: C_26  and  O_28
REMARK   10  A    between atoms: O_28  and  C_29
REMARK   11  A    between atoms: C_29  and  C_30
REMARK   12  A    between atoms: C_30  and  C_31
REMARK   13  A    between atoms: C_31  and  C_32
REMARK   14  A    between atoms: C_32  and  C_33
REMARK   15  A    between atoms: C_33  and  C_34
REMARK   16  A    between atoms: C_39  and  C_40
REMARK   17  A    between atoms: C_39  and  C_41
REMARK   18  A    between atoms: C_41  and  C_42
REMARK   19  A    between atoms: C_43  and  C_44
REMARK   20  A    between atoms: C_43  and  C_46
REMARK                            x       y       z     vdW  Elec       q    Type
REMARK                         _______ _______ _______ _____ _____    ______ ____
ROOT
ATOM      1  C   LIG A   1      -8.057  -0.013 125.361  0.00  0.00    +0.008 C 
ATOM      2  C   LIG A   1      -7.583   0.582 126.691  0.00  0.00    -0.005 C 
ATOM      3  C   LIG A   1      -8.698   1.402 127.360  0.00  0.00    +0.036 C 
ATOM      4  C   LIG A   1      -8.349   2.066 128.709  0.00  0.00    +0.131 C 
ATOM      5  C   LIG A   1      -6.840   2.345 129.071  0.00  0.00    +0.089 C 
ATOM      6  C   LIG A   1      -6.724   2.027 130.550  0.00  0.00    +0.012 C 
ATOM      7  C   LIG A   1      -7.249   3.208 131.316  0.00  0.00    +0.343 C 
ATOM      8  O   LIG A   1      -7.040   4.339 130.449  0.00  0.00    -0.297 OA
ATOM      9  C   LIG A   1      -6.444   3.859 129.227  0.00  0.00    +0.327 C 
ATOM     10  C   LIG A   1      -6.228   0.894 131.055  0.00  0.00    +0.023 C 
ATOM     11  C   LIG A   1      -5.726  -0.249 130.267  0.00  0.00    +0.200 C 
ATOM     12  C   LIG A   1      -5.404   0.122 128.809  0.00  0.00    +0.054 C 
ATOM     13  C   LIG A   1      -5.833   1.527 128.198  0.00  0.00    +0.018 C 
ATOM     14  C   LIG A   1      -6.264   1.408 126.658  0.00  0.00    -0.022 C 
ATOM     15  C   LIG A   1      -5.101   0.692 125.908  0.00  0.00    +0.012 C 
ENDROOT
BRANCH   4  16
ATOM     16  O   LIG A   1      -9.195   3.207 128.916  0.00  0.00    -0.391 OA
ATOM     17  H   LIG A   1      -8.990   3.908 128.273  0.00  0.00    +0.210 HD
ENDBRANCH   4  16
BRANCH   7  18
ATOM     18  O   LIG A   1      -6.607   3.413 132.576  0.00  0.00    -0.431 OA
BRANCH  18  19
ATOM     19  C   LIG A   1      -7.277   2.883 133.640  0.00  0.00    +0.306 C 
ATOM     20  C   LIG A   1      -8.402   3.782 134.039  0.00  0.00    +0.136 C 
ATOM     21  O   LIG A   1      -7.081   1.800 134.160  0.00  0.00    -0.251 OA
ENDBRANCH  18  19
ENDBRANCH   7  18
BRANCH   9  22
ATOM     22  O   LIG A   1      -5.014   4.002 129.386  0.00  0.00    -0.434 OA
BRANCH  22  23
ATOM     23  C   LIG A   1      -4.379   4.949 128.648  0.00  0.00    +0.306 C 
ATOM     24  C   LIG A   1      -3.404   4.292 127.705  0.00  0.00    +0.136 C 
ATOM     25  O   LIG A   1      -4.558   6.153 128.720  0.00  0.00    -0.251 OA
ENDBRANCH  22  23
ENDBRANCH   9  22
BRANCH  11  26
ATOM     26  O   LIG A   1      -6.660  -1.363 130.380  0.00  0.00    -0.457 OA
BRANCH  26  27
ATOM     27  C   LIG A   1      -6.088  -2.606 130.307  0.00  0.00    +0.308 C 
ATOM     28  O   LIG A   1      -4.976  -2.857 130.791  0.00  0.00    -0.251 OA
BRANCH  27  29
ATOM     29  C   LIG A   1      -6.877  -3.619 129.522  0.00  0.00    +0.120 C 
BRANCH  29  30
ATOM     30  C   LIG A   1      -8.182  -3.068 128.886  0.00  0.00    +0.011 C 
BRANCH  30  31
ATOM     31  C   LIG A   1      -8.903  -3.961 127.852  0.00  0.00    +0.000 C 
BRANCH  31  32
ATOM     32  C   LIG A   1      -9.147  -3.234 126.531  0.00  0.00    -0.003 C 
ATOM     33  C   LIG A   1      -8.349  -3.783 125.358  0.00  0.00    +0.004 C 
ENDBRANCH  31  32
ENDBRANCH  30  31
ENDBRANCH  29  30
ENDBRANCH  27  29
ENDBRANCH  26  27
ENDBRANCH  11  26
BRANCH  14  34
ATOM     34  C   LIG A   1      -6.457   2.836 125.976  0.00  0.00    +0.034 C 
BRANCH  34  35
ATOM     35  C   LIG A   1      -6.056   2.977 124.517  0.00  0.00    -0.023 C 
ATOM     36  C   LIG A   1      -6.825   3.070 123.411  0.00  0.00    -0.055 C 
ATOM     37  C   LIG A   1      -6.173   3.274 122.059  0.00  0.00    +0.043 C 
BRANCH  36  38
ATOM     38  C   LIG A   1      -8.276   3.082 123.422  0.00  0.00    -0.005 C 
ATOM     39  C   LIG A   1      -9.044   2.317 122.634  0.00  0.00    +0.008 C 
ENDBRANCH  36  38
ENDBRANCH  34  35
ENDBRANCH  14  34
TORSDOF 14
ENDMDL
MODEL 8
REMARK VINA RESULT:      -7.0      3.269      8.473
REMARK  Name = NuBBE_239
REMARK  20 active torsions:
REMARK  status: ('A' for Active; 'I' for Inactive)
REMARK    1  A    between atoms: C_1  and  C_2
REMARK    2  A    between atoms: C_7  and  O_9
REMARK    3  A    between atoms: C_12  and  O_14
REMARK    4  A    between atoms: O_14  and  C_15
REMARK    5  A    between atoms: C_15  and  C_16
REMARK    6  A    between atoms: C_19  and  O_21
REMARK    7  A    between atoms: O_21  and  C_22
REMARK    8  A    between atoms: C_22  and  C_23
REMARK    9  A    between atoms: C_26  and  O_28
REMARK   10  A    between atoms: O_28  and  C_29
REMARK   11  A    between atoms: C_29  and  C_30
REMARK   12  A    between atoms: C_30  and  C_31
REMARK   13  A    between atoms: C_31  and  C_32
REMARK   14  A    between atoms: C_32  and  C_33
REMARK   15  A    between atoms: C_33  and  C_34
REMARK   16  A    between atoms: C_39  and  C_40
REMARK   17  A    between atoms: C_39  and  C_41
REMARK   18  A    between atoms: C_41  and  C_42
REMARK   19  A    between atoms: C_43  and  C_44
REMARK   20  A    between atoms: C_43  and  C_46
REMARK                            x       y       z     vdW  Elec       q    Type
REMARK                         _______ _______ _______ _____ _____    ______ ____
ROOT
ATOM      1  C   LIG A   1      -5.932   2.359 125.105  0.00  0.00    +0.008 C 
ATOM      2  C   LIG A   1      -6.293   1.866 126.510  0.00  0.00    -0.005 C 
ATOM      3  C   LIG A   1      -5.045   1.771 127.402  0.00  0.00    +0.036 C 
ATOM      4  C   LIG A   1      -5.268   1.277 128.847  0.00  0.00    +0.131 C 
ATOM      5  C   LIG A   1      -6.548   0.420 129.187  0.00  0.00    +0.089 C 
ATOM      6  C   LIG A   1      -7.002   0.914 130.548  0.00  0.00    +0.012 C 
ATOM      7  C   LIG A   1      -6.141   0.255 131.587  0.00  0.00    +0.343 C 
ATOM      8  O   LIG A   1      -5.717  -0.986 130.989  0.00  0.00    -0.297 OA
ATOM      9  C   LIG A   1      -6.276  -1.054 129.662  0.00  0.00    +0.327 C 
ATOM     10  C   LIG A   1      -8.002   1.774 130.758  0.00  0.00    +0.023 C 
ATOM     11  C   LIG A   1      -8.825   2.407 129.708  0.00  0.00    +0.200 C 
ATOM     12  C   LIG A   1      -8.741   1.674 128.358  0.00  0.00    +0.054 C 
ATOM     13  C   LIG A   1      -7.670   0.526 128.102  0.00  0.00    +0.018 C 
ATOM     14  C   LIG A   1      -7.112   0.546 126.599  0.00  0.00    -0.022 C 
ATOM     15  C   LIG A   1      -8.347   0.514 125.649  0.00  0.00    +0.012 C 
ENDROOT
BRANCH   4  16
ATOM     16  O   LIG A   1      -4.056   0.695 129.349  0.00  0.00    -0.391 OA
ATOM     17  H   LIG A   1      -3.388   0.632 128.644  0.00  0.00    +0.210 HD
ENDBRANCH   4  16
BRANCH   7  18
ATOM     18  O   LIG A   1      -6.808   0.015 132.828  0.00  0.00    -0.431 OA
BRANCH  18  19
ATOM     19  C   LIG A   1      -6.109   0.418 133.927  0.00  0.00    +0.306 C 
ATOM     20  C   LIG A   1      -5.223   1.571 133.580  0.00  0.00    +0.136 C 
ATOM     21  O   LIG A   1      -6.224  -0.007 135.063  0.00  0.00    -0.251 OA
ENDBRANCH  18  19
ENDBRANCH   7  18
BRANCH   9  22
ATOM     22  O   LIG A   1      -7.514  -1.793 129.779  0.00  0.00    -0.434 OA
BRANCH  22  23
ATOM     23  C   LIG A   1      -7.522  -3.094 129.390  0.00  0.00    +0.306 C 
ATOM     24  C   LIG A   1      -8.454  -3.271 128.219  0.00  0.00    +0.136 C 
ATOM     25  O   LIG A   1      -6.879  -3.997 129.897  0.00  0.00    -0.251 OA
ENDBRANCH  22  23
ENDBRANCH   9  22
BRANCH  11  26
ATOM     26  O   LIG A   1      -8.485   3.821 129.611  0.00  0.00    -0.457 OA
BRANCH  26  27
ATOM     27  C   LIG A   1      -9.448   4.680 130.072  0.00  0.00    +0.308 C 
ATOM     28  O   LIG A   1     -10.659   4.453 129.943  0.00  0.00    -0.251 OA
BRANCH  27  29
ATOM     29  C   LIG A   1      -8.922   5.955 130.671  0.00  0.00    +0.120 C 
BRANCH  29  30
ATOM     30  C   LIG A   1      -8.843   5.956 132.222  0.00  0.00    +0.011 C 
BRANCH  30  31
ATOM     31  C   LIG A   1      -7.543   5.431 132.871  0.00  0.00    +0.000 C 
BRANCH  31  32
ATOM     32  C   LIG A   1      -7.813   4.322 133.887  0.00  0.00    -0.003 C 
ATOM     33  C   LIG A   1      -9.188   3.684 133.767  0.00  0.00    +0.004 C 
ENDBRANCH  31  32
ENDBRANCH  30  31
ENDBRANCH  29  30
ENDBRANCH  27  29
ENDBRANCH  26  27
ENDBRANCH  11  26
BRANCH  14  34
ATOM     34  C   LIG A   1      -6.230  -0.740 126.269  0.00  0.00    +0.034 C 
BRANCH  34  35
ATOM     35  C   LIG A   1      -5.971  -1.058 124.806  0.00  0.00    -0.023 C 
ATOM     36  C   LIG A   1      -6.309  -2.146 124.080  0.00  0.00    -0.055 C 
ATOM     37  C   LIG A   1      -5.989  -2.191 122.601  0.00  0.00    +0.043 C 
BRANCH  36  38
ATOM     38  C   LIG A   1      -7.062  -3.273 124.600  0.00  0.00    -0.005 C 
ATOM     39  C   LIG A   1      -8.386  -3.426 124.458  0.00  0.00    +0.008 C 
ENDBRANCH  36  38
ENDBRANCH  34  35
ENDBRANCH  14  34
TORSDOF 14
ENDMDL
MODEL 9
REMARK VINA RESULT:      -7.0      2.969      4.054
REMARK  Name = NuBBE_239
REMARK  20 active torsions:
REMARK  status: ('A' for Active; 'I' for Inactive)
REMARK    1  A    between atoms: C_1  and  C_2
REMARK    2  A    between atoms: C_7  and  O_9
REMARK    3  A    between atoms: C_12  and  O_14
REMARK    4  A    between atoms: O_14  and  C_15
REMARK    5  A    between atoms: C_15  and  C_16
REMARK    6  A    between atoms: C_19  and  O_21
REMARK    7  A    between atoms: O_21  and  C_22
REMARK    8  A    between atoms: C_22  and  C_23
REMARK    9  A    between atoms: C_26  and  O_28
REMARK   10  A    between atoms: O_28  and  C_29
REMARK   11  A    between atoms: C_29  and  C_30
REMARK   12  A    between atoms: C_30  and  C_31
REMARK   13  A    between atoms: C_31  and  C_32
REMARK   14  A    between atoms: C_32  and  C_33
REMARK   15  A    between atoms: C_33  and  C_34
REMARK   16  A    between atoms: C_39  and  C_40
REMARK   17  A    between atoms: C_39  and  C_41
REMARK   18  A    between atoms: C_41  and  C_42
REMARK   19  A    between atoms: C_43  and  C_44
REMARK   20  A    between atoms: C_43  and  C_46
REMARK                            x       y       z     vdW  Elec       q    Type
REMARK                         _______ _______ _______ _____ _____    ______ ____
ROOT
ATOM      1  C   LIG A   1      -3.296   3.759 131.955  0.00  0.00    +0.008 C 
ATOM      2  C   LIG A   1      -4.568   3.348 131.204  0.00  0.00    -0.005 C 
ATOM      3  C   LIG A   1      -4.298   3.195 129.699  0.00  0.00    +0.036 C 
ATOM      4  C   LIG A   1      -5.502   2.790 128.822  0.00  0.00    +0.131 C 
ATOM      5  C   LIG A   1      -6.967   3.069 129.336  0.00  0.00    +0.089 C 
ATOM      6  C   LIG A   1      -7.769   1.851 128.918  0.00  0.00    +0.012 C 
ATOM      7  C   LIG A   1      -8.122   2.008 127.467  0.00  0.00    +0.343 C 
ATOM      8  O   LIG A   1      -8.148   3.432 127.241  0.00  0.00    -0.297 OA
ATOM      9  C   LIG A   1      -7.809   4.085 128.480  0.00  0.00    +0.327 C 
ATOM     10  C   LIG A   1      -8.099   0.836 129.722  0.00  0.00    +0.023 C 
ATOM     11  C   LIG A   1      -7.727   0.714 131.146  0.00  0.00    +0.200 C 
ATOM     12  C   LIG A   1      -7.296   2.053 131.771  0.00  0.00    +0.054 C 
ATOM     13  C   LIG A   1      -7.041   3.342 130.874  0.00  0.00    +0.018 C 
ATOM     14  C   LIG A   1      -5.829   4.232 131.430  0.00  0.00    -0.022 C 
ATOM     15  C   LIG A   1      -6.124   4.525 132.932  0.00  0.00    +0.012 C 
ENDROOT
BRANCH   4  16
ATOM     16  O   LIG A   1      -5.287   3.237 127.475  0.00  0.00    -0.391 OA
ATOM     17  H   LIG A   1      -4.803   2.566 126.963  0.00  0.00    +0.210 HD
ENDBRANCH   4  16
BRANCH   7  18
ATOM     18  O   LIG A   1      -9.373   1.418 127.106  0.00  0.00    -0.431 OA
BRANCH  18  19
ATOM     19  C   LIG A   1      -9.320   0.629 125.995  0.00  0.00    +0.306 C 
ATOM     20  C   LIG A   1      -8.285  -0.436 126.170  0.00  0.00    +0.136 C 
ATOM     21  O   LIG A   1     -10.050   0.687 125.022  0.00  0.00    -0.251 OA
ENDBRANCH  18  19
ENDBRANCH   7  18
BRANCH   9  22
ATOM     22  O   LIG A   1      -9.061   4.393 129.135  0.00  0.00    -0.434 OA
BRANCH  22  23
ATOM     23  C   LIG A   1      -9.468   5.689 129.162  0.00  0.00    +0.306 C 
ATOM     24  C   LIG A   1      -9.414   6.210 130.575  0.00  0.00    +0.136 C 
ATOM     25  O   LIG A   1      -9.823   6.349 128.200  0.00  0.00    -0.251 OA
ENDBRANCH  22  23
ENDBRANCH   9  22
BRANCH  11  26
ATOM     26  O   LIG A   1      -6.728  -0.335 131.298  0.00  0.00    -0.457 OA
BRANCH  26  27
ATOM     27  C   LIG A   1      -7.022  -1.283 132.243  0.00  0.00    +0.308 C 
ATOM     28  O   LIG A   1      -7.909  -1.121 133.093  0.00  0.00    -0.251 OA
BRANCH  27  29
ATOM     29  C   LIG A   1      -6.133  -2.496 132.219  0.00  0.00    +0.120 C 
BRANCH  29  30
ATOM     30  C   LIG A   1      -6.514  -3.554 131.149  0.00  0.00    +0.011 C 
BRANCH  30  31
ATOM     31  C   LIG A   1      -5.887  -3.406 129.745  0.00  0.00    +0.000 C 
BRANCH  31  32
ATOM     32  C   LIG A   1      -6.870  -2.817 128.734  0.00  0.00    -0.003 C 
ATOM     33  C   LIG A   1      -8.334  -3.001 129.104  0.00  0.00    +0.004 C 
ENDBRANCH  31  32
ENDBRANCH  30  31
ENDBRANCH  29  30
ENDBRANCH  27  29
ENDBRANCH  26  27
ENDBRANCH  11  26
BRANCH  14  34
ATOM     34  C   LIG A   1      -5.727   5.639 130.687  0.00  0.00    +0.034 C 
BRANCH  34  35
ATOM     35  C   LIG A   1      -4.829   6.697 131.305  0.00  0.00    -0.023 C 
ATOM     36  C   LIG A   1      -3.732   7.305 130.804  0.00  0.00    -0.055 C 
ATOM     37  C   LIG A   1      -3.043   8.390 131.605  0.00  0.00    +0.043 C 
BRANCH  36  38
ATOM     38  C   LIG A   1      -3.197   7.062 129.477  0.00  0.00    -0.005 C 
ATOM     39  C   LIG A   1      -2.107   6.324 129.225  0.00  0.00    +0.008 C 
ENDBRANCH  36  38
ENDBRANCH  34  35
ENDBRANCH  14  34
TORSDOF 14
ENDMDL
