MODEL 1
REMARK VINA RESULT:      -7.3      0.000      0.000
REMARK  Name = NuBBE_2166
REMARK  16 active torsions:
REMARK  status: ('A' for Active; 'I' for Inactive)
REMARK    1  A    between atoms: C_2  and  C_3
REMARK    2  A    between atoms: C_2  and  C_14
REMARK    3  A    between atoms: C_4  and  O_5
REMARK    4  A    between atoms: C_9  and  O_10
REMARK    5  A    between atoms: O_10  and  C_11
REMARK    6  A    between atoms: C_11  and  C_12
REMARK    7  A    between atoms: C_14  and  C_15
REMARK    8  A    between atoms: C_15  and  C_16
REMARK    9  A    between atoms: C_16  and  C_17
REMARK   10  A    between atoms: C_17  and  C_18
REMARK   11  A    between atoms: C_18  and  C_19
REMARK   12  A    between atoms: C_19  and  C_20
REMARK   13  A    between atoms: C_20  and  C_21
REMARK   14  A    between atoms: C_21  and  C_22
REMARK   15  A    between atoms: C_22  and  C_23
REMARK   16  A    between atoms: C_23  and  C_24
REMARK                            x       y       z     vdW  Elec       q    Type
REMARK                         _______ _______ _______ _____ _____    ______ ____
ROOT
ATOM      1  C   LIG A   1      -7.264   1.149 124.329  0.00  0.00    +0.080 C 
ENDROOT
BRANCH   1   3
ATOM      2  O   LIG A   1      -8.840   2.998 124.394  0.00  0.00    -0.292 OA
ATOM      3  C   LIG A   1      -7.825   2.512 123.893  0.00  0.00    +0.170 C 
BRANCH   3   4
ATOM      4  C   LIG A   1      -7.152   3.273 122.793  0.00  0.00    +0.101 A 
ATOM      5  C   LIG A   1      -7.770   3.369 121.534  0.00  0.00    +0.131 A 
ATOM      6  C   LIG A   1      -7.087   3.896 120.436  0.00  0.00    +0.046 A 
ATOM      7  C   LIG A   1      -5.786   4.367 120.587  0.00  0.00    +0.007 A 
ATOM      8  C   LIG A   1      -5.196   4.381 121.850  0.00  0.00    +0.047 A 
ATOM      9  C   LIG A   1      -5.891   3.876 122.950  0.00  0.00    +0.146 A 
BRANCH   5  10
ATOM     10  O   LIG A   1      -9.064   2.993 121.294  0.00  0.00    -0.506 OA
ATOM     11  H   LIG A   1      -9.404   3.543 120.554  0.00  0.00    +0.292 HD
ENDBRANCH   5  10
BRANCH   9  12
ATOM     12  O   LIG A   1      -5.370   3.956 124.265  0.00  0.00    -0.425 OA
BRANCH  12  13
ATOM     13  C   LIG A   1      -5.747   4.867 125.275  0.00  0.00    +0.309 C 
ATOM     14  C   LIG A   1      -5.637   4.146 126.594  0.00  0.00    +0.136 C 
ATOM     15  O   LIG A   1      -6.093   6.014 125.142  0.00  0.00    -0.251 OA
ENDBRANCH  12  13
ENDBRANCH   9  12
ENDBRANCH   3   4
ENDBRANCH   1   3
BRANCH   1  16
ATOM     16  C   LIG A   1      -7.773  -0.005 123.454  0.00  0.00    +0.008 C 
BRANCH  16  17
ATOM     17  C   LIG A   1      -6.650  -0.974 123.050  0.00  0.00    +0.000 C 
BRANCH  17  18
ATOM     18  C   LIG A   1      -5.862  -1.539 124.243  0.00  0.00    +0.000 C 
BRANCH  18  19
ATOM     19  C   LIG A   1      -6.105  -3.014 124.607  0.00  0.00    -0.000 C 
BRANCH  19  20
ATOM     20  C   LIG A   1      -7.511  -3.547 124.303  0.00  0.00    -0.000 C 
BRANCH  20  21
ATOM     21  C   LIG A   1      -8.372  -3.774 125.562  0.00  0.00    +0.000 C 
BRANCH  21  22
ATOM     22  C   LIG A   1      -9.067  -2.513 126.117  0.00  0.00    +0.000 C 
BRANCH  22  23
ATOM     23  C   LIG A   1      -8.213  -1.897 127.238  0.00  0.00    +0.005 C 
BRANCH  23  24
ATOM     24  C   LIG A   1      -8.217  -2.641 128.581  0.00  0.00    +0.035 C 
BRANCH  24  25
ATOM     25  C   LIG A   1      -6.808  -3.019 129.010  0.00  0.00    -0.047 A 
ATOM     26  C   LIG A   1      -6.597  -3.954 130.034  0.00  0.00    +0.003 A 
ATOM     27  C   LIG A   1      -5.302  -4.350 130.383  0.00  0.00    +0.000 A 
ATOM     28  C   LIG A   1      -4.200  -3.812 129.721  0.00  0.00    +0.000 A 
ATOM     29  C   LIG A   1      -4.392  -2.856 128.727  0.00  0.00    +0.000 A 
ATOM     30  C   LIG A   1      -5.687  -2.460 128.376  0.00  0.00    +0.003 A 
ENDBRANCH  24  25
ENDBRANCH  23  24
ENDBRANCH  22  23
ENDBRANCH  21  22
ENDBRANCH  20  21
ENDBRANCH  19  20
ENDBRANCH  18  19
ENDBRANCH  17  18
ENDBRANCH  16  17
ENDBRANCH   1  16
TORSDOF 15
ENDMDL
MODEL 2
REMARK VINA RESULT:      -7.1      2.171      3.545
REMARK  Name = NuBBE_2166
REMARK  16 active torsions:
REMARK  status: ('A' for Active; 'I' for Inactive)
REMARK    1  A    between atoms: C_2  and  C_3
REMARK    2  A    between atoms: C_2  and  C_14
REMARK    3  A    between atoms: C_4  and  O_5
REMARK    4  A    between atoms: C_9  and  O_10
REMARK    5  A    between atoms: O_10  and  C_11
REMARK    6  A    between atoms: C_11  and  C_12
REMARK    7  A    between atoms: C_14  and  C_15
REMARK    8  A    between atoms: C_15  and  C_16
REMARK    9  A    between atoms: C_16  and  C_17
REMARK   10  A    between atoms: C_17  and  C_18
REMARK   11  A    between atoms: C_18  and  C_19
REMARK   12  A    between atoms: C_19  and  C_20
REMARK   13  A    between atoms: C_20  and  C_21
REMARK   14  A    between atoms: C_21  and  C_22
REMARK   15  A    between atoms: C_22  and  C_23
REMARK   16  A    between atoms: C_23  and  C_24
REMARK                            x       y       z     vdW  Elec       q    Type
REMARK                         _______ _______ _______ _____ _____    ______ ____
ROOT
ATOM      1  C   LIG A   1      -8.089   1.900 128.151  0.00  0.00    +0.080 C 
ENDROOT
BRANCH   1   3
ATOM      2  O   LIG A   1      -8.487   4.292 128.311  0.00  0.00    -0.292 OA
ATOM      3  C   LIG A   1      -7.907   3.368 127.737  0.00  0.00    +0.170 C 
BRANCH   3   4
ATOM      4  C   LIG A   1      -7.031   3.707 126.571  0.00  0.00    +0.101 A 
ATOM      5  C   LIG A   1      -7.608   3.943 125.312  0.00  0.00    +0.131 A 
ATOM      6  C   LIG A   1      -6.815   4.064 124.169  0.00  0.00    +0.046 A 
ATOM      7  C   LIG A   1      -5.430   3.986 124.272  0.00  0.00    +0.007 A 
ATOM      8  C   LIG A   1      -4.834   3.862 125.526  0.00  0.00    +0.047 A 
ATOM      9  C   LIG A   1      -5.629   3.765 126.670  0.00  0.00    +0.146 A 
BRANCH   5  10
ATOM     10  O   LIG A   1      -8.953   4.099 125.111  0.00  0.00    -0.506 OA
ATOM     11  H   LIG A   1      -9.174   3.703 124.240  0.00  0.00    +0.292 HD
ENDBRANCH   5  10
BRANCH   9  12
ATOM     12  O   LIG A   1      -5.068   3.733 127.969  0.00  0.00    -0.425 OA
BRANCH  12  13
ATOM     13  C   LIG A   1      -4.592   4.832 128.718  0.00  0.00    +0.309 C 
ATOM     14  C   LIG A   1      -3.095   4.688 128.821  0.00  0.00    +0.136 C 
ATOM     15  O   LIG A   1      -5.234   5.733 129.195  0.00  0.00    -0.251 OA
ENDBRANCH  12  13
ENDBRANCH   9  12
ENDBRANCH   3   4
ENDBRANCH   1   3
BRANCH   1  16
ATOM     16  C   LIG A   1      -7.751   0.922 127.017  0.00  0.00    +0.008 C 
BRANCH  16  17
ATOM     17  C   LIG A   1      -9.003   0.420 126.280  0.00  0.00    +0.000 C 
BRANCH  17  18
ATOM     18  C   LIG A   1      -8.902   0.520 124.750  0.00  0.00    +0.000 C 
BRANCH  18  19
ATOM     19  C   LIG A   1      -7.533   0.214 124.118  0.00  0.00    -0.000 C 
BRANCH  19  20
ATOM     20  C   LIG A   1      -7.382  -1.189 123.517  0.00  0.00    -0.000 C 
BRANCH  20  21
ATOM     21  C   LIG A   1      -8.641  -1.684 122.778  0.00  0.00    +0.000 C 
BRANCH  21  22
ATOM     22  C   LIG A   1      -9.322  -2.922 123.399  0.00  0.00    +0.000 C 
BRANCH  22  23
ATOM     23  C   LIG A   1      -8.526  -3.395 124.626  0.00  0.00    +0.005 C 
BRANCH  23  24
ATOM     24  C   LIG A   1      -9.267  -3.359 125.971  0.00  0.00    +0.035 C 
BRANCH  24  25
ATOM     25  C   LIG A   1      -8.303  -3.146 127.129  0.00  0.00    -0.047 A 
ATOM     26  C   LIG A   1      -7.046  -2.563 126.917  0.00  0.00    +0.003 A 
ATOM     27  C   LIG A   1      -6.187  -2.307 127.990  0.00  0.00    +0.000 A 
ATOM     28  C   LIG A   1      -6.569  -2.638 129.289  0.00  0.00    +0.000 A 
ATOM     29  C   LIG A   1      -7.800  -3.250 129.511  0.00  0.00    +0.000 A 
ATOM     30  C   LIG A   1      -8.660  -3.505 128.438  0.00  0.00    +0.003 A 
ENDBRANCH  24  25
ENDBRANCH  23  24
ENDBRANCH  22  23
ENDBRANCH  21  22
ENDBRANCH  20  21
ENDBRANCH  19  20
ENDBRANCH  18  19
ENDBRANCH  17  18
ENDBRANCH  16  17
ENDBRANCH   1  16
TORSDOF 15
ENDMDL
MODEL 3
REMARK VINA RESULT:      -6.9      2.962      5.548
REMARK  Name = NuBBE_2166
REMARK  16 active torsions:
REMARK  status: ('A' for Active; 'I' for Inactive)
REMARK    1  A    between atoms: C_2  and  C_3
REMARK    2  A    between atoms: C_2  and  C_14
REMARK    3  A    between atoms: C_4  and  O_5
REMARK    4  A    between atoms: C_9  and  O_10
REMARK    5  A    between atoms: O_10  and  C_11
REMARK    6  A    between atoms: C_11  and  C_12
REMARK    7  A    between atoms: C_14  and  C_15
REMARK    8  A    between atoms: C_15  and  C_16
REMARK    9  A    between atoms: C_16  and  C_17
REMARK   10  A    between atoms: C_17  and  C_18
REMARK   11  A    between atoms: C_18  and  C_19
REMARK   12  A    between atoms: C_19  and  C_20
REMARK   13  A    between atoms: C_20  and  C_21
REMARK   14  A    between atoms: C_21  and  C_22
REMARK   15  A    between atoms: C_22  and  C_23
REMARK   16  A    between atoms: C_23  and  C_24
REMARK                            x       y       z     vdW  Elec       q    Type
REMARK                         _______ _______ _______ _____ _____    ______ ____
ROOT
ATOM      1  C   LIG A   1      -9.670  -3.006 125.798  0.00  0.00    +0.080 C 
ENDROOT
BRANCH   1   3
ATOM      2  O   LIG A   1      -9.474  -2.192 123.517  0.00  0.00    -0.292 OA
ATOM      3  C   LIG A   1      -9.012  -2.213 124.659  0.00  0.00    +0.170 C 
BRANCH   3   4
ATOM      4  C   LIG A   1      -7.740  -1.466 124.914  0.00  0.00    +0.101 A 
ATOM      5  C   LIG A   1      -6.505  -2.084 124.653  0.00  0.00    +0.131 A 
ATOM      6  C   LIG A   1      -5.306  -1.497 125.063  0.00  0.00    +0.046 A 
ATOM      7  C   LIG A   1      -5.321  -0.265 125.709  0.00  0.00    +0.007 A 
ATOM      8  C   LIG A   1      -6.526   0.414 125.879  0.00  0.00    +0.047 A 
ATOM      9  C   LIG A   1      -7.720  -0.165 125.447  0.00  0.00    +0.146 A 
BRANCH   5  10
ATOM     10  O   LIG A   1      -6.377  -3.263 123.969  0.00  0.00    -0.506 OA
ATOM     11  H   LIG A   1      -5.654  -3.778 124.392  0.00  0.00    +0.292 HD
ENDBRANCH   5  10
BRANCH   9  12
ATOM     12  O   LIG A   1      -8.954   0.528 125.514  0.00  0.00    -0.425 OA
BRANCH  12  13
ATOM     13  C   LIG A   1      -9.307   1.704 124.816  0.00  0.00    +0.309 C 
ATOM     14  C   LIG A   1      -9.873   1.282 123.484  0.00  0.00    +0.136 C 
ATOM     15  O   LIG A   1      -9.193   2.845 125.187  0.00  0.00    -0.251 OA
ENDBRANCH  12  13
ENDBRANCH   9  12
ENDBRANCH   3   4
ENDBRANCH   1   3
BRANCH   1  16
ATOM     16  C   LIG A   1      -8.644  -3.713 126.694  0.00  0.00    +0.008 C 
BRANCH  16  17
ATOM     17  C   LIG A   1      -9.164  -3.929 128.125  0.00  0.00    +0.000 C 
BRANCH  17  18
ATOM     18  C   LIG A   1      -8.314  -3.238 129.203  0.00  0.00    +0.000 C 
BRANCH  18  19
ATOM     19  C   LIG A   1      -7.687  -1.881 128.836  0.00  0.00    -0.000 C 
BRANCH  19  20
ATOM     20  C   LIG A   1      -6.229  -1.688 129.271  0.00  0.00    -0.000 C 
BRANCH  20  21
ATOM     21  C   LIG A   1      -5.249  -2.676 128.608  0.00  0.00    +0.000 C 
BRANCH  21  22
ATOM     22  C   LIG A   1      -4.368  -3.482 129.585  0.00  0.00    +0.000 C 
BRANCH  22  23
ATOM     23  C   LIG A   1      -5.244  -4.438 130.412  0.00  0.00    +0.005 C 
BRANCH  23  24
ATOM     24  C   LIG A   1      -4.810  -4.669 131.867  0.00  0.00    +0.035 C 
BRANCH  24  25
ATOM     25  C   LIG A   1      -5.941  -4.368 132.838  0.00  0.00    -0.047 A 
ATOM     26  C   LIG A   1      -6.840  -3.320 132.589  0.00  0.00    +0.003 A 
ATOM     27  C   LIG A   1      -7.918  -3.085 133.448  0.00  0.00    +0.000 A 
ATOM     28  C   LIG A   1      -8.109  -3.887 134.571  0.00  0.00    +0.000 A 
ATOM     29  C   LIG A   1      -7.205  -4.908 134.851  0.00  0.00    +0.000 A 
ATOM     30  C   LIG A   1      -6.127  -5.145 133.993  0.00  0.00    +0.003 A 
ENDBRANCH  24  25
ENDBRANCH  23  24
ENDBRANCH  22  23
ENDBRANCH  21  22
ENDBRANCH  20  21
ENDBRANCH  19  20
ENDBRANCH  18  19
ENDBRANCH  17  18
ENDBRANCH  16  17
ENDBRANCH   1  16
TORSDOF 15
ENDMDL
MODEL 4
REMARK VINA RESULT:      -6.9      2.132      3.907
REMARK  Name = NuBBE_2166
REMARK  16 active torsions:
REMARK  status: ('A' for Active; 'I' for Inactive)
REMARK    1  A    between atoms: C_2  and  C_3
REMARK    2  A    between atoms: C_2  and  C_14
REMARK    3  A    between atoms: C_4  and  O_5
REMARK    4  A    between atoms: C_9  and  O_10
REMARK    5  A    between atoms: O_10  and  C_11
REMARK    6  A    between atoms: C_11  and  C_12
REMARK    7  A    between atoms: C_14  and  C_15
REMARK    8  A    between atoms: C_15  and  C_16
REMARK    9  A    between atoms: C_16  and  C_17
REMARK   10  A    between atoms: C_17  and  C_18
REMARK   11  A    between atoms: C_18  and  C_19
REMARK   12  A    between atoms: C_19  and  C_20
REMARK   13  A    between atoms: C_20  and  C_21
REMARK   14  A    between atoms: C_21  and  C_22
REMARK   15  A    between atoms: C_22  and  C_23
REMARK   16  A    between atoms: C_23  and  C_24
REMARK                            x       y       z     vdW  Elec       q    Type
REMARK                         _______ _______ _______ _____ _____    ______ ____
ROOT
ATOM      1  C   LIG A   1      -7.851   2.390 128.312  0.00  0.00    +0.080 C 
ENDROOT
BRANCH   1   3
ATOM      2  O   LIG A   1      -8.413   4.742 128.071  0.00  0.00    -0.292 OA
ATOM      3  C   LIG A   1      -7.777   3.774 127.650  0.00  0.00    +0.170 C 
BRANCH   3   4
ATOM      4  C   LIG A   1      -6.941   3.966 126.422  0.00  0.00    +0.101 A 
ATOM      5  C   LIG A   1      -7.564   4.105 125.170  0.00  0.00    +0.131 A 
ATOM      6  C   LIG A   1      -6.818   4.086 123.990  0.00  0.00    +0.046 A 
ATOM      7  C   LIG A   1      -5.434   3.960 124.044  0.00  0.00    +0.007 A 
ATOM      8  C   LIG A   1      -4.788   3.930 125.279  0.00  0.00    +0.047 A 
ATOM      9  C   LIG A   1      -5.535   3.974 126.458  0.00  0.00    +0.146 A 
BRANCH   5  10
ATOM     10  O   LIG A   1      -8.910   4.298 125.010  0.00  0.00    -0.506 OA
ATOM     11  H   LIG A   1      -9.268   3.521 124.527  0.00  0.00    +0.292 HD
ENDBRANCH   5  10
BRANCH   9  12
ATOM     12  O   LIG A   1      -4.919   4.041 127.731  0.00  0.00    -0.425 OA
BRANCH  12  13
ATOM     13  C   LIG A   1      -4.304   5.168 128.320  0.00  0.00    +0.309 C 
ATOM     14  C   LIG A   1      -2.814   4.946 128.265  0.00  0.00    +0.136 C 
ATOM     15  O   LIG A   1      -4.840   6.141 128.786  0.00  0.00    -0.251 OA
ENDBRANCH  12  13
ENDBRANCH   9  12
ENDBRANCH   3   4
ENDBRANCH   1   3
BRANCH   1  16
ATOM     16  C   LIG A   1      -7.613   1.246 127.317  0.00  0.00    +0.008 C 
BRANCH  16  17
ATOM     17  C   LIG A   1      -8.904   0.479 126.985  0.00  0.00    +0.000 C 
BRANCH  17  18
ATOM     18  C   LIG A   1      -9.543   0.892 125.650  0.00  0.00    +0.000 C 
BRANCH  18  19
ATOM     19  C   LIG A   1      -9.178   0.055 124.411  0.00  0.00    -0.000 C 
BRANCH  19  20
ATOM     20  C   LIG A   1      -8.166   0.697 123.455  0.00  0.00    -0.000 C 
BRANCH  20  21
ATOM     21  C   LIG A   1      -6.744   0.112 123.576  0.00  0.00    +0.000 C 
BRANCH  21  22
ATOM     22  C   LIG A   1      -6.540  -1.260 122.899  0.00  0.00    +0.000 C 
BRANCH  22  23
ATOM     23  C   LIG A   1      -6.286  -2.337 123.967  0.00  0.00    +0.005 C 
BRANCH  23  24
ATOM     24  C   LIG A   1      -5.926  -1.829 125.370  0.00  0.00    +0.035 C 
BRANCH  24  25
ATOM     25  C   LIG A   1      -6.843  -2.424 126.428  0.00  0.00    -0.047 A 
ATOM     26  C   LIG A   1      -6.523  -2.327 127.790  0.00  0.00    +0.003 A 
ATOM     27  C   LIG A   1      -7.398  -2.817 128.765  0.00  0.00    +0.000 A 
ATOM     28  C   LIG A   1      -8.601  -3.415 128.393  0.00  0.00    +0.000 A 
ATOM     29  C   LIG A   1      -8.916  -3.550 127.044  0.00  0.00    +0.000 A 
ATOM     30  C   LIG A   1      -8.042  -3.060 126.068  0.00  0.00    +0.003 A 
ENDBRANCH  24  25
ENDBRANCH  23  24
ENDBRANCH  22  23
ENDBRANCH  21  22
ENDBRANCH  20  21
ENDBRANCH  19  20
ENDBRANCH  18  19
ENDBRANCH  17  18
ENDBRANCH  16  17
ENDBRANCH   1  16
TORSDOF 15
ENDMDL
MODEL 5
REMARK VINA RESULT:      -6.7      1.528      4.618
REMARK  Name = NuBBE_2166
REMARK  16 active torsions:
REMARK  status: ('A' for Active; 'I' for Inactive)
REMARK    1  A    between atoms: C_2  and  C_3
REMARK    2  A    between atoms: C_2  and  C_14
REMARK    3  A    between atoms: C_4  and  O_5
REMARK    4  A    between atoms: C_9  and  O_10
REMARK    5  A    between atoms: O_10  and  C_11
REMARK    6  A    between atoms: C_11  and  C_12
REMARK    7  A    between atoms: C_14  and  C_15
REMARK    8  A    between atoms: C_15  and  C_16
REMARK    9  A    between atoms: C_16  and  C_17
REMARK   10  A    between atoms: C_17  and  C_18
REMARK   11  A    between atoms: C_18  and  C_19
REMARK   12  A    between atoms: C_19  and  C_20
REMARK   13  A    between atoms: C_20  and  C_21
REMARK   14  A    between atoms: C_21  and  C_22
REMARK   15  A    between atoms: C_22  and  C_23
REMARK   16  A    between atoms: C_23  and  C_24
REMARK                            x       y       z     vdW  Elec       q    Type
REMARK                         _______ _______ _______ _____ _____    ______ ____
ROOT
ATOM      1  C   LIG A   1      -7.386   0.356 126.283  0.00  0.00    +0.080 C 
ENDROOT
BRANCH   1   3
ATOM      2  O   LIG A   1      -8.145   2.600 126.824  0.00  0.00    -0.292 OA
ATOM      3  C   LIG A   1      -7.519   1.869 126.055  0.00  0.00    +0.170 C 
BRANCH   3   4
ATOM      4  C   LIG A   1      -6.906   2.493 124.839  0.00  0.00    +0.101 A 
ATOM      5  C   LIG A   1      -5.838   3.395 124.982  0.00  0.00    +0.131 A 
ATOM      6  C   LIG A   1      -5.378   4.142 123.896  0.00  0.00    +0.046 A 
ATOM      7  C   LIG A   1      -5.955   3.974 122.641  0.00  0.00    +0.007 A 
ATOM      8  C   LIG A   1      -6.941   3.006 122.456  0.00  0.00    +0.047 A 
ATOM      9  C   LIG A   1      -7.383   2.244 123.540  0.00  0.00    +0.146 A 
BRANCH   5  10
ATOM     10  O   LIG A   1      -5.161   3.588 126.156  0.00  0.00    -0.506 OA
ATOM     11  H   LIG A   1      -4.386   4.160 125.964  0.00  0.00    +0.292 HD
ENDBRANCH   5  10
BRANCH   9  12
ATOM     12  O   LIG A   1      -8.313   1.188 123.380  0.00  0.00    -0.425 OA
BRANCH  12  13
ATOM     13  C   LIG A   1      -9.718   1.269 123.492  0.00  0.00    +0.309 C 
ATOM     14  C   LIG A   1     -10.305   0.495 122.339  0.00  0.00    +0.136 C 
ATOM     15  O   LIG A   1     -10.359   1.838 124.339  0.00  0.00    -0.251 OA
ENDBRANCH  12  13
ENDBRANCH   9  12
ENDBRANCH   3   4
ENDBRANCH   1   3
BRANCH   1  16
ATOM     16  C   LIG A   1      -7.106   0.003 127.750  0.00  0.00    +0.008 C 
BRANCH  16  17
ATOM     17  C   LIG A   1      -5.603  -0.115 128.050  0.00  0.00    +0.000 C 
BRANCH  17  18
ATOM     18  C   LIG A   1      -5.246  -1.289 128.974  0.00  0.00    +0.000 C 
BRANCH  18  19
ATOM     19  C   LIG A   1      -5.701  -2.691 128.532  0.00  0.00    -0.000 C 
BRANCH  19  20
ATOM     20  C   LIG A   1      -6.678  -3.398 129.481  0.00  0.00    -0.000 C 
BRANCH  20  21
ATOM     21  C   LIG A   1      -8.150  -2.988 129.271  0.00  0.00    +0.000 C 
BRANCH  21  22
ATOM     22  C   LIG A   1      -8.934  -3.853 128.261  0.00  0.00    +0.000 C 
BRANCH  22  23
ATOM     23  C   LIG A   1      -8.898  -3.195 126.872  0.00  0.00    +0.005 C 
BRANCH  23  24
ATOM     24  C   LIG A   1      -8.365  -4.063 125.723  0.00  0.00    +0.035 C 
BRANCH  24  25
ATOM     25  C   LIG A   1      -7.605  -3.229 124.704  0.00  0.00    -0.047 A 
ATOM     26  C   LIG A   1      -8.243  -2.753 123.549  0.00  0.00    +0.003 A 
ATOM     27  C   LIG A   1      -7.562  -1.931 122.645  0.00  0.00    +0.000 A 
ATOM     28  C   LIG A   1      -6.233  -1.580 122.877  0.00  0.00    +0.000 A 
ATOM     29  C   LIG A   1      -5.576  -2.074 124.001  0.00  0.00    +0.000 A 
ATOM     30  C   LIG A   1      -6.256  -2.895 124.906  0.00  0.00    +0.003 A 
ENDBRANCH  24  25
ENDBRANCH  23  24
ENDBRANCH  22  23
ENDBRANCH  21  22
ENDBRANCH  20  21
ENDBRANCH  19  20
ENDBRANCH  18  19
ENDBRANCH  17  18
ENDBRANCH  16  17
ENDBRANCH   1  16
TORSDOF 15
ENDMDL
MODEL 6
REMARK VINA RESULT:      -6.7      5.295      7.840
REMARK  Name = NuBBE_2166
REMARK  16 active torsions:
REMARK  status: ('A' for Active; 'I' for Inactive)
REMARK    1  A    between atoms: C_2  and  C_3
REMARK    2  A    between atoms: C_2  and  C_14
REMARK    3  A    between atoms: C_4  and  O_5
REMARK    4  A    between atoms: C_9  and  O_10
REMARK    5  A    between atoms: O_10  and  C_11
REMARK    6  A    between atoms: C_11  and  C_12
REMARK    7  A    between atoms: C_14  and  C_15
REMARK    8  A    between atoms: C_15  and  C_16
REMARK    9  A    between atoms: C_16  and  C_17
REMARK   10  A    between atoms: C_17  and  C_18
REMARK   11  A    between atoms: C_18  and  C_19
REMARK   12  A    between atoms: C_19  and  C_20
REMARK   13  A    between atoms: C_20  and  C_21
REMARK   14  A    between atoms: C_21  and  C_22
REMARK   15  A    between atoms: C_22  and  C_23
REMARK   16  A    between atoms: C_23  and  C_24
REMARK                            x       y       z     vdW  Elec       q    Type
REMARK                         _______ _______ _______ _____ _____    ______ ____
ROOT
ATOM      1  C   LIG A   1      -9.314   4.370 129.554  0.00  0.00    +0.080 C 
ENDROOT
BRANCH   1   3
ATOM      2  O   LIG A   1      -8.183   6.140 130.777  0.00  0.00    -0.292 OA
ATOM      3  C   LIG A   1      -9.228   5.725 130.273  0.00  0.00    +0.170 C 
BRANCH   3   4
ATOM      4  C   LIG A   1     -10.457   6.570 130.413  0.00  0.00    +0.101 A 
ATOM      5  C   LIG A   1     -11.197   6.529 131.608  0.00  0.00    +0.131 A 
ATOM      6  C   LIG A   1     -12.447   7.144 131.700  0.00  0.00    +0.046 A 
ATOM      7  C   LIG A   1     -12.962   7.840 130.611  0.00  0.00    +0.007 A 
ATOM      8  C   LIG A   1     -12.196   7.984 129.455  0.00  0.00    +0.047 A 
ATOM      9  C   LIG A   1     -10.936   7.387 129.375  0.00  0.00    +0.146 A 
BRANCH   5  10
ATOM     10  O   LIG A   1     -10.753   5.927 132.754  0.00  0.00    -0.506 OA
ATOM     11  H   LIG A   1     -11.066   4.995 132.744  0.00  0.00    +0.292 HD
ENDBRANCH   5  10
BRANCH   9  12
ATOM     12  O   LIG A   1     -10.086   7.585 128.259  0.00  0.00    -0.425 OA
BRANCH  12  13
ATOM     13  C   LIG A   1     -10.215   7.006 126.978  0.00  0.00    +0.309 C 
ATOM     14  C   LIG A   1     -11.337   7.724 126.273  0.00  0.00    +0.136 C 
ATOM     15  O   LIG A   1      -9.567   6.107 126.506  0.00  0.00    -0.251 OA
ENDBRANCH  12  13
ENDBRANCH   9  12
ENDBRANCH   3   4
ENDBRANCH   1   3
BRANCH   1  16
ATOM     16  C   LIG A   1     -10.024   3.300 130.395  0.00  0.00    +0.008 C 
BRANCH  16  17
ATOM     17  C   LIG A   1      -9.125   2.736 131.508  0.00  0.00    +0.000 C 
BRANCH  17  18
ATOM     18  C   LIG A   1      -9.670   1.451 132.150  0.00  0.00    +0.000 C 
BRANCH  18  19
ATOM     19  C   LIG A   1      -9.098   0.116 131.641  0.00  0.00    -0.000 C 
BRANCH  19  20
ATOM     20  C   LIG A   1      -7.872   0.230 130.726  0.00  0.00    -0.000 C 
BRANCH  20  21
ATOM     21  C   LIG A   1      -7.894  -0.754 129.538  0.00  0.00    +0.000 C 
BRANCH  21  22
ATOM     22  C   LIG A   1      -6.593  -1.556 129.327  0.00  0.00    +0.000 C 
BRANCH  22  23
ATOM     23  C   LIG A   1      -6.832  -2.679 128.303  0.00  0.00    +0.005 C 
BRANCH  23  24
ATOM     24  C   LIG A   1      -8.292  -2.925 127.895  0.00  0.00    +0.035 C 
BRANCH  24  25
ATOM     25  C   LIG A   1      -8.501  -2.680 126.409  0.00  0.00    -0.047 A 
ATOM     26  C   LIG A   1      -8.818  -1.400 125.932  0.00  0.00    +0.003 A 
ATOM     27  C   LIG A   1      -8.946  -1.161 124.560  0.00  0.00    +0.000 A 
ATOM     28  C   LIG A   1      -8.768  -2.198 123.646  0.00  0.00    +0.000 A 
ATOM     29  C   LIG A   1      -8.488  -3.482 124.107  0.00  0.00    +0.000 A 
ATOM     30  C   LIG A   1      -8.359  -3.722 125.479  0.00  0.00    +0.003 A 
ENDBRANCH  24  25
ENDBRANCH  23  24
ENDBRANCH  22  23
ENDBRANCH  21  22
ENDBRANCH  20  21
ENDBRANCH  19  20
ENDBRANCH  18  19
ENDBRANCH  17  18
ENDBRANCH  16  17
ENDBRANCH   1  16
TORSDOF 15
ENDMDL
MODEL 7
REMARK VINA RESULT:      -6.7      1.688      4.096
REMARK  Name = NuBBE_2166
REMARK  16 active torsions:
REMARK  status: ('A' for Active; 'I' for Inactive)
REMARK    1  A    between atoms: C_2  and  C_3
REMARK    2  A    between atoms: C_2  and  C_14
REMARK    3  A    between atoms: C_4  and  O_5
REMARK    4  A    between atoms: C_9  and  O_10
REMARK    5  A    between atoms: O_10  and  C_11
REMARK    6  A    between atoms: C_11  and  C_12
REMARK    7  A    between atoms: C_14  and  C_15
REMARK    8  A    between atoms: C_15  and  C_16
REMARK    9  A    between atoms: C_16  and  C_17
REMARK   10  A    between atoms: C_17  and  C_18
REMARK   11  A    between atoms: C_18  and  C_19
REMARK   12  A    between atoms: C_19  and  C_20
REMARK   13  A    between atoms: C_20  and  C_21
REMARK   14  A    between atoms: C_21  and  C_22
REMARK   15  A    between atoms: C_22  and  C_23
REMARK   16  A    between atoms: C_23  and  C_24
REMARK                            x       y       z     vdW  Elec       q    Type
REMARK                         _______ _______ _______ _____ _____    ______ ____
ROOT
ATOM      1  C   LIG A   1      -7.869   2.781 127.242  0.00  0.00    +0.080 C 
ENDROOT
BRANCH   1   3
ATOM      2  O   LIG A   1      -8.488   5.082 126.762  0.00  0.00    -0.292 OA
ATOM      3  C   LIG A   1      -7.928   4.053 126.382  0.00  0.00    +0.170 C 
BRANCH   3   4
ATOM      4  C   LIG A   1      -7.324   4.049 125.011  0.00  0.00    +0.101 A 
ATOM      5  C   LIG A   1      -8.000   3.416 123.954  0.00  0.00    +0.131 A 
ATOM      6  C   LIG A   1      -7.380   3.221 122.719  0.00  0.00    +0.046 A 
ATOM      7  C   LIG A   1      -6.086   3.688 122.509  0.00  0.00    +0.007 A 
ATOM      8  C   LIG A   1      -5.441   4.413 123.508  0.00  0.00    +0.047 A 
ATOM      9  C   LIG A   1      -6.073   4.627 124.734  0.00  0.00    +0.146 A 
BRANCH   5  10
ATOM     10  O   LIG A   1      -9.295   2.978 124.037  0.00  0.00    -0.506 OA
ATOM     11  H   LIG A   1      -9.856   3.747 124.281  0.00  0.00    +0.292 HD
ENDBRANCH   5  10
BRANCH   9  12
ATOM     12  O   LIG A   1      -5.494   5.437 125.742  0.00  0.00    -0.425 OA
BRANCH  12  13
ATOM     13  C   LIG A   1      -4.795   4.999 126.887  0.00  0.00    +0.309 C 
ATOM     14  C   LIG A   1      -3.701   4.074 126.418  0.00  0.00    +0.136 C 
ATOM     15  O   LIG A   1      -5.004   5.292 128.037  0.00  0.00    -0.251 OA
ENDBRANCH  12  13
ENDBRANCH   9  12
ENDBRANCH   3   4
ENDBRANCH   1   3
BRANCH   1  16
ATOM     16  C   LIG A   1      -6.621   1.934 126.958  0.00  0.00    +0.008 C 
BRANCH  16  17
ATOM     17  C   LIG A   1      -6.905   0.780 125.983  0.00  0.00    +0.000 C 
BRANCH  17  18
ATOM     18  C   LIG A   1      -8.357   0.279 126.024  0.00  0.00    +0.000 C 
BRANCH  18  19
ATOM     19  C   LIG A   1      -8.628  -1.018 126.807  0.00  0.00    -0.000 C 
BRANCH  19  20
ATOM     20  C   LIG A   1      -7.663  -1.305 127.964  0.00  0.00    -0.000 C 
BRANCH  20  21
ATOM     21  C   LIG A   1      -6.816  -2.577 127.762  0.00  0.00    +0.000 C 
BRANCH  21  22
ATOM     22  C   LIG A   1      -5.340  -2.331 127.386  0.00  0.00    +0.000 C 
BRANCH  22  23
ATOM     23  C   LIG A   1      -5.231  -1.997 125.889  0.00  0.00    +0.005 C 
BRANCH  23  24
ATOM     24  C   LIG A   1      -5.527  -3.147 124.915  0.00  0.00    +0.035 C 
BRANCH  24  25
ATOM     25  C   LIG A   1      -6.864  -2.952 124.216  0.00  0.00    -0.047 A 
ATOM     26  C   LIG A   1      -7.974  -3.737 124.561  0.00  0.00    +0.003 A 
ATOM     27  C   LIG A   1      -9.219  -3.513 123.966  0.00  0.00    +0.000 A 
ATOM     28  C   LIG A   1      -9.372  -2.508 123.012  0.00  0.00    +0.000 A 
ATOM     29  C   LIG A   1      -8.271  -1.744 122.634  0.00  0.00    +0.000 A 
ATOM     30  C   LIG A   1      -7.026  -1.966 123.229  0.00  0.00    +0.003 A 
ENDBRANCH  24  25
ENDBRANCH  23  24
ENDBRANCH  22  23
ENDBRANCH  21  22
ENDBRANCH  20  21
ENDBRANCH  19  20
ENDBRANCH  18  19
ENDBRANCH  17  18
ENDBRANCH  16  17
ENDBRANCH   1  16
TORSDOF 15
ENDMDL
MODEL 8
REMARK VINA RESULT:      -6.6      5.644      8.930
REMARK  Name = NuBBE_2166
REMARK  16 active torsions:
REMARK  status: ('A' for Active; 'I' for Inactive)
REMARK    1  A    between atoms: C_2  and  C_3
REMARK    2  A    between atoms: C_2  and  C_14
REMARK    3  A    between atoms: C_4  and  O_5
REMARK    4  A    between atoms: C_9  and  O_10
REMARK    5  A    between atoms: O_10  and  C_11
REMARK    6  A    between atoms: C_11  and  C_12
REMARK    7  A    between atoms: C_14  and  C_15
REMARK    8  A    between atoms: C_15  and  C_16
REMARK    9  A    between atoms: C_16  and  C_17
REMARK   10  A    between atoms: C_17  and  C_18
REMARK   11  A    between atoms: C_18  and  C_19
REMARK   12  A    between atoms: C_19  and  C_20
REMARK   13  A    between atoms: C_20  and  C_21
REMARK   14  A    between atoms: C_21  and  C_22
REMARK   15  A    between atoms: C_22  and  C_23
REMARK   16  A    between atoms: C_23  and  C_24
REMARK                            x       y       z     vdW  Elec       q    Type
REMARK                         _______ _______ _______ _____ _____    ______ ____
ROOT
ATOM      1  C   LIG A   1      -7.066   3.548 129.921  0.00  0.00    +0.080 C 
ENDROOT
BRANCH   1   3
ATOM      2  O   LIG A   1      -7.418   4.784 127.859  0.00  0.00    -0.292 OA
ATOM      3  C   LIG A   1      -6.629   4.190 128.595  0.00  0.00    +0.170 C 
BRANCH   3   4
ATOM      4  C   LIG A   1      -5.207   4.064 128.143  0.00  0.00    +0.101 A 
ATOM      5  C   LIG A   1      -4.889   3.202 127.079  0.00  0.00    +0.131 A 
ATOM      6  C   LIG A   1      -3.560   2.910 126.763  0.00  0.00    +0.046 A 
ATOM      7  C   LIG A   1      -2.528   3.502 127.484  0.00  0.00    +0.007 A 
ATOM      8  C   LIG A   1      -2.821   4.442 128.470  0.00  0.00    +0.047 A 
ATOM      9  C   LIG A   1      -4.151   4.750 128.767  0.00  0.00    +0.146 A 
BRANCH   5  10
ATOM     10  O   LIG A   1      -5.826   2.619 126.269  0.00  0.00    -0.506 OA
ATOM     11  H   LIG A   1      -5.482   2.642 125.349  0.00  0.00    +0.292 HD
ENDBRANCH   5  10
BRANCH   9  12
ATOM     12  O   LIG A   1      -4.493   5.765 129.693  0.00  0.00    -0.425 OA
BRANCH  12  13
ATOM     13  C   LIG A   1      -4.060   7.109 129.680  0.00  0.00    +0.309 C 
ATOM     14  C   LIG A   1      -3.695   7.476 131.095  0.00  0.00    +0.136 C 
ATOM     15  O   LIG A   1      -3.983   7.850 128.733  0.00  0.00    -0.251 OA
ENDBRANCH  12  13
ENDBRANCH   9  12
ENDBRANCH   3   4
ENDBRANCH   1   3
BRANCH   1  16
ATOM     16  C   LIG A   1      -8.147   2.475 129.729  0.00  0.00    +0.008 C 
BRANCH  16  17
ATOM     17  C   LIG A   1      -9.561   3.008 130.010  0.00  0.00    +0.000 C 
BRANCH  17  18
ATOM     18  C   LIG A   1     -10.104   2.620 131.395  0.00  0.00    +0.000 C 
BRANCH  18  19
ATOM     19  C   LIG A   1      -9.180   1.787 132.300  0.00  0.00    -0.000 C 
BRANCH  19  20
ATOM     20  C   LIG A   1      -8.400   2.580 133.357  0.00  0.00    -0.000 C 
BRANCH  20  21
ATOM     21  C   LIG A   1      -9.095   3.889 133.785  0.00  0.00    +0.000 C 
BRANCH  21  22
ATOM     22  C   LIG A   1      -8.412   5.184 133.298  0.00  0.00    +0.000 C 
BRANCH  22  23
ATOM     23  C   LIG A   1      -9.440   6.081 132.588  0.00  0.00    +0.005 C 
BRANCH  23  24
ATOM     24  C   LIG A   1      -9.111   6.476 131.141  0.00  0.00    +0.035 C 
BRANCH  24  25
ATOM     25  C   LIG A   1     -10.328   7.053 130.433  0.00  0.00    -0.047 A 
ATOM     26  C   LIG A   1     -11.619   6.840 130.939  0.00  0.00    +0.003 A 
ATOM     27  C   LIG A   1     -12.731   7.424 130.325  0.00  0.00    +0.000 A 
ATOM     28  C   LIG A   1     -12.571   8.223 129.194  0.00  0.00    +0.000 A 
ATOM     29  C   LIG A   1     -11.299   8.414 128.660  0.00  0.00    +0.000 A 
ATOM     30  C   LIG A   1     -10.186   7.831 129.273  0.00  0.00    +0.003 A 
ENDBRANCH  24  25
ENDBRANCH  23  24
ENDBRANCH  22  23
ENDBRANCH  21  22
ENDBRANCH  20  21
ENDBRANCH  19  20
ENDBRANCH  18  19
ENDBRANCH  17  18
ENDBRANCH  16  17
ENDBRANCH   1  16
TORSDOF 15
ENDMDL
MODEL 9
REMARK VINA RESULT:      -6.6      2.940      5.882
REMARK  Name = NuBBE_2166
REMARK  16 active torsions:
REMARK  status: ('A' for Active; 'I' for Inactive)
REMARK    1  A    between atoms: C_2  and  C_3
REMARK    2  A    between atoms: C_2  and  C_14
REMARK    3  A    between atoms: C_4  and  O_5
REMARK    4  A    between atoms: C_9  and  O_10
REMARK    5  A    between atoms: O_10  and  C_11
REMARK    6  A    between atoms: C_11  and  C_12
REMARK    7  A    between atoms: C_14  and  C_15
REMARK    8  A    between atoms: C_15  and  C_16
REMARK    9  A    between atoms: C_16  and  C_17
REMARK   10  A    between atoms: C_17  and  C_18
REMARK   11  A    between atoms: C_18  and  C_19
REMARK   12  A    between atoms: C_19  and  C_20
REMARK   13  A    between atoms: C_20  and  C_21
REMARK   14  A    between atoms: C_21  and  C_22
REMARK   15  A    between atoms: C_22  and  C_23
REMARK   16  A    between atoms: C_23  and  C_24
REMARK                            x       y       z     vdW  Elec       q    Type
REMARK                         _______ _______ _______ _____ _____    ______ ____
ROOT
ATOM      1  C   LIG A   1      -9.853  -3.044 125.787  0.00  0.00    +0.080 C 
ENDROOT
BRANCH   1   3
ATOM      2  O   LIG A   1     -10.057  -3.461 123.401  0.00  0.00    -0.292 OA
ATOM      3  C   LIG A   1      -9.338  -3.120 124.341  0.00  0.00    +0.170 C 
BRANCH   3   4
ATOM      4  C   LIG A   1      -7.901  -2.813 124.049  0.00  0.00    +0.101 A 
ATOM      5  C   LIG A   1      -6.919  -3.790 124.282  0.00  0.00    +0.131 A 
ATOM      6  C   LIG A   1      -5.561  -3.475 124.211  0.00  0.00    +0.046 A 
ATOM      7  C   LIG A   1      -5.162  -2.186 123.871  0.00  0.00    +0.007 A 
ATOM      8  C   LIG A   1      -6.119  -1.232 123.530  0.00  0.00    +0.047 A 
ATOM      9  C   LIG A   1      -7.477  -1.557 123.579  0.00  0.00    +0.146 A 
BRANCH   5  10
ATOM     10  O   LIG A   1      -7.204  -5.100 124.560  0.00  0.00    -0.506 OA
ATOM     11  H   LIG A   1      -7.471  -5.534 123.719  0.00  0.00    +0.292 HD
ENDBRANCH   5  10
BRANCH   9  12
ATOM     12  O   LIG A   1      -8.478  -0.651 123.152  0.00  0.00    -0.425 OA
BRANCH  12  13
ATOM     13  C   LIG A   1      -8.683   0.668 123.613  0.00  0.00    +0.309 C 
ATOM     14  C   LIG A   1      -9.272   0.572 124.997  0.00  0.00    +0.136 C 
ATOM     15  O   LIG A   1      -8.442   1.697 123.035  0.00  0.00    -0.251 OA
ENDBRANCH  12  13
ENDBRANCH   9  12
ENDBRANCH   3   4
ENDBRANCH   1   3
BRANCH   1  16
ATOM     16  C   LIG A   1      -8.733  -2.762 126.798  0.00  0.00    +0.008 C 
BRANCH  16  17
ATOM     17  C   LIG A   1      -8.715  -3.777 127.952  0.00  0.00    +0.000 C 
BRANCH  17  18
ATOM     18  C   LIG A   1      -8.546  -3.135 129.338  0.00  0.00    +0.000 C 
BRANCH  18  19
ATOM     19  C   LIG A   1      -7.319  -3.563 130.163  0.00  0.00    -0.000 C 
BRANCH  19  20
ATOM     20  C   LIG A   1      -7.217  -2.945 131.563  0.00  0.00    -0.000 C 
BRANCH  20  21
ATOM     21  C   LIG A   1      -6.068  -3.526 132.412  0.00  0.00    +0.000 C 
BRANCH  21  22
ATOM     22  C   LIG A   1      -5.119  -4.485 131.664  0.00  0.00    +0.000 C 
BRANCH  22  23
ATOM     23  C   LIG A   1      -3.807  -3.760 131.323  0.00  0.00    +0.005 C 
BRANCH  23  24
ATOM     24  C   LIG A   1      -3.497  -3.585 129.829  0.00  0.00    +0.035 C 
BRANCH  24  25
ATOM     25  C   LIG A   1      -4.245  -2.397 129.243  0.00  0.00    -0.047 A 
ATOM     26  C   LIG A   1      -4.859  -2.486 127.986  0.00  0.00    +0.003 A 
ATOM     27  C   LIG A   1      -5.602  -1.417 127.476  0.00  0.00    +0.000 A 
ATOM     28  C   LIG A   1      -5.736  -0.241 128.211  0.00  0.00    +0.000 A 
ATOM     29  C   LIG A   1      -5.102  -0.124 129.446  0.00  0.00    +0.000 A 
ATOM     30  C   LIG A   1      -4.359  -1.193 129.957  0.00  0.00    +0.003 A 
ENDBRANCH  24  25
ENDBRANCH  23  24
ENDBRANCH  22  23
ENDBRANCH  21  22
ENDBRANCH  20  21
ENDBRANCH  19  20
ENDBRANCH  18  19
ENDBRANCH  17  18
ENDBRANCH  16  17
ENDBRANCH   1  16
TORSDOF 15
ENDMDL
