MODEL 1
REMARK VINA RESULT:      -9.3      0.000      0.000
REMARK  Name = NuBBE_1555
REMARK  14 active torsions:
REMARK  status: ('A' for Active; 'I' for Inactive)
REMARK    1  A    between atoms: C_1  and  C_2
REMARK    2  A    between atoms: C_3  and  C_4
REMARK    3  A    between atoms: C_9  and  C_10
REMARK    4  A    between atoms: C_13  and  O_15
REMARK    5  A    between atoms: C_16  and  C_17
REMARK    6  A    between atoms: C_16  and  C_18
REMARK    7  A    between atoms: C_24  and  C_25
REMARK    8  A    between atoms: C_25  and  O_26
REMARK    9  A    between atoms: C_25  and  C_27
REMARK   10  A    between atoms: C_25  and  C_28
REMARK   11  A    between atoms: C_28  and  C_29
REMARK   12  A    between atoms: C_29  and  C_30
REMARK   13  A    between atoms: C_31  and  C_32
REMARK   14  A    between atoms: C_31  and  C_33
REMARK                            x       y       z     vdW  Elec       q    Type
REMARK                         _______ _______ _______ _____ _____    ______ ____
ROOT
ATOM      1  C   LIG A   1      -5.163   0.382 125.484  0.00  0.00    +0.012 C 
ATOM      2  C   LIG A   1      -6.520  -0.383 125.444  0.00  0.00    -0.023 C 
ATOM      3  C   LIG A   1      -6.646  -1.547 126.605  0.00  0.00    -0.023 C 
ATOM      4  C   LIG A   1      -7.272  -2.848 126.029  0.00  0.00    +0.012 C 
ATOM      5  C   LIG A   1      -5.221  -1.931 127.108  0.00  0.00    +0.008 C 
ATOM      6  C   LIG A   1      -5.155  -2.822 128.345  0.00  0.00    +0.005 C 
ATOM      7  C   LIG A   1      -5.882  -2.164 129.531  0.00  0.00    +0.003 C 
ATOM      8  C   LIG A   1      -7.396  -1.934 129.200  0.00  0.00    -0.025 C 
ATOM      9  C   LIG A   1      -8.199  -3.259 129.026  0.00  0.00    +0.012 C 
ATOM     10  C   LIG A   1      -8.040  -1.197 130.417  0.00  0.00    +0.010 C 
ATOM     11  C   LIG A   1      -7.816  -1.880 131.764  0.00  0.00    +0.032 C 
ATOM     12  C   LIG A   1      -6.328  -2.061 132.047  0.00  0.00    +0.120 C 
ATOM     13  C   LIG A   1      -5.567  -2.829 130.927  0.00  0.00    -0.006 C 
ATOM     14  C   LIG A   1      -5.878  -4.341 130.981  0.00  0.00    +0.014 C 
ATOM     15  C   LIG A   1      -4.049  -2.694 131.237  0.00  0.00    +0.014 C 
ATOM     16  C   LIG A   1      -7.542  -1.077 127.840  0.00  0.00    +0.002 C 
ATOM     17  C   LIG A   1      -7.371   0.437 128.033  0.00  0.00    +0.005 C 
ATOM     18  C   LIG A   1      -8.000   1.199 126.874  0.00  0.00    +0.005 C 
ATOM     19  C   LIG A   1      -7.646   0.687 125.480  0.00  0.00    +0.001 C 
ATOM     20  C   LIG A   1      -8.841   0.110 124.664  0.00  0.00    +0.024 C 
ATOM     21  C   LIG A   1      -8.186  -0.912 123.704  0.00  0.00    +0.007 C 
ATOM     22  C   LIG A   1      -6.687  -0.873 123.984  0.00  0.00    +0.008 C 
ENDROOT
BRANCH  12  23
ATOM     23  O   LIG A   1      -6.177  -2.720 133.304  0.00  0.00    -0.391 OA
ATOM     24  H   LIG A   1      -5.820  -3.607 133.129  0.00  0.00    +0.210 HD
ENDBRANCH  12  23
BRANCH  20  25
ATOM     25  C   LIG A   1      -9.695   1.189 123.912  0.00  0.00    +0.067 C 
ATOM     26  C   LIG A   1     -10.187   0.711 122.540  0.00  0.00    +0.041 C 
BRANCH  25  27
ATOM     27  O   LIG A   1     -10.899   1.438 124.662  0.00  0.00    -0.389 OA
ATOM     28  H   LIG A   1     -11.565   1.820 124.066  0.00  0.00    +0.210 HD
ENDBRANCH  25  27
BRANCH  25  29
ATOM     29  C   LIG A   1      -8.970   2.548 123.753  0.00  0.00    +0.039 C 
BRANCH  29  30
ATOM     30  C   LIG A   1      -8.645   2.960 122.317  0.00  0.00    +0.030 C 
BRANCH  30  31
ATOM     31  C   LIG A   1      -7.167   3.172 122.149  0.00  0.00    -0.028 C 
ATOM     32  C   LIG A   1      -6.546   3.688 121.070  0.00  0.00    -0.080 C 
ATOM     33  C   LIG A   1      -7.237   4.137 119.813  0.00  0.00    +0.038 C 
ATOM     34  C   LIG A   1      -5.045   3.831 121.037  0.00  0.00    +0.038 C 
ENDBRANCH  30  31
ENDBRANCH  29  30
ENDBRANCH  25  29
ENDBRANCH  20  25
TORSDOF 6
ENDMDL
MODEL 2
REMARK VINA RESULT:      -8.8      3.103      5.502
REMARK  Name = NuBBE_1555
REMARK  14 active torsions:
REMARK  status: ('A' for Active; 'I' for Inactive)
REMARK    1  A    between atoms: C_1  and  C_2
REMARK    2  A    between atoms: C_3  and  C_4
REMARK    3  A    between atoms: C_9  and  C_10
REMARK    4  A    between atoms: C_13  and  O_15
REMARK    5  A    between atoms: C_16  and  C_17
REMARK    6  A    between atoms: C_16  and  C_18
REMARK    7  A    between atoms: C_24  and  C_25
REMARK    8  A    between atoms: C_25  and  O_26
REMARK    9  A    between atoms: C_25  and  C_27
REMARK   10  A    between atoms: C_25  and  C_28
REMARK   11  A    between atoms: C_28  and  C_29
REMARK   12  A    between atoms: C_29  and  C_30
REMARK   13  A    between atoms: C_31  and  C_32
REMARK   14  A    between atoms: C_31  and  C_33
REMARK                            x       y       z     vdW  Elec       q    Type
REMARK                         _______ _______ _______ _____ _____    ______ ____
ROOT
ATOM      1  C   LIG A   1      -5.109  -2.043 127.881  0.00  0.00    +0.012 C 
ATOM      2  C   LIG A   1      -6.490  -1.442 127.485  0.00  0.00    -0.023 C 
ATOM      3  C   LIG A   1      -6.687   0.119 127.982  0.00  0.00    -0.023 C 
ATOM      4  C   LIG A   1      -8.108   0.345 128.569  0.00  0.00    +0.012 C 
ATOM      5  C   LIG A   1      -5.682   0.424 129.134  0.00  0.00    +0.008 C 
ATOM      6  C   LIG A   1      -5.559   1.885 129.557  0.00  0.00    +0.005 C 
ATOM      7  C   LIG A   1      -5.149   2.767 128.365  0.00  0.00    +0.003 C 
ATOM      8  C   LIG A   1      -6.223   2.699 127.225  0.00  0.00    -0.025 C 
ATOM      9  C   LIG A   1      -7.593   3.321 127.629  0.00  0.00    +0.012 C 
ATOM     10  C   LIG A   1      -5.696   3.553 126.029  0.00  0.00    +0.010 C 
ATOM     11  C   LIG A   1      -5.298   4.982 126.395  0.00  0.00    +0.032 C 
ATOM     12  C   LIG A   1      -4.238   4.991 127.492  0.00  0.00    +0.120 C 
ATOM     13  C   LIG A   1      -4.656   4.210 128.772  0.00  0.00    -0.006 C 
ATOM     14  C   LIG A   1      -5.685   5.009 129.600  0.00  0.00    +0.014 C 
ATOM     15  C   LIG A   1      -3.387   4.092 129.664  0.00  0.00    +0.014 C 
ATOM     16  C   LIG A   1      -6.476   1.164 126.794  0.00  0.00    +0.002 C 
ATOM     17  C   LIG A   1      -5.428   0.606 125.819  0.00  0.00    +0.005 C 
ATOM     18  C   LIG A   1      -5.976  -0.608 125.082  0.00  0.00    +0.005 C 
ATOM     19  C   LIG A   1      -6.659  -1.656 125.956  0.00  0.00    +0.001 C 
ATOM     20  C   LIG A   1      -8.183  -1.845 125.694  0.00  0.00    +0.024 C 
ATOM     21  C   LIG A   1      -8.740  -2.351 127.046  0.00  0.00    +0.007 C 
ATOM     22  C   LIG A   1      -7.553  -2.446 127.998  0.00  0.00    +0.008 C 
ENDROOT
BRANCH  12  23
ATOM     23  O   LIG A   1      -3.919   6.346 127.809  0.00  0.00    -0.391 OA
ATOM     24  H   LIG A   1      -2.966   6.465 127.662  0.00  0.00    +0.210 HD
ENDBRANCH  12  23
BRANCH  20  25
ATOM     25  C   LIG A   1      -8.522  -2.804 124.500  0.00  0.00    +0.067 C 
ATOM     26  C   LIG A   1      -7.650  -4.066 124.480  0.00  0.00    +0.041 C 
BRANCH  25  27
ATOM     27  O   LIG A   1      -9.866  -3.295 124.661  0.00  0.00    -0.389 OA
ATOM     28  H   LIG A   1      -9.828  -4.187 125.045  0.00  0.00    +0.210 HD
ENDBRANCH  25  27
BRANCH  25  29
ATOM     29  C   LIG A   1      -8.455  -2.112 123.116  0.00  0.00    +0.039 C 
BRANCH  29  30
ATOM     30  C   LIG A   1      -9.513  -1.038 122.862  0.00  0.00    +0.030 C 
BRANCH  30  31
ATOM     31  C   LIG A   1      -8.900   0.333 122.920  0.00  0.00    -0.028 C 
ATOM     32  C   LIG A   1      -9.047   1.239 123.907  0.00  0.00    -0.080 C 
ATOM     33  C   LIG A   1      -9.880   1.039 125.141  0.00  0.00    +0.038 C 
ATOM     34  C   LIG A   1      -8.377   2.587 123.824  0.00  0.00    +0.038 C 
ENDBRANCH  30  31
ENDBRANCH  29  30
ENDBRANCH  25  29
ENDBRANCH  20  25
TORSDOF 6
ENDMDL
MODEL 3
REMARK VINA RESULT:      -8.6      3.760      5.342
REMARK  Name = NuBBE_1555
REMARK  14 active torsions:
REMARK  status: ('A' for Active; 'I' for Inactive)
REMARK    1  A    between atoms: C_1  and  C_2
REMARK    2  A    between atoms: C_3  and  C_4
REMARK    3  A    between atoms: C_9  and  C_10
REMARK    4  A    between atoms: C_13  and  O_15
REMARK    5  A    between atoms: C_16  and  C_17
REMARK    6  A    between atoms: C_16  and  C_18
REMARK    7  A    between atoms: C_24  and  C_25
REMARK    8  A    between atoms: C_25  and  O_26
REMARK    9  A    between atoms: C_25  and  C_27
REMARK   10  A    between atoms: C_25  and  C_28
REMARK   11  A    between atoms: C_28  and  C_29
REMARK   12  A    between atoms: C_29  and  C_30
REMARK   13  A    between atoms: C_31  and  C_32
REMARK   14  A    between atoms: C_31  and  C_33
REMARK                            x       y       z     vdW  Elec       q    Type
REMARK                         _______ _______ _______ _____ _____    ______ ____
ROOT
ATOM      1  C   LIG A   1      -5.253   0.842 128.440  0.00  0.00    +0.012 C 
ATOM      2  C   LIG A   1      -6.605   0.125 128.731  0.00  0.00    -0.023 C 
ATOM      3  C   LIG A   1      -7.374   0.702 130.071  0.00  0.00    -0.023 C 
ATOM      4  C   LIG A   1      -7.956  -0.457 130.927  0.00  0.00    +0.012 C 
ATOM      5  C   LIG A   1      -6.344   1.444 130.977  0.00  0.00    +0.008 C 
ATOM      6  C   LIG A   1      -6.919   2.244 132.143  0.00  0.00    +0.005 C 
ATOM      7  C   LIG A   1      -7.912   3.305 131.639  0.00  0.00    +0.003 C 
ATOM      8  C   LIG A   1      -9.116   2.634 130.893  0.00  0.00    -0.025 C 
ATOM      9  C   LIG A   1     -10.016   1.768 131.826  0.00  0.00    +0.012 C 
ATOM     10  C   LIG A   1     -10.031   3.776 130.350  0.00  0.00    +0.010 C 
ATOM     11  C   LIG A   1     -10.468   4.795 131.402  0.00  0.00    +0.032 C 
ATOM     12  C   LIG A   1      -9.260   5.433 132.081  0.00  0.00    +0.120 C 
ATOM     13  C   LIG A   1      -8.281   4.401 132.714  0.00  0.00    -0.006 C 
ATOM     14  C   LIG A   1      -8.857   3.820 134.024  0.00  0.00    +0.014 C 
ATOM     15  C   LIG A   1      -7.000   5.183 133.120  0.00  0.00    +0.014 C 
ATOM     16  C   LIG A   1      -8.573   1.689 129.703  0.00  0.00    +0.002 C 
ATOM     17  C   LIG A   1      -8.218   2.448 128.414  0.00  0.00    +0.005 C 
ATOM     18  C   LIG A   1      -8.207   1.501 127.222  0.00  0.00    +0.005 C 
ATOM     19  C   LIG A   1      -7.446   0.194 127.427  0.00  0.00    +0.001 C 
ATOM     20  C   LIG A   1      -8.320  -1.095 127.387  0.00  0.00    +0.024 C 
ATOM     21  C   LIG A   1      -7.544  -2.107 128.262  0.00  0.00    +0.007 C 
ATOM     22  C   LIG A   1      -6.286  -1.391 128.744  0.00  0.00    +0.008 C 
ENDROOT
BRANCH  12  23
ATOM     23  O   LIG A   1      -9.724   6.357 133.065  0.00  0.00    -0.391 OA
ATOM     24  H   LIG A   1      -9.663   7.249 132.682  0.00  0.00    +0.210 HD
ENDBRANCH  12  23
BRANCH  20  25
ATOM     25  C   LIG A   1      -8.612  -1.637 125.944  0.00  0.00    +0.067 C 
ATOM     26  C   LIG A   1      -9.032  -3.113 125.935  0.00  0.00    +0.041 C 
BRANCH  25  27
ATOM     27  O   LIG A   1      -9.744  -0.935 125.400  0.00  0.00    -0.389 OA
ATOM     28  H   LIG A   1     -10.121  -0.366 126.092  0.00  0.00    +0.210 HD
ENDBRANCH  25  27
BRANCH  25  29
ATOM     29  C   LIG A   1      -7.434  -1.432 124.959  0.00  0.00    +0.039 C 
BRANCH  29  30
ATOM     30  C   LIG A   1      -7.772  -0.675 123.674  0.00  0.00    +0.030 C 
BRANCH  30  31
ATOM     31  C   LIG A   1      -7.044   0.638 123.627  0.00  0.00    -0.028 C 
ATOM     32  C   LIG A   1      -7.599   1.867 123.607  0.00  0.00    -0.080 C 
ATOM     33  C   LIG A   1      -9.077   2.142 123.612  0.00  0.00    +0.038 C 
ATOM     34  C   LIG A   1      -6.739   3.103 123.548  0.00  0.00    +0.038 C 
ENDBRANCH  30  31
ENDBRANCH  29  30
ENDBRANCH  25  29
ENDBRANCH  20  25
TORSDOF 6
ENDMDL
MODEL 4
REMARK VINA RESULT:      -8.5      3.927      6.175
REMARK  Name = NuBBE_1555
REMARK  14 active torsions:
REMARK  status: ('A' for Active; 'I' for Inactive)
REMARK    1  A    between atoms: C_1  and  C_2
REMARK    2  A    between atoms: C_3  and  C_4
REMARK    3  A    between atoms: C_9  and  C_10
REMARK    4  A    between atoms: C_13  and  O_15
REMARK    5  A    between atoms: C_16  and  C_17
REMARK    6  A    between atoms: C_16  and  C_18
REMARK    7  A    between atoms: C_24  and  C_25
REMARK    8  A    between atoms: C_25  and  O_26
REMARK    9  A    between atoms: C_25  and  C_27
REMARK   10  A    between atoms: C_25  and  C_28
REMARK   11  A    between atoms: C_28  and  C_29
REMARK   12  A    between atoms: C_29  and  C_30
REMARK   13  A    between atoms: C_31  and  C_32
REMARK   14  A    between atoms: C_31  and  C_33
REMARK                            x       y       z     vdW  Elec       q    Type
REMARK                         _______ _______ _______ _____ _____    ______ ____
ROOT
ATOM      1  C   LIG A   1      -5.222   0.410 128.866  0.00  0.00    +0.012 C 
ATOM      2  C   LIG A   1      -6.600  -0.240 129.191  0.00  0.00    -0.023 C 
ATOM      3  C   LIG A   1      -7.381   0.486 130.450  0.00  0.00    -0.023 C 
ATOM      4  C   LIG A   1      -8.014  -0.569 131.400  0.00  0.00    +0.012 C 
ATOM      5  C   LIG A   1      -6.350   1.284 131.305  0.00  0.00    +0.008 C 
ATOM      6  C   LIG A   1      -6.927   2.209 132.374  0.00  0.00    +0.005 C 
ATOM      7  C   LIG A   1      -7.878   3.242 131.746  0.00  0.00    +0.003 C 
ATOM      8  C   LIG A   1      -9.085   2.534 131.039  0.00  0.00    -0.025 C 
ATOM      9  C   LIG A   1     -10.029   1.787 132.029  0.00  0.00    +0.012 C 
ATOM     10  C   LIG A   1      -9.954   3.642 130.365  0.00  0.00    +0.010 C 
ATOM     11  C   LIG A   1     -10.384   4.769 131.302  0.00  0.00    +0.032 C 
ATOM     12  C   LIG A   1      -9.174   5.438 131.947  0.00  0.00    +0.120 C 
ATOM     13  C   LIG A   1      -8.239   4.447 132.700  0.00  0.00    -0.006 C 
ATOM     14  C   LIG A   1      -8.859   4.012 134.045  0.00  0.00    +0.014 C 
ATOM     15  C   LIG A   1      -6.944   5.230 133.060  0.00  0.00    +0.014 C 
ATOM     16  C   LIG A   1      -8.543   1.464 129.959  0.00  0.00    +0.002 C 
ATOM     17  C   LIG A   1      -8.139   2.083 128.612  0.00  0.00    +0.005 C 
ATOM     18  C   LIG A   1      -8.129   1.025 127.518  0.00  0.00    +0.005 C 
ATOM     19  C   LIG A   1      -7.410  -0.276 127.866  0.00  0.00    +0.001 C 
ATOM     20  C   LIG A   1      -8.320  -1.538 127.930  0.00  0.00    +0.024 C 
ATOM     21  C   LIG A   1      -7.592  -2.481 128.918  0.00  0.00    +0.007 C 
ATOM     22  C   LIG A   1      -6.325  -1.755 129.359  0.00  0.00    +0.008 C 
ENDROOT
BRANCH  12  23
ATOM     23  O   LIG A   1      -9.631   6.466 132.825  0.00  0.00    -0.391 OA
ATOM     24  H   LIG A   1      -9.545   7.313 132.356  0.00  0.00    +0.210 HD
ENDBRANCH  12  23
BRANCH  20  25
ATOM     25  C   LIG A   1      -8.596  -2.211 126.540  0.00  0.00    +0.067 C 
ATOM     26  C   LIG A   1      -9.182  -3.624 126.666  0.00  0.00    +0.041 C 
BRANCH  25  27
ATOM     27  O   LIG A   1      -9.610  -1.459 125.849  0.00  0.00    -0.389 OA
ATOM     28  H   LIG A   1     -10.342  -1.284 126.463  0.00  0.00    +0.210 HD
ENDBRANCH  25  27
BRANCH  25  29
ATOM     29  C   LIG A   1      -7.352  -2.251 125.618  0.00  0.00    +0.039 C 
BRANCH  29  30
ATOM     30  C   LIG A   1      -7.458  -3.176 124.404  0.00  0.00    +0.030 C 
BRANCH  30  31
ATOM     31  C   LIG A   1      -6.244  -4.054 124.301  0.00  0.00    -0.028 C 
ATOM     32  C   LIG A   1      -5.108  -3.782 123.628  0.00  0.00    -0.080 C 
ATOM     33  C   LIG A   1      -4.859  -2.531 122.833  0.00  0.00    +0.038 C 
ATOM     34  C   LIG A   1      -3.969  -4.769 123.603  0.00  0.00    +0.038 C 
ENDBRANCH  30  31
ENDBRANCH  29  30
ENDBRANCH  25  29
ENDBRANCH  20  25
TORSDOF 6
ENDMDL
MODEL 5
REMARK VINA RESULT:      -8.4      7.280     10.503
REMARK  Name = NuBBE_1555
REMARK  14 active torsions:
REMARK  status: ('A' for Active; 'I' for Inactive)
REMARK    1  A    between atoms: C_1  and  C_2
REMARK    2  A    between atoms: C_3  and  C_4
REMARK    3  A    between atoms: C_9  and  C_10
REMARK    4  A    between atoms: C_13  and  O_15
REMARK    5  A    between atoms: C_16  and  C_17
REMARK    6  A    between atoms: C_16  and  C_18
REMARK    7  A    between atoms: C_24  and  C_25
REMARK    8  A    between atoms: C_25  and  O_26
REMARK    9  A    between atoms: C_25  and  C_27
REMARK   10  A    between atoms: C_25  and  C_28
REMARK   11  A    between atoms: C_28  and  C_29
REMARK   12  A    between atoms: C_29  and  C_30
REMARK   13  A    between atoms: C_31  and  C_32
REMARK   14  A    between atoms: C_31  and  C_33
REMARK                            x       y       z     vdW  Elec       q    Type
REMARK                         _______ _______ _______ _____ _____    ______ ____
ROOT
ATOM      1  C   LIG A   1      -7.977   5.715 134.152  0.00  0.00    +0.012 C 
ATOM      2  C   LIG A   1      -7.847   4.866 132.853  0.00  0.00    -0.023 C 
ATOM      3  C   LIG A   1      -9.126   5.046 131.827  0.00  0.00    -0.023 C 
ATOM      4  C   LIG A   1      -9.571   3.677 131.240  0.00  0.00    +0.012 C 
ATOM      5  C   LIG A   1     -10.348   5.604 132.618  0.00  0.00    +0.008 C 
ATOM      6  C   LIG A   1     -11.546   6.053 131.787  0.00  0.00    +0.005 C 
ATOM      7  C   LIG A   1     -11.135   7.142 130.780  0.00  0.00    +0.003 C 
ATOM      8  C   LIG A   1     -10.051   6.602 129.785  0.00  0.00    -0.025 C 
ATOM      9  C   LIG A   1     -10.581   5.479 128.844  0.00  0.00    +0.012 C 
ATOM     10  C   LIG A   1      -9.634   7.784 128.854  0.00  0.00    +0.010 C 
ATOM     11  C   LIG A   1     -10.798   8.482 128.154  0.00  0.00    +0.032 C 
ATOM     12  C   LIG A   1     -11.811   9.007 129.166  0.00  0.00    +0.120 C 
ATOM     13  C   LIG A   1     -12.351   7.914 130.135  0.00  0.00    -0.006 C 
ATOM     14  C   LIG A   1     -13.366   6.993 129.423  0.00  0.00    +0.014 C 
ATOM     15  C   LIG A   1     -13.149   8.650 131.248  0.00  0.00    +0.014 C 
ATOM     16  C   LIG A   1      -8.790   6.016 130.605  0.00  0.00    +0.002 C 
ATOM     17  C   LIG A   1      -7.797   7.089 131.077  0.00  0.00    +0.005 C 
ATOM     18  C   LIG A   1      -6.440   6.469 131.375  0.00  0.00    +0.005 C 
ATOM     19  C   LIG A   1      -6.467   5.202 132.226  0.00  0.00    +0.001 C 
ATOM     20  C   LIG A   1      -5.973   3.911 131.507  0.00  0.00    +0.024 C 
ATOM     21  C   LIG A   1      -6.714   2.764 132.236  0.00  0.00    +0.007 C 
ATOM     22  C   LIG A   1      -7.565   3.416 133.321  0.00  0.00    +0.008 C 
ENDROOT
BRANCH  12  23
ATOM     23  O   LIG A   1     -12.884   9.629 128.460  0.00  0.00    -0.391 OA
ATOM     24  H   LIG A   1     -12.642  10.560 128.318  0.00  0.00    +0.210 HD
ENDBRANCH  12  23
BRANCH  20  25
ATOM     25  C   LIG A   1      -4.416   3.724 131.505  0.00  0.00    +0.067 C 
ATOM     26  C   LIG A   1      -3.732   4.393 132.704  0.00  0.00    +0.041 C 
BRANCH  25  27
ATOM     27  O   LIG A   1      -4.112   2.324 131.650  0.00  0.00    -0.389 OA
ATOM     28  H   LIG A   1      -4.579   1.830 130.955  0.00  0.00    +0.210 HD
ENDBRANCH  25  27
BRANCH  25  29
ATOM     29  C   LIG A   1      -3.740   4.201 130.196  0.00  0.00    +0.039 C 
BRANCH  29  30
ATOM     30  C   LIG A   1      -2.700   5.310 130.355  0.00  0.00    +0.030 C 
BRANCH  30  31
ATOM     31  C   LIG A   1      -3.217   6.605 129.796  0.00  0.00    -0.028 C 
ATOM     32  C   LIG A   1      -3.379   7.764 130.466  0.00  0.00    -0.080 C 
ATOM     33  C   LIG A   1      -3.079   7.962 131.925  0.00  0.00    +0.038 C 
ATOM     34  C   LIG A   1      -3.923   8.988 129.773  0.00  0.00    +0.038 C 
ENDBRANCH  30  31
ENDBRANCH  29  30
ENDBRANCH  25  29
ENDBRANCH  20  25
TORSDOF 6
ENDMDL
MODEL 6
REMARK VINA RESULT:      -8.3      2.215      3.526
REMARK  Name = NuBBE_1555
REMARK  14 active torsions:
REMARK  status: ('A' for Active; 'I' for Inactive)
REMARK    1  A    between atoms: C_1  and  C_2
REMARK    2  A    between atoms: C_3  and  C_4
REMARK    3  A    between atoms: C_9  and  C_10
REMARK    4  A    between atoms: C_13  and  O_15
REMARK    5  A    between atoms: C_16  and  C_17
REMARK    6  A    between atoms: C_16  and  C_18
REMARK    7  A    between atoms: C_24  and  C_25
REMARK    8  A    between atoms: C_25  and  O_26
REMARK    9  A    between atoms: C_25  and  C_27
REMARK   10  A    between atoms: C_25  and  C_28
REMARK   11  A    between atoms: C_28  and  C_29
REMARK   12  A    between atoms: C_29  and  C_30
REMARK   13  A    between atoms: C_31  and  C_32
REMARK   14  A    between atoms: C_31  and  C_33
REMARK                            x       y       z     vdW  Elec       q    Type
REMARK                         _______ _______ _______ _____ _____    ______ ____
ROOT
ATOM      1  C   LIG A   1      -5.122  -2.518 127.103  0.00  0.00    +0.012 C 
ATOM      2  C   LIG A   1      -6.520  -2.126 127.669  0.00  0.00    -0.023 C 
ATOM      3  C   LIG A   1      -6.771  -2.658 129.209  0.00  0.00    -0.023 C 
ATOM      4  C   LIG A   1      -8.203  -3.238 129.375  0.00  0.00    +0.012 C 
ATOM      5  C   LIG A   1      -5.785  -3.826 129.520  0.00  0.00    +0.008 C 
ATOM      6  C   LIG A   1      -5.714  -4.285 130.973  0.00  0.00    +0.005 C 
ATOM      7  C   LIG A   1      -5.323  -3.118 131.896  0.00  0.00    +0.003 C 
ATOM      8  C   LIG A   1      -6.385  -1.967 131.821  0.00  0.00    -0.025 C 
ATOM      9  C   LIG A   1      -7.778  -2.374 132.388  0.00  0.00    +0.012 C 
ATOM     10  C   LIG A   1      -5.877  -0.797 132.721  0.00  0.00    +0.010 C 
ATOM     11  C   LIG A   1      -5.529  -1.201 134.152  0.00  0.00    +0.032 C 
ATOM     12  C   LIG A   1      -4.479  -2.306 134.169  0.00  0.00    +0.120 C 
ATOM     13  C   LIG A   1      -4.880  -3.564 133.344  0.00  0.00    -0.006 C 
ATOM     14  C   LIG A   1      -5.941  -4.402 134.089  0.00  0.00    +0.014 C 
ATOM     15  C   LIG A   1      -3.616  -4.464 133.246  0.00  0.00    +0.014 C 
ATOM     16  C   LIG A   1      -6.585  -1.498 130.290  0.00  0.00    +0.002 C 
ATOM     17  C   LIG A   1      -5.512  -0.518 129.790  0.00  0.00    +0.005 C 
ATOM     18  C   LIG A   1      -6.014   0.252 128.577  0.00  0.00    +0.005 C 
ATOM     19  C   LIG A   1      -6.669  -0.590 127.486  0.00  0.00    +0.001 C 
ATOM     20  C   LIG A   1      -8.184  -0.311 127.254  0.00  0.00    +0.024 C 
ATOM     21  C   LIG A   1      -8.735  -1.645 126.698  0.00  0.00    +0.007 C 
ATOM     22  C   LIG A   1      -7.552  -2.605 126.619  0.00  0.00    +0.008 C 
ENDROOT
BRANCH  12  23
ATOM     23  O   LIG A   1      -4.207  -2.659 135.526  0.00  0.00    -0.391 OA
ATOM     24  H   LIG A   1      -3.259  -2.869 135.591  0.00  0.00    +0.210 HD
ENDBRANCH  12  23
BRANCH  20  25
ATOM     25  C   LIG A   1      -8.482   0.909 126.314  0.00  0.00    +0.067 C 
ATOM     26  C   LIG A   1      -9.761   0.726 125.486  0.00  0.00    +0.041 C 
BRANCH  25  27
ATOM     27  O   LIG A   1      -8.739   2.072 127.124  0.00  0.00    -0.389 OA
ATOM     28  H   LIG A   1      -8.676   2.863 126.563  0.00  0.00    +0.210 HD
ENDBRANCH  25  27
BRANCH  25  29
ATOM     29  C   LIG A   1      -7.306   1.263 125.372  0.00  0.00    +0.039 C 
BRANCH  29  30
ATOM     30  C   LIG A   1      -7.382   0.666 123.966  0.00  0.00    +0.030 C 
BRANCH  30  31
ATOM     31  C   LIG A   1      -6.408  -0.469 123.820  0.00  0.00    -0.028 C 
ATOM     32  C   LIG A   1      -6.676  -1.705 123.354  0.00  0.00    -0.080 C 
ATOM     33  C   LIG A   1      -8.030  -2.179 122.904  0.00  0.00    +0.038 C 
ATOM     34  C   LIG A   1      -5.595  -2.752 123.274  0.00  0.00    +0.038 C 
ENDBRANCH  30  31
ENDBRANCH  29  30
ENDBRANCH  25  29
ENDBRANCH  20  25
TORSDOF 6
ENDMDL
MODEL 7
REMARK VINA RESULT:      -8.3      6.772      8.526
REMARK  Name = NuBBE_1555
REMARK  14 active torsions:
REMARK  status: ('A' for Active; 'I' for Inactive)
REMARK    1  A    between atoms: C_1  and  C_2
REMARK    2  A    between atoms: C_3  and  C_4
REMARK    3  A    between atoms: C_9  and  C_10
REMARK    4  A    between atoms: C_13  and  O_15
REMARK    5  A    between atoms: C_16  and  C_17
REMARK    6  A    between atoms: C_16  and  C_18
REMARK    7  A    between atoms: C_24  and  C_25
REMARK    8  A    between atoms: C_25  and  O_26
REMARK    9  A    between atoms: C_25  and  C_27
REMARK   10  A    between atoms: C_25  and  C_28
REMARK   11  A    between atoms: C_28  and  C_29
REMARK   12  A    between atoms: C_29  and  C_30
REMARK   13  A    between atoms: C_31  and  C_32
REMARK   14  A    between atoms: C_31  and  C_33
REMARK                            x       y       z     vdW  Elec       q    Type
REMARK                         _______ _______ _______ _____ _____    ______ ____
ROOT
ATOM      1  C   LIG A   1      -6.984   2.951 132.597  0.00  0.00    +0.012 C 
ATOM      2  C   LIG A   1      -6.899   3.932 131.390  0.00  0.00    -0.023 C 
ATOM      3  C   LIG A   1      -5.969   5.259 131.694  0.00  0.00    -0.023 C 
ATOM      4  C   LIG A   1      -6.640   6.551 131.150  0.00  0.00    +0.012 C 
ATOM      5  C   LIG A   1      -5.831   5.451 133.235  0.00  0.00    +0.008 C 
ATOM      6  C   LIG A   1      -4.814   6.490 133.701  0.00  0.00    +0.005 C 
ATOM      7  C   LIG A   1      -3.410   6.157 133.168  0.00  0.00    +0.003 C 
ATOM      8  C   LIG A   1      -3.393   6.156 131.601  0.00  0.00    -0.025 C 
ATOM      9  C   LIG A   1      -3.648   7.562 130.980  0.00  0.00    +0.012 C 
ATOM     10  C   LIG A   1      -1.961   5.735 131.144  0.00  0.00    +0.010 C 
ATOM     11  C   LIG A   1      -0.831   6.560 131.757  0.00  0.00    +0.032 C 
ATOM     12  C   LIG A   1      -0.880   6.510 133.281  0.00  0.00    +0.120 C 
ATOM     13  C   LIG A   1      -2.248   6.955 133.877  0.00  0.00    -0.006 C 
ATOM     14  C   LIG A   1      -2.412   8.488 133.807  0.00  0.00    +0.014 C 
ATOM     15  C   LIG A   1      -2.219   6.596 135.390  0.00  0.00    +0.014 C 
ATOM     16  C   LIG A   1      -4.519   5.147 131.035  0.00  0.00    +0.002 C 
ATOM     17  C   LIG A   1      -4.089   3.672 131.024  0.00  0.00    +0.005 C 
ATOM     18  C   LIG A   1      -4.944   2.872 130.051  0.00  0.00    +0.005 C 
ATOM     19  C   LIG A   1      -6.450   3.100 130.158  0.00  0.00    +0.001 C 
ATOM     20  C   LIG A   1      -7.110   3.754 128.908  0.00  0.00    +0.024 C 
ATOM     21  C   LIG A   1      -8.349   4.487 129.474  0.00  0.00    +0.007 C 
ATOM     22  C   LIG A   1      -8.363   4.222 130.976  0.00  0.00    +0.008 C 
ENDROOT
BRANCH  12  23
ATOM     23  O   LIG A   1       0.181   7.311 133.800  0.00  0.00    -0.391 OA
ATOM     24  H   LIG A   1       0.697   6.757 134.409  0.00  0.00    +0.210 HD
ENDBRANCH  12  23
BRANCH  20  25
ATOM     25  C   LIG A   1      -7.471   2.746 127.761  0.00  0.00    +0.067 C 
ATOM     26  C   LIG A   1      -8.064   1.432 128.286  0.00  0.00    +0.041 C 
BRANCH  25  27
ATOM     27  O   LIG A   1      -8.515   3.315 126.950  0.00  0.00    -0.389 OA
ATOM     28  H   LIG A   1      -8.143   4.048 126.431  0.00  0.00    +0.210 HD
ENDBRANCH  25  27
BRANCH  25  29
ATOM     29  C   LIG A   1      -6.283   2.434 126.819  0.00  0.00    +0.039 C 
BRANCH  29  30
ATOM     30  C   LIG A   1      -5.304   3.585 126.585  0.00  0.00    +0.030 C 
BRANCH  30  31
ATOM     31  C   LIG A   1      -3.908   3.062 126.394  0.00  0.00    -0.028 C 
ATOM     32  C   LIG A   1      -2.774   3.598 126.887  0.00  0.00    -0.080 C 
ATOM     33  C   LIG A   1      -2.704   4.847 127.719  0.00  0.00    +0.038 C 
ATOM     34  C   LIG A   1      -1.434   2.967 126.603  0.00  0.00    +0.038 C 
ENDBRANCH  30  31
ENDBRANCH  29  30
ENDBRANCH  25  29
ENDBRANCH  20  25
TORSDOF 6
ENDMDL
MODEL 8
REMARK VINA RESULT:      -8.3      2.092      3.671
REMARK  Name = NuBBE_1555
REMARK  14 active torsions:
REMARK  status: ('A' for Active; 'I' for Inactive)
REMARK    1  A    between atoms: C_1  and  C_2
REMARK    2  A    between atoms: C_3  and  C_4
REMARK    3  A    between atoms: C_9  and  C_10
REMARK    4  A    between atoms: C_13  and  O_15
REMARK    5  A    between atoms: C_16  and  C_17
REMARK    6  A    between atoms: C_16  and  C_18
REMARK    7  A    between atoms: C_24  and  C_25
REMARK    8  A    between atoms: C_25  and  O_26
REMARK    9  A    between atoms: C_25  and  C_27
REMARK   10  A    between atoms: C_25  and  C_28
REMARK   11  A    between atoms: C_28  and  C_29
REMARK   12  A    between atoms: C_29  and  C_30
REMARK   13  A    between atoms: C_31  and  C_32
REMARK   14  A    between atoms: C_31  and  C_33
REMARK                            x       y       z     vdW  Elec       q    Type
REMARK                         _______ _______ _______ _____ _____    ______ ____
ROOT
ATOM      1  C   LIG A   1      -7.686  -1.605 124.404  0.00  0.00    +0.012 C 
ATOM      2  C   LIG A   1      -7.840  -0.275 125.200  0.00  0.00    -0.023 C 
ATOM      3  C   LIG A   1      -7.776  -0.483 126.835  0.00  0.00    -0.023 C 
ATOM      4  C   LIG A   1      -8.863   0.366 127.552  0.00  0.00    +0.012 C 
ATOM      5  C   LIG A   1      -8.084  -1.973 127.178  0.00  0.00    +0.008 C 
ATOM      6  C   LIG A   1      -7.840  -2.401 128.622  0.00  0.00    +0.005 C 
ATOM      7  C   LIG A   1      -6.377  -2.146 129.027  0.00  0.00    +0.003 C 
ATOM      8  C   LIG A   1      -6.027  -0.621 128.925  0.00  0.00    -0.025 C 
ATOM      9  C   LIG A   1      -6.803   0.260 129.949  0.00  0.00    +0.012 C 
ATOM     10  C   LIG A   1      -4.514  -0.460 129.274  0.00  0.00    +0.010 C 
ATOM     11  C   LIG A   1      -4.100  -1.084 130.605  0.00  0.00    +0.032 C 
ATOM     12  C   LIG A   1      -4.442  -2.570 130.644  0.00  0.00    +0.120 C 
ATOM     13  C   LIG A   1      -5.943  -2.873 130.358  0.00  0.00    -0.006 C 
ATOM     14  C   LIG A   1      -6.823  -2.520 131.577  0.00  0.00    +0.014 C 
ATOM     15  C   LIG A   1      -6.066  -4.413 130.173  0.00  0.00    +0.014 C 
ATOM     16  C   LIG A   1      -6.357  -0.076 127.442  0.00  0.00    +0.002 C 
ATOM     17  C   LIG A   1      -5.265  -0.379 126.406  0.00  0.00    +0.005 C 
ATOM     18  C   LIG A   1      -5.383   0.560 125.213  0.00  0.00    +0.005 C 
ATOM     19  C   LIG A   1      -6.787   0.717 124.636  0.00  0.00    +0.001 C 
ATOM     20  C   LIG A   1      -7.399   2.144 124.765  0.00  0.00    +0.024 C 
ATOM     21  C   LIG A   1      -8.927   1.900 124.789  0.00  0.00    +0.007 C 
ATOM     22  C   LIG A   1      -9.130   0.394 124.662  0.00  0.00    +0.008 C 
ENDROOT
BRANCH  12  23
ATOM     23  O   LIG A   1      -4.054  -3.097 131.913  0.00  0.00    -0.391 OA
ATOM     24  H   LIG A   1      -4.564  -3.911 132.062  0.00  0.00    +0.210 HD
ENDBRANCH  12  23
BRANCH  20  25
ATOM     25  C   LIG A   1      -6.961   3.143 123.638  0.00  0.00    +0.067 C 
ATOM     26  C   LIG A   1      -6.387   2.436 122.403  0.00  0.00    +0.041 C 
BRANCH  25  27
ATOM     27  O   LIG A   1      -8.124   3.837 123.150  0.00  0.00    -0.389 OA
ATOM     28  H   LIG A   1      -8.887   3.591 123.697  0.00  0.00    +0.210 HD
ENDBRANCH  25  27
BRANCH  25  29
ATOM     29  C   LIG A   1      -5.960   4.220 124.125  0.00  0.00    +0.039 C 
BRANCH  29  30
ATOM     30  C   LIG A   1      -5.518   4.101 125.583  0.00  0.00    +0.030 C 
BRANCH  30  31
ATOM     31  C   LIG A   1      -4.042   3.831 125.668  0.00  0.00    -0.028 C 
ATOM     32  C   LIG A   1      -3.381   3.290 126.711  0.00  0.00    -0.080 C 
ATOM     33  C   LIG A   1      -4.017   2.868 128.006  0.00  0.00    +0.038 C 
ATOM     34  C   LIG A   1      -1.888   3.088 126.659  0.00  0.00    +0.038 C 
ENDBRANCH  30  31
ENDBRANCH  29  30
ENDBRANCH  25  29
ENDBRANCH  20  25
TORSDOF 6
ENDMDL
MODEL 9
REMARK VINA RESULT:      -8.2      6.762     10.034
REMARK  Name = NuBBE_1555
REMARK  14 active torsions:
REMARK  status: ('A' for Active; 'I' for Inactive)
REMARK    1  A    between atoms: C_1  and  C_2
REMARK    2  A    between atoms: C_3  and  C_4
REMARK    3  A    between atoms: C_9  and  C_10
REMARK    4  A    between atoms: C_13  and  O_15
REMARK    5  A    between atoms: C_16  and  C_17
REMARK    6  A    between atoms: C_16  and  C_18
REMARK    7  A    between atoms: C_24  and  C_25
REMARK    8  A    between atoms: C_25  and  O_26
REMARK    9  A    between atoms: C_25  and  C_27
REMARK   10  A    between atoms: C_25  and  C_28
REMARK   11  A    between atoms: C_28  and  C_29
REMARK   12  A    between atoms: C_29  and  C_30
REMARK   13  A    between atoms: C_31  and  C_32
REMARK   14  A    between atoms: C_31  and  C_33
REMARK                            x       y       z     vdW  Elec       q    Type
REMARK                         _______ _______ _______ _____ _____    ______ ____
ROOT
ATOM      1  C   LIG A   1      -7.803   5.701 134.071  0.00  0.00    +0.012 C 
ATOM      2  C   LIG A   1      -7.601   4.935 132.730  0.00  0.00    -0.023 C 
ATOM      3  C   LIG A   1      -8.880   5.078 131.699  0.00  0.00    -0.023 C 
ATOM      4  C   LIG A   1      -9.220   3.715 131.034  0.00  0.00    +0.012 C 
ATOM      5  C   LIG A   1     -10.146   5.504 132.503  0.00  0.00    +0.008 C 
ATOM      6  C   LIG A   1     -11.366   5.911 131.682  0.00  0.00    +0.005 C 
ATOM      7  C   LIG A   1     -11.025   7.079 130.741  0.00  0.00    +0.003 C 
ATOM      8  C   LIG A   1      -9.897   6.673 129.732  0.00  0.00    -0.025 C 
ATOM      9  C   LIG A   1     -10.337   5.567 128.726  0.00  0.00    +0.012 C 
ATOM     10  C   LIG A   1      -9.558   7.930 128.870  0.00  0.00    +0.010 C 
ATOM     11  C   LIG A   1     -10.763   8.580 128.194  0.00  0.00    +0.032 C 
ATOM     12  C   LIG A   1     -11.820   8.976 129.220  0.00  0.00    +0.120 C 
ATOM     13  C   LIG A   1     -12.288   7.796 130.122  0.00  0.00    -0.006 C 
ATOM     14  C   LIG A   1     -13.228   6.845 129.350  0.00  0.00    +0.014 C 
ATOM     15  C   LIG A   1     -13.147   8.412 131.263  0.00  0.00    +0.014 C 
ATOM     16  C   LIG A   1      -8.604   6.135 130.534  0.00  0.00    +0.002 C 
ATOM     17  C   LIG A   1      -7.695   7.249 131.076  0.00  0.00    +0.005 C 
ATOM     18  C   LIG A   1      -6.299   6.712 131.357  0.00  0.00    +0.005 C 
ATOM     19  C   LIG A   1      -6.242   5.402 132.139  0.00  0.00    +0.001 C 
ATOM     20  C   LIG A   1      -5.651   4.191 131.358  0.00  0.00    +0.024 C 
ATOM     21  C   LIG A   1      -6.313   2.956 132.016  0.00  0.00    +0.007 C 
ATOM     22  C   LIG A   1      -7.218   3.486 133.123  0.00  0.00    +0.008 C 
ENDROOT
BRANCH  12  23
ATOM     23  O   LIG A   1     -12.929   9.557 128.535  0.00  0.00    -0.391 OA
ATOM     24  H   LIG A   1     -13.441   8.833 128.136  0.00  0.00    +0.210 HD
ENDBRANCH  12  23
BRANCH  20  25
ATOM     25  C   LIG A   1      -4.084   4.116 131.366  0.00  0.00    +0.067 C 
ATOM     26  C   LIG A   1      -3.485   4.273 132.769  0.00  0.00    +0.041 C 
BRANCH  25  27
ATOM     27  O   LIG A   1      -3.677   2.801 130.944  0.00  0.00    -0.389 OA
ATOM     28  H   LIG A   1      -4.328   2.461 130.308  0.00  0.00    +0.210 HD
ENDBRANCH  25  27
BRANCH  25  29
ATOM     29  C   LIG A   1      -3.414   5.129 130.404  0.00  0.00    +0.039 C 
BRANCH  29  30
ATOM     30  C   LIG A   1      -3.879   5.066 128.949  0.00  0.00    +0.030 C 
BRANCH  30  31
ATOM     31  C   LIG A   1      -2.778   4.555 128.064  0.00  0.00    -0.028 C 
ATOM     32  C   LIG A   1      -2.779   3.405 127.360  0.00  0.00    -0.080 C 
ATOM     33  C   LIG A   1      -3.900   2.404 127.350  0.00  0.00    +0.038 C 
ATOM     34  C   LIG A   1      -1.592   3.014 126.518  0.00  0.00    +0.038 C 
ENDBRANCH  30  31
ENDBRANCH  29  30
ENDBRANCH  25  29
ENDBRANCH  20  25
TORSDOF 6
ENDMDL
