MODEL 1
REMARK VINA RESULT:      -4.9      0.000      0.000
REMARK  Name = NuBBE_2211
REMARK  7 active torsions:
REMARK  status: ('A' for Active; 'I' for Inactive)
REMARK    1  A    between atoms: C_1  and  C_4
REMARK    2  A    between atoms: C_1  and  C_9
REMARK    3  A    between atoms: C_2  and  C_3
REMARK    4  A    between atoms: C_4  and  O_5
REMARK    5  A    between atoms: O_5  and  C_6
REMARK    6  A    between atoms: C_6  and  C_8
REMARK    7  A    between atoms: C_9  and  O_11
REMARK                            x       y       z     vdW  Elec       q    Type
REMARK                         _______ _______ _______ _____ _____    ______ ____
ROOT
ATOM      1  C   LIG A   1     -12.993   7.999 129.428  0.00  0.00    +0.069 C 
ATOM      2  C   LIG A   1     -13.251   9.305 129.205  0.00  0.00    -0.016 C 
ATOM      3  C   LIG A   1     -13.218  10.428 130.193  0.00  0.00    +0.036 C 
ENDROOT
BRANCH   1   4
ATOM      4  C   LIG A   1     -12.669   7.435 130.765  0.00  0.00    +0.336 C 
ATOM      5  O   LIG A   1     -13.463   7.293 131.677  0.00  0.00    -0.245 OA
BRANCH   4   6
ATOM      6  O   LIG A   1     -11.370   7.143 130.938  0.00  0.00    -0.477 OA
ATOM      7  H   LIG A   1     -11.349   6.172 131.064  0.00  0.00    +0.295 HD
ENDBRANCH   4   6
ENDBRANCH   1   4
BRANCH   1   8
ATOM      8  C   LIG A   1     -12.977   6.941 128.345  0.00  0.00    +0.274 C 
BRANCH   8   9
ATOM      9  O   LIG A   1     -11.656   6.397 128.142  0.00  0.00    -0.460 OA
BRANCH   9  10
ATOM     10  C   LIG A   1     -10.701   7.264 127.717  0.00  0.00    +0.304 C 
ATOM     11  O   LIG A   1      -9.761   7.679 128.379  0.00  0.00    -0.251 OA
ATOM     12  C   LIG A   1     -10.969   7.674 126.301  0.00  0.00    +0.136 C 
ENDBRANCH   9  10
ENDBRANCH   8   9
ENDBRANCH   1   8
TORSDOF 5
ENDMDL
MODEL 2
REMARK VINA RESULT:      -4.9      2.350      3.230
REMARK  Name = NuBBE_2211
REMARK  7 active torsions:
REMARK  status: ('A' for Active; 'I' for Inactive)
REMARK    1  A    between atoms: C_1  and  C_4
REMARK    2  A    between atoms: C_1  and  C_9
REMARK    3  A    between atoms: C_2  and  C_3
REMARK    4  A    between atoms: C_4  and  O_5
REMARK    5  A    between atoms: O_5  and  C_6
REMARK    6  A    between atoms: C_6  and  C_8
REMARK    7  A    between atoms: C_9  and  O_11
REMARK                            x       y       z     vdW  Elec       q    Type
REMARK                         _______ _______ _______ _____ _____    ______ ____
ROOT
ATOM      1  C   LIG A   1     -10.375   6.922 130.246  0.00  0.00    +0.069 C 
ATOM      2  C   LIG A   1      -9.134   7.011 130.769  0.00  0.00    -0.016 C 
ATOM      3  C   LIG A   1      -8.465   6.057 131.708  0.00  0.00    +0.036 C 
ENDROOT
BRANCH   1   4
ATOM      4  C   LIG A   1     -11.339   5.839 130.576  0.00  0.00    +0.336 C 
ATOM      5  O   LIG A   1     -11.577   4.875 129.872  0.00  0.00    -0.245 OA
BRANCH   4   6
ATOM      6  O   LIG A   1     -12.015   6.035 131.719  0.00  0.00    -0.477 OA
ATOM      7  H   LIG A   1     -12.388   5.157 131.939  0.00  0.00    +0.295 HD
ENDBRANCH   4   6
ENDBRANCH   1   4
BRANCH   1   8
ATOM      8  C   LIG A   1     -10.942   7.901 129.239  0.00  0.00    +0.274 C 
BRANCH   8   9
ATOM      9  O   LIG A   1     -10.151   7.955 128.034  0.00  0.00    -0.460 OA
BRANCH   9  10
ATOM     10  C   LIG A   1     -10.525   7.126 127.025  0.00  0.00    +0.304 C 
ATOM     11  O   LIG A   1      -9.787   6.384 126.392  0.00  0.00    -0.251 OA
ATOM     12  C   LIG A   1     -11.996   7.260 126.764  0.00  0.00    +0.136 C 
ENDBRANCH   9  10
ENDBRANCH   8   9
ENDBRANCH   1   8
TORSDOF 5
ENDMDL
MODEL 3
REMARK VINA RESULT:      -4.8      2.379      4.001
REMARK  Name = NuBBE_2211
REMARK  7 active torsions:
REMARK  status: ('A' for Active; 'I' for Inactive)
REMARK    1  A    between atoms: C_1  and  C_4
REMARK    2  A    between atoms: C_1  and  C_9
REMARK    3  A    between atoms: C_2  and  C_3
REMARK    4  A    between atoms: C_4  and  O_5
REMARK    5  A    between atoms: O_5  and  C_6
REMARK    6  A    between atoms: C_6  and  C_8
REMARK    7  A    between atoms: C_9  and  O_11
REMARK                            x       y       z     vdW  Elec       q    Type
REMARK                         _______ _______ _______ _____ _____    ______ ____
ROOT
ATOM      1  C   LIG A   1     -11.235   7.754 127.944  0.00  0.00    +0.069 C 
ATOM      2  C   LIG A   1     -12.536   7.643 128.282  0.00  0.00    -0.016 C 
ATOM      3  C   LIG A   1     -13.667   7.158 127.430  0.00  0.00    +0.036 C 
ENDROOT
BRANCH   1   4
ATOM      4  C   LIG A   1     -10.700   7.448 126.591  0.00  0.00    +0.336 C 
ATOM      5  O   LIG A   1     -10.964   8.066 125.576  0.00  0.00    -0.245 OA
BRANCH   4   6
ATOM      6  O   LIG A   1      -9.927   6.350 126.542  0.00  0.00    -0.477 OA
ATOM      7  H   LIG A   1      -9.709   6.245 125.593  0.00  0.00    +0.295 HD
ENDBRANCH   4   6
ENDBRANCH   1   4
BRANCH   1   8
ATOM      8  C   LIG A   1     -10.144   8.186 128.902  0.00  0.00    +0.274 C 
BRANCH   8   9
ATOM      9  O   LIG A   1      -9.240   7.105 129.212  0.00  0.00    -0.460 OA
BRANCH   9  10
ATOM     10  C   LIG A   1      -9.761   6.055 129.898  0.00  0.00    +0.304 C 
ATOM     11  O   LIG A   1      -9.996   4.944 129.444  0.00  0.00    -0.251 OA
ATOM     12  C   LIG A   1     -10.040   6.452 131.317  0.00  0.00    +0.136 C 
ENDBRANCH   9  10
ENDBRANCH   8   9
ENDBRANCH   1   8
TORSDOF 5
ENDMDL
MODEL 4
REMARK VINA RESULT:      -4.8      2.616      3.680
REMARK  Name = NuBBE_2211
REMARK  7 active torsions:
REMARK  status: ('A' for Active; 'I' for Inactive)
REMARK    1  A    between atoms: C_1  and  C_4
REMARK    2  A    between atoms: C_1  and  C_9
REMARK    3  A    between atoms: C_2  and  C_3
REMARK    4  A    between atoms: C_4  and  O_5
REMARK    5  A    between atoms: O_5  and  C_6
REMARK    6  A    between atoms: C_6  and  C_8
REMARK    7  A    between atoms: C_9  and  O_11
REMARK                            x       y       z     vdW  Elec       q    Type
REMARK                         _______ _______ _______ _____ _____    ______ ____
ROOT
ATOM      1  C   LIG A   1     -10.344   6.891 130.299  0.00  0.00    +0.069 C 
ATOM      2  C   LIG A   1      -9.095   6.987 130.800  0.00  0.00    -0.016 C 
ATOM      3  C   LIG A   1      -8.413   6.053 131.749  0.00  0.00    +0.036 C 
ENDROOT
BRANCH   1   4
ATOM      4  C   LIG A   1     -11.306   5.818 130.669  0.00  0.00    +0.336 C 
ATOM      5  O   LIG A   1     -11.490   4.795 130.036  0.00  0.00    -0.245 OA
BRANCH   4   6
ATOM      6  O   LIG A   1     -12.045   6.094 131.755  0.00  0.00    -0.477 OA
ATOM      7  H   LIG A   1     -12.772   5.438 131.733  0.00  0.00    +0.295 HD
ENDBRANCH   4   6
ENDBRANCH   1   4
BRANCH   1   8
ATOM      8  C   LIG A   1     -10.925   7.848 129.279  0.00  0.00    +0.274 C 
BRANCH   8   9
ATOM      9  O   LIG A   1     -12.149   8.454 129.743  0.00  0.00    -0.460 OA
BRANCH   9  10
ATOM     10  C   LIG A   1     -13.088   8.725 128.800  0.00  0.00    +0.304 C 
ATOM     11  O   LIG A   1     -13.576   9.821 128.566  0.00  0.00    -0.251 OA
ATOM     12  C   LIG A   1     -13.475   7.469 128.079  0.00  0.00    +0.136 C 
ENDBRANCH   9  10
ENDBRANCH   8   9
ENDBRANCH   1   8
TORSDOF 5
ENDMDL
MODEL 5
REMARK VINA RESULT:      -4.6      1.963      3.368
REMARK  Name = NuBBE_2211
REMARK  7 active torsions:
REMARK  status: ('A' for Active; 'I' for Inactive)
REMARK    1  A    between atoms: C_1  and  C_4
REMARK    2  A    between atoms: C_1  and  C_9
REMARK    3  A    between atoms: C_2  and  C_3
REMARK    4  A    between atoms: C_4  and  O_5
REMARK    5  A    between atoms: O_5  and  C_6
REMARK    6  A    between atoms: C_6  and  C_8
REMARK    7  A    between atoms: C_9  and  O_11
REMARK                            x       y       z     vdW  Elec       q    Type
REMARK                         _______ _______ _______ _____ _____    ______ ____
ROOT
ATOM      1  C   LIG A   1     -11.955   7.397 129.499  0.00  0.00    +0.069 C 
ATOM      2  C   LIG A   1     -12.684   8.448 129.928  0.00  0.00    -0.016 C 
ATOM      3  C   LIG A   1     -13.033   9.691 129.173  0.00  0.00    +0.036 C 
ENDROOT
BRANCH   1   4
ATOM      4  C   LIG A   1     -11.309   7.326 128.162  0.00  0.00    +0.336 C 
ATOM      5  O   LIG A   1     -11.771   6.756 127.190  0.00  0.00    -0.245 OA
BRANCH   4   6
ATOM      6  O   LIG A   1     -10.094   7.894 128.108  0.00  0.00    -0.477 OA
ATOM      7  H   LIG A   1      -9.745   7.818 129.020  0.00  0.00    +0.295 HD
ENDBRANCH   4   6
ENDBRANCH   1   4
BRANCH   1   8
ATOM      8  C   LIG A   1     -11.717   6.142 130.313  0.00  0.00    +0.274 C 
BRANCH   8   9
ATOM      9  O   LIG A   1     -10.315   5.815 130.402  0.00  0.00    -0.460 OA
BRANCH   9  10
ATOM     10  C   LIG A   1      -9.627   6.366 131.435  0.00  0.00    +0.304 C 
ATOM     11  O   LIG A   1     -10.032   6.494 132.582  0.00  0.00    -0.251 OA
ATOM     12  C   LIG A   1      -8.279   6.829 130.970  0.00  0.00    +0.136 C 
ENDBRANCH   9  10
ENDBRANCH   8   9
ENDBRANCH   1   8
TORSDOF 5
ENDMDL
MODEL 6
REMARK VINA RESULT:      -4.6      2.066      3.588
REMARK  Name = NuBBE_2211
REMARK  7 active torsions:
REMARK  status: ('A' for Active; 'I' for Inactive)
REMARK    1  A    between atoms: C_1  and  C_4
REMARK    2  A    between atoms: C_1  and  C_9
REMARK    3  A    between atoms: C_2  and  C_3
REMARK    4  A    between atoms: C_4  and  O_5
REMARK    5  A    between atoms: O_5  and  C_6
REMARK    6  A    between atoms: C_6  and  C_8
REMARK    7  A    between atoms: C_9  and  O_11
REMARK                            x       y       z     vdW  Elec       q    Type
REMARK                         _______ _______ _______ _____ _____    ______ ____
ROOT
ATOM      1  C   LIG A   1     -10.963   6.615 130.588  0.00  0.00    +0.069 C 
ATOM      2  C   LIG A   1     -10.773   6.208 131.861  0.00  0.00    -0.016 C 
ATOM      3  C   LIG A   1      -9.474   6.026 132.580  0.00  0.00    +0.036 C 
ENDROOT
BRANCH   1   4
ATOM      4  C   LIG A   1      -9.858   6.912 129.638  0.00  0.00    +0.336 C 
ATOM      5  O   LIG A   1      -9.272   7.976 129.555  0.00  0.00    -0.245 OA
BRANCH   4   6
ATOM      6  O   LIG A   1      -9.582   5.911 128.787  0.00  0.00    -0.477 OA
ATOM      7  H   LIG A   1      -8.606   5.914 128.711  0.00  0.00    +0.295 HD
ENDBRANCH   4   6
ENDBRANCH   1   4
BRANCH   1   8
ATOM      8  C   LIG A   1     -12.325   6.845 129.966  0.00  0.00    +0.274 C 
BRANCH   8   9
ATOM      9  O   LIG A   1     -12.458   6.173 128.697  0.00  0.00    -0.460 OA
BRANCH   9  10
ATOM     10  C   LIG A   1     -12.802   6.945 127.633  0.00  0.00    +0.304 C 
ATOM     11  O   LIG A   1     -12.547   6.710 126.461  0.00  0.00    -0.251 OA
ATOM     12  C   LIG A   1     -13.533   8.169 128.098  0.00  0.00    +0.136 C 
ENDBRANCH   9  10
ENDBRANCH   8   9
ENDBRANCH   1   8
TORSDOF 5
ENDMDL
MODEL 7
REMARK VINA RESULT:      -4.5      2.888      3.755
REMARK  Name = NuBBE_2211
REMARK  7 active torsions:
REMARK  status: ('A' for Active; 'I' for Inactive)
REMARK    1  A    between atoms: C_1  and  C_4
REMARK    2  A    between atoms: C_1  and  C_9
REMARK    3  A    between atoms: C_2  and  C_3
REMARK    4  A    between atoms: C_4  and  O_5
REMARK    5  A    between atoms: O_5  and  C_6
REMARK    6  A    between atoms: C_6  and  C_8
REMARK    7  A    between atoms: C_9  and  O_11
REMARK                            x       y       z     vdW  Elec       q    Type
REMARK                         _______ _______ _______ _____ _____    ______ ____
ROOT
ATOM      1  C   LIG A   1     -11.252   6.908 129.679  0.00  0.00    +0.069 C 
ATOM      2  C   LIG A   1     -12.122   7.502 128.836  0.00  0.00    -0.016 C 
ATOM      3  C   LIG A   1     -13.545   7.123 128.571  0.00  0.00    +0.036 C 
ENDROOT
BRANCH   1   4
ATOM      4  C   LIG A   1     -11.568   5.695 130.478  0.00  0.00    +0.336 C 
ATOM      5  O   LIG A   1     -11.470   4.549 130.081  0.00  0.00    -0.245 OA
BRANCH   4   6
ATOM      6  O   LIG A   1     -12.059   5.956 131.701  0.00  0.00    -0.477 OA
ATOM      7  H   LIG A   1     -12.264   6.913 131.685  0.00  0.00    +0.295 HD
ENDBRANCH   4   6
ENDBRANCH   1   4
BRANCH   1   8
ATOM      8  C   LIG A   1      -9.847   7.411 129.939  0.00  0.00    +0.274 C 
BRANCH   8   9
ATOM      9  O   LIG A   1      -9.325   6.929 131.194  0.00  0.00    -0.460 OA
BRANCH   9  10
ATOM     10  C   LIG A   1      -7.975   6.817 131.289  0.00  0.00    +0.304 C 
ATOM     11  O   LIG A   1      -7.157   7.332 130.540  0.00  0.00    -0.251 OA
ATOM     12  C   LIG A   1      -7.608   5.940 132.448  0.00  0.00    +0.136 C 
ENDBRANCH   9  10
ENDBRANCH   8   9
ENDBRANCH   1   8
TORSDOF 5
ENDMDL
MODEL 8
REMARK VINA RESULT:      -4.4      1.971      3.382
REMARK  Name = NuBBE_2211
REMARK  7 active torsions:
REMARK  status: ('A' for Active; 'I' for Inactive)
REMARK    1  A    between atoms: C_1  and  C_4
REMARK    2  A    between atoms: C_1  and  C_9
REMARK    3  A    between atoms: C_2  and  C_3
REMARK    4  A    between atoms: C_4  and  O_5
REMARK    5  A    between atoms: O_5  and  C_6
REMARK    6  A    between atoms: C_6  and  C_8
REMARK    7  A    between atoms: C_9  and  O_11
REMARK                            x       y       z     vdW  Elec       q    Type
REMARK                         _______ _______ _______ _____ _____    ______ ____
ROOT
ATOM      1  C   LIG A   1     -12.887   7.621 129.675  0.00  0.00    +0.069 C 
ATOM      2  C   LIG A   1     -13.451   6.812 128.753  0.00  0.00    -0.016 C 
ATOM      3  C   LIG A   1     -13.745   7.121 127.319  0.00  0.00    +0.036 C 
ENDROOT
BRANCH   1   4
ATOM      4  C   LIG A   1     -12.497   9.032 129.412  0.00  0.00    +0.336 C 
ATOM      5  O   LIG A   1     -13.084  10.011 129.835  0.00  0.00    -0.245 OA
BRANCH   4   6
ATOM      6  O   LIG A   1     -11.451   9.167 128.582  0.00  0.00    -0.477 OA
ATOM      7  H   LIG A   1     -11.769   9.769 127.879  0.00  0.00    +0.295 HD
ENDBRANCH   4   6
ENDBRANCH   1   4
BRANCH   1   8
ATOM      8  C   LIG A   1     -12.557   7.194 131.090  0.00  0.00    +0.274 C 
BRANCH   8   9
ATOM      9  O   LIG A   1     -11.583   6.130 131.118  0.00  0.00    -0.460 OA
BRANCH   9  10
ATOM     10  C   LIG A   1     -10.360   6.439 131.620  0.00  0.00    +0.304 C 
ATOM     11  O   LIG A   1     -10.028   6.377 132.795  0.00  0.00    -0.251 OA
ATOM     12  C   LIG A   1      -9.451   6.900 130.521  0.00  0.00    +0.136 C 
ENDBRANCH   9  10
ENDBRANCH   8   9
ENDBRANCH   1   8
TORSDOF 5
ENDMDL
MODEL 9
REMARK VINA RESULT:      -4.4      2.388      4.390
REMARK  Name = NuBBE_2211
REMARK  7 active torsions:
REMARK  status: ('A' for Active; 'I' for Inactive)
REMARK    1  A    between atoms: C_1  and  C_4
REMARK    2  A    between atoms: C_1  and  C_9
REMARK    3  A    between atoms: C_2  and  C_3
REMARK    4  A    between atoms: C_4  and  O_5
REMARK    5  A    between atoms: O_5  and  C_6
REMARK    6  A    between atoms: C_6  and  C_8
REMARK    7  A    between atoms: C_9  and  O_11
REMARK                            x       y       z     vdW  Elec       q    Type
REMARK                         _______ _______ _______ _____ _____    ______ ____
ROOT
ATOM      1  C   LIG A   1      -9.991   5.958 130.203  0.00  0.00    +0.069 C 
ATOM      2  C   LIG A   1      -9.190   6.290 131.237  0.00  0.00    -0.016 C 
ATOM      3  C   LIG A   1      -7.811   6.867 131.180  0.00  0.00    +0.036 C 
ENDROOT
BRANCH   1   4
ATOM      4  C   LIG A   1      -9.591   6.070 128.775  0.00  0.00    +0.336 C 
ATOM      5  O   LIG A   1      -8.945   5.241 128.162  0.00  0.00    -0.245 OA
BRANCH   4   6
ATOM      6  O   LIG A   1      -9.943   7.229 128.196  0.00  0.00    -0.477 OA
ATOM      7  H   LIG A   1      -9.125   7.543 127.757  0.00  0.00    +0.295 HD
ENDBRANCH   4   6
ENDBRANCH   1   4
BRANCH   1   8
ATOM      8  C   LIG A   1     -11.409   5.450 130.358  0.00  0.00    +0.274 C 
BRANCH   8   9
ATOM      9  O   LIG A   1     -12.371   6.342 129.759  0.00  0.00    -0.460 OA
BRANCH   9  10
ATOM     10  C   LIG A   1     -12.816   7.365 130.534  0.00  0.00    +0.304 C 
ATOM     11  O   LIG A   1     -13.280   7.265 131.660  0.00  0.00    -0.251 OA
ATOM     12  C   LIG A   1     -12.681   8.666 129.800  0.00  0.00    +0.136 C 
ENDBRANCH   9  10
ENDBRANCH   8   9
ENDBRANCH   1   8
TORSDOF 5
ENDMDL
