MODEL 1
REMARK VINA RESULT:      -9.2      0.000      0.000
REMARK  Name = NuBBE_1827
REMARK  9 active torsions:
REMARK  status: ('A' for Active; 'I' for Inactive)
REMARK    1  A    between atoms: C_1  and  C_2
REMARK    2  A    between atoms: C_4  and  C_38
REMARK    3  A    between atoms: C_8  and  C_35
REMARK    4  A    between atoms: C_11  and  C_34
REMARK    5  A    between atoms: C_17  and  C_18
REMARK    6  A    between atoms: C_17  and  C_33
REMARK    7  A    between atoms: C_22  and  C_31
REMARK    8  A    between atoms: C_27  and  C_30
REMARK    9  A    between atoms: C_35  and  O_36
REMARK                            x       y       z     vdW  Elec       q    Type
REMARK                         _______ _______ _______ _____ _____    ______ ____
ROOT
ATOM      1  C   LIG A   1      -7.649   2.781 130.097  0.00  0.00    +0.008 C 
ATOM      2  C   LIG A   1      -7.164   4.226 129.951  0.00  0.00    -0.007 C 
ATOM      3  C   LIG A   1      -6.990   4.807 131.371  0.00  0.00    -0.011 C 
ATOM      4  C   LIG A   1      -5.703   4.276 131.992  0.00  0.00    +0.004 C 
ATOM      5  C   LIG A   1      -4.479   4.722 131.222  0.00  0.00    +0.018 C 
ATOM      6  C   LIG A   1      -4.500   4.508 129.677  0.00  0.00    +0.071 C 
ATOM      7  C   LIG A   1      -3.717   3.225 129.281  0.00  0.00    +0.019 C 
ATOM      8  C   LIG A   1      -4.580   2.066 128.808  0.00  0.00    +0.012 C 
ATOM      9  C   LIG A   1      -5.391   2.341 127.502  0.00  0.00    -0.005 C 
ATOM     10  C   LIG A   1      -6.482   1.254 127.275  0.00  0.00    -0.063 C 
ATOM     11  C   LIG A   1      -6.420   0.009 127.796  0.00  0.00    -0.026 C 
ATOM     12  C   LIG A   1      -7.399  -1.064 127.407  0.00  0.00    +0.032 C 
ATOM     13  C   LIG A   1      -7.648  -0.953 125.896  0.00  0.00    +0.012 C 
ATOM     14  C   LIG A   1      -8.329  -2.187 125.234  0.00  0.00    +0.027 C 
ATOM     15  C   LIG A   1      -9.475  -2.784 126.072  0.00  0.00    +0.019 C 
ATOM     16  C   LIG A   1      -8.844  -1.790 123.842  0.00  0.00    +0.139 C 
ATOM     17  C   LIG A   1      -8.170  -0.622 123.143  0.00  0.00    +0.075 C 
ATOM     18  C   LIG A   1      -7.977   0.631 124.010  0.00  0.00    +0.015 C 
ATOM     19  C   LIG A   1      -8.283   0.429 125.515  0.00  0.00    -0.021 C 
ATOM     20  C   LIG A   1      -7.715   1.588 126.438  0.00  0.00    +0.021 C 
ATOM     21  C   LIG A   1      -7.638   2.969 125.783  0.00  0.00    +0.009 C 
ATOM     22  C   LIG A   1      -7.354   4.009 126.863  0.00  0.00    +0.008 C 
ATOM     23  C   LIG A   1      -5.943   3.859 127.518  0.00  0.00    -0.019 C 
ATOM     24  C   LIG A   1      -5.939   4.530 128.994  0.00  0.00    +0.016 C 
ATOM     25  C   LIG A   1      -5.042   4.769 126.605  0.00  0.00    +0.012 C 
ATOM     26  C   LIG A   1      -9.826   0.476 125.699  0.00  0.00    +0.012 C 
ATOM     27  O   LIG A   1      -9.702  -2.450 123.254  0.00  0.00    -0.297 OA
ATOM     28  C   LIG A   1      -7.291  -3.306 125.010  0.00  0.00    +0.019 C 
ATOM     29  C   LIG A   1      -4.399   2.062 126.323  0.00  0.00    +0.016 C 
ATOM     30  C   LIG A   1      -7.071   6.337 131.389  0.00  0.00    +0.008 C 
ENDROOT
BRANCH   6  31
ATOM     31  C   LIG A   1      -3.687   5.740 129.205  0.00  0.00    +0.311 C 
ATOM     32  O   LIG A   1      -2.545   5.749 128.777  0.00  0.00    -0.250 OA
BRANCH  31  33
ATOM     33  O   LIG A   1      -4.403   6.883 129.169  0.00  0.00    -0.480 OA
ATOM     34  H   LIG A   1      -5.325   6.583 129.311  0.00  0.00    +0.295 HD
ENDBRANCH  31  33
ENDBRANCH   6  31
TORSDOF 2
ENDMDL
MODEL 2
REMARK VINA RESULT:      -9.1      5.263      6.608
REMARK  Name = NuBBE_1827
REMARK  9 active torsions:
REMARK  status: ('A' for Active; 'I' for Inactive)
REMARK    1  A    between atoms: C_1  and  C_2
REMARK    2  A    between atoms: C_4  and  C_38
REMARK    3  A    between atoms: C_8  and  C_35
REMARK    4  A    between atoms: C_11  and  C_34
REMARK    5  A    between atoms: C_17  and  C_18
REMARK    6  A    between atoms: C_17  and  C_33
REMARK    7  A    between atoms: C_22  and  C_31
REMARK    8  A    between atoms: C_27  and  C_30
REMARK    9  A    between atoms: C_35  and  O_36
REMARK                            x       y       z     vdW  Elec       q    Type
REMARK                         _______ _______ _______ _____ _____    ______ ____
ROOT
ATOM      1  C   LIG A   1      -7.639  -2.213 132.536  0.00  0.00    +0.008 C 
ATOM      2  C   LIG A   1      -6.446  -1.818 133.412  0.00  0.00    -0.007 C 
ATOM      3  C   LIG A   1      -6.804  -2.166 134.874  0.00  0.00    -0.011 C 
ATOM      4  C   LIG A   1      -6.666  -3.668 135.096  0.00  0.00    +0.004 C 
ATOM      5  C   LIG A   1      -5.241  -4.139 134.907  0.00  0.00    +0.018 C 
ATOM      6  C   LIG A   1      -4.513  -3.683 133.604  0.00  0.00    +0.071 C 
ATOM      7  C   LIG A   1      -4.541  -4.805 132.529  0.00  0.00    +0.019 C 
ATOM      8  C   LIG A   1      -5.458  -4.539 131.345  0.00  0.00    +0.012 C 
ATOM      9  C   LIG A   1      -5.068  -3.299 130.479  0.00  0.00    -0.005 C 
ATOM     10  C   LIG A   1      -6.220  -2.904 129.510  0.00  0.00    -0.063 C 
ATOM     11  C   LIG A   1      -7.176  -3.761 129.091  0.00  0.00    -0.026 C 
ATOM     12  C   LIG A   1      -8.161  -3.390 128.018  0.00  0.00    +0.032 C 
ATOM     13  C   LIG A   1      -7.409  -2.604 126.935  0.00  0.00    +0.012 C 
ATOM     14  C   LIG A   1      -8.152  -2.452 125.574  0.00  0.00    +0.027 C 
ATOM     15  C   LIG A   1      -9.653  -2.143 125.722  0.00  0.00    +0.019 C 
ATOM     16  C   LIG A   1      -7.465  -1.355 124.748  0.00  0.00    +0.139 C 
ATOM     17  C   LIG A   1      -6.005  -1.053 125.041  0.00  0.00    +0.075 C 
ATOM     18  C   LIG A   1      -5.663  -0.883 126.528  0.00  0.00    +0.015 C 
ATOM     19  C   LIG A   1      -6.801  -1.274 127.502  0.00  0.00    -0.021 C 
ATOM     20  C   LIG A   1      -6.316  -1.467 129.001  0.00  0.00    +0.021 C 
ATOM     21  C   LIG A   1      -5.123  -0.603 129.419  0.00  0.00    +0.009 C 
ATOM     22  C   LIG A   1      -4.964  -0.686 130.934  0.00  0.00    +0.008 C 
ATOM     23  C   LIG A   1      -4.555  -2.107 131.441  0.00  0.00    -0.019 C 
ATOM     24  C   LIG A   1      -4.996  -2.295 132.990  0.00  0.00    +0.016 C 
ATOM     25  C   LIG A   1      -2.984  -2.039 131.422  0.00  0.00    +0.012 C 
ATOM     26  C   LIG A   1      -7.816  -0.097 127.548  0.00  0.00    +0.012 C 
ATOM     27  O   LIG A   1      -8.033  -0.801 123.804  0.00  0.00    -0.297 OA
ATOM     28  C   LIG A   1      -8.027  -3.755 124.757  0.00  0.00    +0.019 C 
ATOM     29  C   LIG A   1      -3.965  -3.806 129.490  0.00  0.00    +0.016 C 
ATOM     30  C   LIG A   1      -5.999  -1.340 135.882  0.00  0.00    +0.008 C 
ENDROOT
BRANCH   6  31
ATOM     31  C   LIG A   1      -3.059  -3.540 134.121  0.00  0.00    +0.311 C 
ATOM     32  O   LIG A   1      -2.637  -2.712 134.911  0.00  0.00    -0.250 OA
BRANCH  31  33
ATOM     33  O   LIG A   1      -2.239  -4.533 133.719  0.00  0.00    -0.480 OA
ATOM     34  H   LIG A   1      -1.477  -4.467 134.332  0.00  0.00    +0.295 HD
ENDBRANCH  31  33
ENDBRANCH   6  31
TORSDOF 2
ENDMDL
MODEL 3
REMARK VINA RESULT:      -9.1      4.707      6.375
REMARK  Name = NuBBE_1827
REMARK  9 active torsions:
REMARK  status: ('A' for Active; 'I' for Inactive)
REMARK    1  A    between atoms: C_1  and  C_2
REMARK    2  A    between atoms: C_4  and  C_38
REMARK    3  A    between atoms: C_8  and  C_35
REMARK    4  A    between atoms: C_11  and  C_34
REMARK    5  A    between atoms: C_17  and  C_18
REMARK    6  A    between atoms: C_17  and  C_33
REMARK    7  A    between atoms: C_22  and  C_31
REMARK    8  A    between atoms: C_27  and  C_30
REMARK    9  A    between atoms: C_35  and  O_36
REMARK                            x       y       z     vdW  Elec       q    Type
REMARK                         _______ _______ _______ _____ _____    ______ ____
ROOT
ATOM      1  C   LIG A   1      -5.436  -4.836 130.740  0.00  0.00    +0.008 C 
ATOM      2  C   LIG A   1      -5.654  -4.331 132.169  0.00  0.00    -0.007 C 
ATOM      3  C   LIG A   1      -4.856  -5.252 133.118  0.00  0.00    -0.011 C 
ATOM      4  C   LIG A   1      -3.374  -4.899 133.055  0.00  0.00    +0.004 C 
ATOM      5  C   LIG A   1      -3.108  -3.492 133.543  0.00  0.00    +0.018 C 
ATOM      6  C   LIG A   1      -3.994  -2.356 132.942  0.00  0.00    +0.071 C 
ATOM      7  C   LIG A   1      -3.246  -1.611 131.802  0.00  0.00    +0.019 C 
ATOM      8  C   LIG A   1      -3.771  -1.885 130.402  0.00  0.00    +0.012 C 
ATOM      9  C   LIG A   1      -5.243  -1.424 130.151  0.00  0.00    -0.005 C 
ATOM     10  C   LIG A   1      -5.807  -2.029 128.833  0.00  0.00    -0.063 C 
ATOM     11  C   LIG A   1      -5.034  -2.444 127.806  0.00  0.00    -0.026 C 
ATOM     12  C   LIG A   1      -5.621  -2.853 126.484  0.00  0.00    +0.032 C 
ATOM     13  C   LIG A   1      -6.757  -1.877 126.148  0.00  0.00    +0.012 C 
ATOM     14  C   LIG A   1      -7.243  -1.893 124.668  0.00  0.00    +0.027 C 
ATOM     15  C   LIG A   1      -7.361  -3.308 124.072  0.00  0.00    +0.019 C 
ATOM     16  C   LIG A   1      -8.592  -1.166 124.575  0.00  0.00    +0.139 C 
ATOM     17  C   LIG A   1      -8.919  -0.136 125.643  0.00  0.00    +0.075 C 
ATOM     18  C   LIG A   1      -8.667  -0.594 127.087  0.00  0.00    +0.015 C 
ATOM     19  C   LIG A   1      -7.904  -1.936 127.215  0.00  0.00    -0.021 C 
ATOM     20  C   LIG A   1      -7.316  -2.195 128.666  0.00  0.00    +0.021 C 
ATOM     21  C   LIG A   1      -8.117  -1.580 129.817  0.00  0.00    +0.009 C 
ATOM     22  C   LIG A   1      -7.599  -2.149 131.134  0.00  0.00    +0.008 C 
ATOM     23  C   LIG A   1      -6.134  -1.719 131.466  0.00  0.00    -0.019 C 
ATOM     24  C   LIG A   1      -5.454  -2.790 132.476  0.00  0.00    +0.016 C 
ATOM     25  C   LIG A   1      -6.341  -0.393 132.285  0.00  0.00    +0.012 C 
ATOM     26  C   LIG A   1      -8.920  -3.088 126.973  0.00  0.00    +0.012 C 
ATOM     27  O   LIG A   1      -9.351  -1.324 123.617  0.00  0.00    -0.297 OA
ATOM     28  C   LIG A   1      -6.260  -1.100 123.782  0.00  0.00    +0.019 C 
ATOM     29  C   LIG A   1      -5.153   0.100 129.802  0.00  0.00    +0.016 C 
ATOM     30  C   LIG A   1      -5.410  -5.239 134.546  0.00  0.00    +0.008 C 
ENDROOT
BRANCH   6  31
ATOM     31  C   LIG A   1      -4.103  -1.402 134.158  0.00  0.00    +0.311 C 
ATOM     32  O   LIG A   1      -4.737  -1.585 135.183  0.00  0.00    -0.250 OA
BRANCH  31  33
ATOM     33  O   LIG A   1      -3.295  -0.324 134.077  0.00  0.00    -0.480 OA
ATOM     34  H   LIG A   1      -2.781  -0.356 134.911  0.00  0.00    +0.295 HD
ENDBRANCH  31  33
ENDBRANCH   6  31
TORSDOF 2
ENDMDL
MODEL 4
REMARK VINA RESULT:      -9.1      4.118      6.036
REMARK  Name = NuBBE_1827
REMARK  9 active torsions:
REMARK  status: ('A' for Active; 'I' for Inactive)
REMARK    1  A    between atoms: C_1  and  C_2
REMARK    2  A    between atoms: C_4  and  C_38
REMARK    3  A    between atoms: C_8  and  C_35
REMARK    4  A    between atoms: C_11  and  C_34
REMARK    5  A    between atoms: C_17  and  C_18
REMARK    6  A    between atoms: C_17  and  C_33
REMARK    7  A    between atoms: C_22  and  C_31
REMARK    8  A    between atoms: C_27  and  C_30
REMARK    9  A    between atoms: C_35  and  O_36
REMARK                            x       y       z     vdW  Elec       q    Type
REMARK                         _______ _______ _______ _____ _____    ______ ____
ROOT
ATOM      1  C   LIG A   1      -4.482  -3.563 129.691  0.00  0.00    +0.008 C 
ATOM      2  C   LIG A   1      -5.208  -3.696 131.032  0.00  0.00    -0.007 C 
ATOM      3  C   LIG A   1      -4.148  -4.020 132.108  0.00  0.00    -0.011 C 
ATOM      4  C   LIG A   1      -3.381  -2.756 132.475  0.00  0.00    +0.004 C 
ATOM      5  C   LIG A   1      -4.279  -1.710 133.098  0.00  0.00    +0.018 C 
ATOM      6  C   LIG A   1      -5.604  -1.377 132.343  0.00  0.00    +0.071 C 
ATOM      7  C   LIG A   1      -5.454  -0.083 131.497  0.00  0.00    +0.019 C 
ATOM      8  C   LIG A   1      -5.404  -0.300 129.993  0.00  0.00    +0.012 C 
ATOM      9  C   LIG A   1      -6.700  -0.917 129.376  0.00  0.00    -0.005 C 
ATOM     10  C   LIG A   1      -6.453  -1.410 127.921  0.00  0.00    -0.063 C 
ATOM     11  C   LIG A   1      -5.472  -0.934 127.123  0.00  0.00    -0.026 C 
ATOM     12  C   LIG A   1      -5.380  -1.305 125.670  0.00  0.00    +0.032 C 
ATOM     13  C   LIG A   1      -6.802  -1.316 125.092  0.00  0.00    +0.012 C 
ATOM     14  C   LIG A   1      -6.897  -1.308 123.537  0.00  0.00    +0.027 C 
ATOM     15  C   LIG A   1      -5.876  -2.233 122.851  0.00  0.00    +0.019 C 
ATOM     16  C   LIG A   1      -8.325  -1.693 123.121  0.00  0.00    +0.139 C 
ATOM     17  C   LIG A   1      -9.446  -1.449 124.116  0.00  0.00    +0.075 C 
ATOM     18  C   LIG A   1      -9.165  -1.937 125.544  0.00  0.00    +0.015 C 
ATOM     19  C   LIG A   1      -7.705  -2.385 125.799  0.00  0.00    -0.021 C 
ATOM     20  C   LIG A   1      -7.338  -2.509 127.338  0.00  0.00    +0.021 C 
ATOM     21  C   LIG A   1      -8.499  -2.894 128.258  0.00  0.00    +0.009 C 
ATOM     22  C   LIG A   1      -7.939  -3.250 129.632  0.00  0.00    +0.008 C 
ATOM     23  C   LIG A   1      -7.296  -2.036 130.377  0.00  0.00    -0.019 C 
ATOM     24  C   LIG A   1      -6.220  -2.559 131.471  0.00  0.00    +0.016 C 
ATOM     25  C   LIG A   1      -8.511  -1.445 131.183  0.00  0.00    +0.012 C 
ATOM     26  C   LIG A   1      -7.538  -3.819 125.221  0.00  0.00    +0.012 C 
ATOM     27  O   LIG A   1      -8.583  -2.092 121.983  0.00  0.00    -0.297 OA
ATOM     28  C   LIG A   1      -6.660   0.120 123.002  0.00  0.00    +0.019 C 
ATOM     29  C   LIG A   1      -7.675   0.288 129.154  0.00  0.00    +0.016 C 
ATOM     30  C   LIG A   1      -4.753  -4.723 133.328  0.00  0.00    +0.008 C 
ENDROOT
BRANCH   6  31
ATOM     31  C   LIG A   1      -6.545  -1.073 133.537  0.00  0.00    +0.311 C 
ATOM     32  O   LIG A   1      -7.006  -1.872 134.334  0.00  0.00    -0.250 OA
BRANCH  31  33
ATOM     33  O   LIG A   1      -6.750   0.245 133.745  0.00  0.00    -0.480 OA
ATOM     34  H   LIG A   1      -5.881   0.649 133.543  0.00  0.00    +0.295 HD
ENDBRANCH  31  33
ENDBRANCH   6  31
TORSDOF 2
ENDMDL
MODEL 5
REMARK VINA RESULT:      -8.9      1.571      2.237
REMARK  Name = NuBBE_1827
REMARK  9 active torsions:
REMARK  status: ('A' for Active; 'I' for Inactive)
REMARK    1  A    between atoms: C_1  and  C_2
REMARK    2  A    between atoms: C_4  and  C_38
REMARK    3  A    between atoms: C_8  and  C_35
REMARK    4  A    between atoms: C_11  and  C_34
REMARK    5  A    between atoms: C_17  and  C_18
REMARK    6  A    between atoms: C_17  and  C_33
REMARK    7  A    between atoms: C_22  and  C_31
REMARK    8  A    between atoms: C_27  and  C_30
REMARK    9  A    between atoms: C_35  and  O_36
REMARK                            x       y       z     vdW  Elec       q    Type
REMARK                         _______ _______ _______ _____ _____    ______ ____
ROOT
ATOM      1  C   LIG A   1      -5.557   0.376 130.005  0.00  0.00    +0.008 C 
ATOM      2  C   LIG A   1      -6.062   1.655 130.680  0.00  0.00    -0.007 C 
ATOM      3  C   LIG A   1      -5.229   1.866 131.964  0.00  0.00    -0.011 C 
ATOM      4  C   LIG A   1      -3.854   2.416 131.603  0.00  0.00    +0.004 C 
ATOM      5  C   LIG A   1      -3.944   3.779 130.953  0.00  0.00    +0.018 C 
ATOM      6  C   LIG A   1      -4.950   3.933 129.770  0.00  0.00    +0.071 C 
ATOM      7  C   LIG A   1      -4.221   3.835 128.401  0.00  0.00    +0.019 C 
ATOM      8  C   LIG A   1      -4.488   2.558 127.620  0.00  0.00    +0.012 C 
ATOM      9  C   LIG A   1      -5.975   2.352 127.187  0.00  0.00    -0.005 C 
ATOM     10  C   LIG A   1      -6.223   0.896 126.698  0.00  0.00    -0.063 C 
ATOM     11  C   LIG A   1      -5.252   0.087 126.223  0.00  0.00    -0.026 C 
ATOM     12  C   LIG A   1      -5.562  -1.243 125.595  0.00  0.00    +0.032 C 
ATOM     13  C   LIG A   1      -6.815  -1.076 124.724  0.00  0.00    +0.012 C 
ATOM     14  C   LIG A   1      -7.084  -2.221 123.704  0.00  0.00    +0.027 C 
ATOM     15  C   LIG A   1      -6.835  -3.629 124.276  0.00  0.00    +0.019 C 
ATOM     16  C   LIG A   1      -8.528  -2.107 123.190  0.00  0.00    +0.139 C 
ATOM     17  C   LIG A   1      -9.195  -0.743 123.244  0.00  0.00    +0.075 C 
ATOM     18  C   LIG A   1      -9.052  -0.003 124.582  0.00  0.00    +0.015 C 
ATOM     19  C   LIG A   1      -8.060  -0.652 125.578  0.00  0.00    -0.021 C 
ATOM     20  C   LIG A   1      -7.632   0.309 126.765  0.00  0.00    +0.021 C 
ATOM     21  C   LIG A   1      -8.688   1.334 127.191  0.00  0.00    +0.009 C 
ATOM     22  C   LIG A   1      -8.248   1.975 128.504  0.00  0.00    +0.008 C 
ATOM     23  C   LIG A   1      -6.957   2.845 128.372  0.00  0.00    -0.019 C 
ATOM     24  C   LIG A   1      -6.218   2.969 129.809  0.00  0.00    +0.016 C 
ATOM     25  C   LIG A   1      -7.534   4.268 128.035  0.00  0.00    +0.012 C 
ATOM     26  C   LIG A   1      -8.782  -1.849 126.259  0.00  0.00    +0.012 C 
ATOM     27  O   LIG A   1      -9.103  -3.056 122.654  0.00  0.00    -0.297 OA
ATOM     28  C   LIG A   1      -6.171  -2.056 122.471  0.00  0.00    +0.019 C 
ATOM     29  C   LIG A   1      -6.146   3.176 125.867  0.00  0.00    +0.016 C 
ATOM     30  C   LIG A   1      -5.962   2.728 132.997  0.00  0.00    +0.008 C 
ENDROOT
BRANCH   6  31
ATOM     31  C   LIG A   1      -5.411   5.399 129.973  0.00  0.00    +0.311 C 
ATOM     32  O   LIG A   1      -6.111   5.833 130.872  0.00  0.00    -0.250 OA
BRANCH  31  33
ATOM     33  O   LIG A   1      -4.853   6.269 129.105  0.00  0.00    -0.480 OA
ATOM     34  H   LIG A   1      -4.648   7.050 129.660  0.00  0.00    +0.295 HD
ENDBRANCH  31  33
ENDBRANCH   6  31
TORSDOF 2
ENDMDL
MODEL 6
REMARK VINA RESULT:      -8.9      1.720      7.903
REMARK  Name = NuBBE_1827
REMARK  9 active torsions:
REMARK  status: ('A' for Active; 'I' for Inactive)
REMARK    1  A    between atoms: C_1  and  C_2
REMARK    2  A    between atoms: C_4  and  C_38
REMARK    3  A    between atoms: C_8  and  C_35
REMARK    4  A    between atoms: C_11  and  C_34
REMARK    5  A    between atoms: C_17  and  C_18
REMARK    6  A    between atoms: C_17  and  C_33
REMARK    7  A    between atoms: C_22  and  C_31
REMARK    8  A    between atoms: C_27  and  C_30
REMARK    9  A    between atoms: C_35  and  O_36
REMARK                            x       y       z     vdW  Elec       q    Type
REMARK                         _______ _______ _______ _____ _____    ______ ____
ROOT
ATOM      1  C   LIG A   1      -5.397  -0.083 126.731  0.00  0.00    +0.008 C 
ATOM      2  C   LIG A   1      -5.995  -0.067 125.321  0.00  0.00    -0.007 C 
ATOM      3  C   LIG A   1      -6.397  -1.516 124.968  0.00  0.00    -0.011 C 
ATOM      4  C   LIG A   1      -7.694  -1.881 125.680  0.00  0.00    +0.004 C 
ATOM      5  C   LIG A   1      -8.851  -1.020 125.224  0.00  0.00    +0.018 C 
ATOM      6  C   LIG A   1      -8.620   0.524 125.209  0.00  0.00    +0.071 C 
ATOM      7  C   LIG A   1      -9.223   1.189 126.477  0.00  0.00    +0.019 C 
ATOM      8  C   LIG A   1      -8.202   1.692 127.486  0.00  0.00    +0.012 C 
ATOM      9  C   LIG A   1      -7.267   2.828 126.963  0.00  0.00    -0.005 C 
ATOM     10  C   LIG A   1      -6.058   3.049 127.918  0.00  0.00    -0.063 C 
ATOM     11  C   LIG A   1      -6.064   2.712 129.226  0.00  0.00    -0.026 C 
ATOM     12  C   LIG A   1      -4.947   3.105 130.153  0.00  0.00    +0.032 C 
ATOM     13  C   LIG A   1      -4.526   4.540 129.806  0.00  0.00    +0.012 C 
ATOM     14  C   LIG A   1      -3.654   5.263 130.875  0.00  0.00    +0.027 C 
ATOM     15  C   LIG A   1      -2.568   4.365 131.496  0.00  0.00    +0.019 C 
ATOM     16  C   LIG A   1      -3.013   6.507 130.241  0.00  0.00    +0.139 C 
ATOM     17  C   LIG A   1      -3.704   7.129 129.040  0.00  0.00    +0.075 C 
ATOM     18  C   LIG A   1      -4.121   6.136 127.945  0.00  0.00    +0.015 C 
ATOM     19  C   LIG A   1      -3.984   4.644 128.338  0.00  0.00    -0.021 C 
ATOM     20  C   LIG A   1      -4.769   3.659 127.373  0.00  0.00    +0.021 C 
ATOM     21  C   LIG A   1      -4.896   4.128 125.921  0.00  0.00    +0.009 C 
ATOM     22  C   LIG A   1      -5.408   2.968 125.073  0.00  0.00    +0.008 C 
ATOM     23  C   LIG A   1      -6.868   2.535 125.425  0.00  0.00    -0.019 C 
ATOM     24  C   LIG A   1      -7.117   0.997 124.978  0.00  0.00    +0.016 C 
ATOM     25  C   LIG A   1      -7.733   3.432 124.465  0.00  0.00    +0.012 C 
ATOM     26  C   LIG A   1      -2.487   4.249 128.199  0.00  0.00    +0.012 C 
ATOM     27  O   LIG A   1      -2.030   7.057 130.742  0.00  0.00    -0.297 OA
ATOM     28  C   LIG A   1      -4.546   5.773 132.026  0.00  0.00    +0.019 C 
ATOM     29  C   LIG A   1      -8.075   4.156 127.144  0.00  0.00    +0.016 C 
ATOM     30  C   LIG A   1      -6.465  -1.749 123.455  0.00  0.00    +0.008 C 
ENDROOT
BRANCH   6  31
ATOM     31  C   LIG A   1      -9.483   0.932 123.988  0.00  0.00    +0.311 C 
ATOM     32  O   LIG A   1      -9.229   0.742 122.810  0.00  0.00    -0.250 OA
BRANCH  31  33
ATOM     33  O   LIG A   1     -10.689   1.439 124.320  0.00  0.00    -0.480 OA
ATOM     34  H   LIG A   1     -10.472   2.305 124.725  0.00  0.00    +0.295 HD
ENDBRANCH  31  33
ENDBRANCH   6  31
TORSDOF 2
ENDMDL
MODEL 7
REMARK VINA RESULT:      -8.8      4.279      7.629
REMARK  Name = NuBBE_1827
REMARK  9 active torsions:
REMARK  status: ('A' for Active; 'I' for Inactive)
REMARK    1  A    between atoms: C_1  and  C_2
REMARK    2  A    between atoms: C_4  and  C_38
REMARK    3  A    between atoms: C_8  and  C_35
REMARK    4  A    between atoms: C_11  and  C_34
REMARK    5  A    between atoms: C_17  and  C_18
REMARK    6  A    between atoms: C_17  and  C_33
REMARK    7  A    between atoms: C_22  and  C_31
REMARK    8  A    between atoms: C_27  and  C_30
REMARK    9  A    between atoms: C_35  and  O_36
REMARK                            x       y       z     vdW  Elec       q    Type
REMARK                         _______ _______ _______ _____ _____    ______ ____
ROOT
ATOM      1  C   LIG A   1      -8.263   1.002 127.289  0.00  0.00    +0.008 C 
ATOM      2  C   LIG A   1      -8.942   0.358 126.077  0.00  0.00    -0.007 C 
ATOM      3  C   LIG A   1      -9.364   1.494 125.119  0.00  0.00    -0.011 C 
ATOM      4  C   LIG A   1      -8.147   2.006 124.357  0.00  0.00    +0.004 C 
ATOM      5  C   LIG A   1      -7.543   0.939 123.473  0.00  0.00    +0.018 C 
ATOM      6  C   LIG A   1      -7.264  -0.449 124.131  0.00  0.00    +0.071 C 
ATOM      7  C   LIG A   1      -5.769  -0.584 124.533  0.00  0.00    +0.019 C 
ATOM      8  C   LIG A   1      -5.500  -0.539 126.029  0.00  0.00    +0.012 C 
ATOM      9  C   LIG A   1      -6.141  -1.706 126.847  0.00  0.00    -0.005 C 
ATOM     10  C   LIG A   1      -6.105  -1.411 128.375  0.00  0.00    -0.063 C 
ATOM     11  C   LIG A   1      -5.223  -0.569 128.956  0.00  0.00    -0.026 C 
ATOM     12  C   LIG A   1      -5.104  -0.450 130.450  0.00  0.00    +0.032 C 
ATOM     13  C   LIG A   1      -5.218  -1.859 131.048  0.00  0.00    +0.012 C 
ATOM     14  C   LIG A   1      -4.752  -2.002 132.527  0.00  0.00    +0.027 C 
ATOM     15  C   LIG A   1      -5.201  -0.839 133.431  0.00  0.00    +0.019 C 
ATOM     16  C   LIG A   1      -5.266  -3.337 133.088  0.00  0.00    +0.139 C 
ATOM     17  C   LIG A   1      -5.566  -4.454 132.102  0.00  0.00    +0.075 C 
ATOM     18  C   LIG A   1      -6.403  -4.037 130.884  0.00  0.00    +0.015 C 
ATOM     19  C   LIG A   1      -6.610  -2.510 130.733  0.00  0.00    -0.021 C 
ATOM     20  C   LIG A   1      -7.125  -2.079 129.295  0.00  0.00    +0.021 C 
ATOM     21  C   LIG A   1      -7.996  -3.111 128.575  0.00  0.00    +0.009 C 
ATOM     22  C   LIG A   1      -8.637  -2.449 127.359  0.00  0.00    +0.008 C 
ATOM     23  C   LIG A   1      -7.609  -2.037 126.257  0.00  0.00    -0.019 C 
ATOM     24  C   LIG A   1      -8.218  -0.845 125.343  0.00  0.00    +0.016 C 
ATOM     25  C   LIG A   1      -7.546  -3.319 125.349  0.00  0.00    +0.012 C 
ATOM     26  C   LIG A   1      -7.734  -2.080 131.717  0.00  0.00    +0.012 C 
ATOM     27  O   LIG A   1      -5.339  -3.547 134.300  0.00  0.00    -0.297 OA
ATOM     28  C   LIG A   1      -3.212  -2.069 132.591  0.00  0.00    +0.019 C 
ATOM     29  C   LIG A   1      -5.145  -2.907 126.720  0.00  0.00    +0.016 C 
ATOM     30  C   LIG A   1     -10.512   1.079 124.193  0.00  0.00    +0.008 C 
ENDROOT
BRANCH   6  31
ATOM     31  C   LIG A   1      -7.533  -1.395 122.932  0.00  0.00    +0.311 C 
ATOM     32  O   LIG A   1      -8.618  -1.710 122.473  0.00  0.00    -0.250 OA
BRANCH  31  33
ATOM     33  O   LIG A   1      -6.414  -1.788 122.288  0.00  0.00    -0.480 OA
ATOM     34  H   LIG A   1      -6.166  -1.004 121.755  0.00  0.00    +0.295 HD
ENDBRANCH  31  33
ENDBRANCH   6  31
TORSDOF 2
ENDMDL
MODEL 8
REMARK VINA RESULT:      -8.7      1.863      2.423
REMARK  Name = NuBBE_1827
REMARK  9 active torsions:
REMARK  status: ('A' for Active; 'I' for Inactive)
REMARK    1  A    between atoms: C_1  and  C_2
REMARK    2  A    between atoms: C_4  and  C_38
REMARK    3  A    between atoms: C_8  and  C_35
REMARK    4  A    between atoms: C_11  and  C_34
REMARK    5  A    between atoms: C_17  and  C_18
REMARK    6  A    between atoms: C_17  and  C_33
REMARK    7  A    between atoms: C_22  and  C_31
REMARK    8  A    between atoms: C_27  and  C_30
REMARK    9  A    between atoms: C_35  and  O_36
REMARK                            x       y       z     vdW  Elec       q    Type
REMARK                         _______ _______ _______ _____ _____    ______ ____
ROOT
ATOM      1  C   LIG A   1      -7.969   0.159 130.713  0.00  0.00    +0.008 C 
ATOM      2  C   LIG A   1      -8.034   1.611 131.194  0.00  0.00    -0.007 C 
ATOM      3  C   LIG A   1      -8.131   1.589 132.736  0.00  0.00    -0.011 C 
ATOM      4  C   LIG A   1      -6.762   1.291 133.335  0.00  0.00    +0.004 C 
ATOM      5  C   LIG A   1      -5.755   2.373 133.010  0.00  0.00    +0.018 C 
ATOM      6  C   LIG A   1      -5.644   2.809 131.516  0.00  0.00    +0.071 C 
ATOM      7  C   LIG A   1      -4.437   2.117 130.822  0.00  0.00    +0.019 C 
ATOM      8  C   LIG A   1      -4.806   1.041 129.814  0.00  0.00    +0.012 C 
ATOM      9  C   LIG A   1      -5.616   1.548 128.578  0.00  0.00    -0.005 C 
ATOM     10  C   LIG A   1      -6.232   0.362 127.781  0.00  0.00    -0.063 C 
ATOM     11  C   LIG A   1      -5.744  -0.897 127.812  0.00  0.00    -0.026 C 
ATOM     12  C   LIG A   1      -6.255  -1.970 126.892  0.00  0.00    +0.032 C 
ATOM     13  C   LIG A   1      -6.475  -1.343 125.507  0.00  0.00    +0.012 C 
ATOM     14  C   LIG A   1      -6.641  -2.349 124.331  0.00  0.00    +0.027 C 
ATOM     15  C   LIG A   1      -7.522  -3.564 124.676  0.00  0.00    +0.019 C 
ATOM     16  C   LIG A   1      -7.215  -1.608 123.114  0.00  0.00    +0.139 C 
ATOM     17  C   LIG A   1      -6.985  -0.109 123.021  0.00  0.00    +0.075 C 
ATOM     18  C   LIG A   1      -7.287   0.675 124.306  0.00  0.00    +0.015 C 
ATOM     19  C   LIG A   1      -7.552  -0.204 125.554  0.00  0.00    -0.021 C 
ATOM     20  C   LIG A   1      -7.473   0.596 126.922  0.00  0.00    +0.021 C 
ATOM     21  C   LIG A   1      -7.878   2.070 126.843  0.00  0.00    +0.009 C 
ATOM     22  C   LIG A   1      -8.026   2.615 128.260  0.00  0.00    +0.008 C 
ATOM     23  C   LIG A   1      -6.680   2.669 129.052  0.00  0.00    -0.019 C 
ATOM     24  C   LIG A   1      -6.969   2.647 130.647  0.00  0.00    +0.016 C 
ATOM     25  C   LIG A   1      -6.136   4.104 128.709  0.00  0.00    +0.012 C 
ATOM     26  C   LIG A   1      -9.013  -0.727 125.468  0.00  0.00    +0.012 C 
ATOM     27  O   LIG A   1      -7.756  -2.209 122.184  0.00  0.00    -0.297 OA
ATOM     28  C   LIG A   1      -5.261  -2.889 123.899  0.00  0.00    +0.019 C 
ATOM     29  C   LIG A   1      -4.550   2.101 127.574  0.00  0.00    +0.016 C 
ATOM     30  C   LIG A   1      -8.760   2.869 133.298  0.00  0.00    +0.008 C 
ENDROOT
BRANCH   6  31
ATOM     31  C   LIG A   1      -5.314   4.314 131.679  0.00  0.00    +0.311 C 
ATOM     32  O   LIG A   1      -6.062   5.193 132.074  0.00  0.00    -0.250 OA
BRANCH  31  33
ATOM     33  O   LIG A   1      -4.016   4.613 131.465  0.00  0.00    -0.480 OA
ATOM     34  H   LIG A   1      -3.789   4.098 130.663  0.00  0.00    +0.295 HD
ENDBRANCH  31  33
ENDBRANCH   6  31
TORSDOF 2
ENDMDL
MODEL 9
REMARK VINA RESULT:      -8.4      3.697      7.637
REMARK  Name = NuBBE_1827
REMARK  9 active torsions:
REMARK  status: ('A' for Active; 'I' for Inactive)
REMARK    1  A    between atoms: C_1  and  C_2
REMARK    2  A    between atoms: C_4  and  C_38
REMARK    3  A    between atoms: C_8  and  C_35
REMARK    4  A    between atoms: C_11  and  C_34
REMARK    5  A    between atoms: C_17  and  C_18
REMARK    6  A    between atoms: C_17  and  C_33
REMARK    7  A    between atoms: C_22  and  C_31
REMARK    8  A    between atoms: C_27  and  C_30
REMARK    9  A    between atoms: C_35  and  O_36
REMARK                            x       y       z     vdW  Elec       q    Type
REMARK                         _______ _______ _______ _____ _____    ______ ____
ROOT
ATOM      1  C   LIG A   1      -6.658  -2.947 125.568  0.00  0.00    +0.008 C 
ATOM      2  C   LIG A   1      -6.355  -1.851 124.542  0.00  0.00    -0.007 C 
ATOM      3  C   LIG A   1      -6.760  -2.387 123.152  0.00  0.00    -0.011 C 
ATOM      4  C   LIG A   1      -8.275  -2.326 122.996  0.00  0.00    +0.004 C 
ATOM      5  C   LIG A   1      -8.792  -0.905 123.046  0.00  0.00    +0.018 C 
ATOM      6  C   LIG A   1      -8.302  -0.016 124.232  0.00  0.00    +0.071 C 
ATOM      7  C   LIG A   1      -9.367   0.043 125.362  0.00  0.00    +0.019 C 
ATOM      8  C   LIG A   1      -9.007  -0.721 126.626  0.00  0.00    +0.012 C 
ATOM      9  C   LIG A   1      -7.741  -0.192 127.374  0.00  0.00    -0.005 C 
ATOM     10  C   LIG A   1      -7.253  -1.210 128.446  0.00  0.00    -0.063 C 
ATOM     11  C   LIG A   1      -8.051  -2.139 129.017  0.00  0.00    -0.026 C 
ATOM     12  C   LIG A   1      -7.588  -2.981 130.173  0.00  0.00    +0.032 C 
ATOM     13  C   LIG A   1      -6.779  -2.082 131.120  0.00  0.00    +0.012 C 
ATOM     14  C   LIG A   1      -6.530  -2.657 132.546  0.00  0.00    +0.027 C 
ATOM     15  C   LIG A   1      -6.171  -4.154 132.554  0.00  0.00    +0.019 C 
ATOM     16  C   LIG A   1      -5.422  -1.842 133.228  0.00  0.00    +0.139 C 
ATOM     17  C   LIG A   1      -5.193  -0.417 132.755  0.00  0.00    +0.075 C 
ATOM     18  C   LIG A   1      -5.110  -0.244 131.232  0.00  0.00    +0.015 C 
ATOM     19  C   LIG A   1      -5.504  -1.500 130.416  0.00  0.00    -0.021 C 
ATOM     20  C   LIG A   1      -5.790  -1.198 128.884  0.00  0.00    +0.021 C 
ATOM     21  C   LIG A   1      -4.995  -0.034 128.287  0.00  0.00    +0.009 C 
ATOM     22  C   LIG A   1      -5.160  -0.055 126.770  0.00  0.00    +0.008 C 
ATOM     23  C   LIG A   1      -6.619   0.245 126.297  0.00  0.00    -0.019 C 
ATOM     24  C   LIG A   1      -6.867  -0.379 124.821  0.00  0.00    +0.016 C 
ATOM     25  C   LIG A   1      -6.613   1.809 126.133  0.00  0.00    +0.012 C 
ATOM     26  C   LIG A   1      -4.292  -2.474 130.423  0.00  0.00    +0.012 C 
ATOM     27  O   LIG A   1      -4.799  -2.279 134.199  0.00  0.00    -0.297 OA
ATOM     28  C   LIG A   1      -7.795  -2.482 133.413  0.00  0.00    +0.019 C 
ATOM     29  C   LIG A   1      -8.241   1.000 128.257  0.00  0.00    +0.016 C 
ATOM     30  C   LIG A   1      -6.018  -1.677 122.015  0.00  0.00    +0.008 C 
ENDROOT
BRANCH   6  31
ATOM     31  C   LIG A   1      -8.242   1.372 123.545  0.00  0.00    +0.311 C 
ATOM     32  O   LIG A   1      -7.369   1.789 122.803  0.00  0.00    -0.250 OA
BRANCH  31  33
ATOM     33  O   LIG A   1      -9.354   2.114 123.722  0.00  0.00    -0.480 OA
ATOM     34  H   LIG A   1     -10.009   1.472 124.066  0.00  0.00    +0.295 HD
ENDBRANCH  31  33
ENDBRANCH   6  31
TORSDOF 2
ENDMDL
