MODEL 1
REMARK VINA RESULT:      -8.8      0.000      0.000
REMARK  Name = NuBBE_589
REMARK  4 active torsions:
REMARK  status: ('A' for Active; 'I' for Inactive)
REMARK    1  A    between atoms: O_1  and  C_2
REMARK    2  A    between atoms: C_2  and  C_19
REMARK    3  A    between atoms: C_10  and  C_15
REMARK    4  A    between atoms: C_12  and  C_14
REMARK                            x       y       z     vdW  Elec       q    Type
REMARK                         _______ _______ _______ _____ _____    ______ ____
ROOT
ATOM      1  C   LIG A   1      -8.329  -1.967 125.499  0.00  0.00    +0.122 C 
ATOM      2  C   LIG A   1      -7.849  -0.609 124.991  0.00  0.00    +0.037 A 
ATOM      3  C   LIG A   1      -8.020   0.546 125.754  0.00  0.00    +0.173 A 
ATOM      4  C   LIG A   1      -7.586   1.786 125.341  0.00  0.00    +0.167 A 
ATOM      5  C   LIG A   1      -6.970   1.969 124.127  0.00  0.00    +0.050 A 
ATOM      6  C   LIG A   1      -6.795   0.847 123.318  0.00  0.00    +0.008 A 
ATOM      7  C   LIG A   1      -7.218  -0.439 123.739  0.00  0.00    -0.037 A 
ATOM      8  C   LIG A   1      -7.033  -1.594 122.786  0.00  0.00    +0.039 C 
ATOM      9  C   LIG A   1      -6.972  -2.953 123.488  0.00  0.00    -0.004 C 
ATOM     10  C   LIG A   1      -8.168  -3.134 124.456  0.00  0.00    +0.030 C 
ATOM     11  C   LIG A   1      -9.454  -3.385 123.640  0.00  0.00    +0.011 C 
ATOM     12  C   LIG A   1      -5.607  -3.176 124.144  0.00  0.00    +0.008 C 
ATOM     13  O   LIG A   1      -7.842   2.764 126.251  0.00  0.00    -0.453 OA
ATOM     14  C   LIG A   1      -8.464   2.002 127.302  0.00  0.00    +0.466 C 
ATOM     15  O   LIG A   1      -8.630   0.608 126.975  0.00  0.00    -0.452 OA
ENDROOT
BRANCH   1  16
ATOM     16  C   LIG A   1      -7.730  -2.400 126.858  0.00  0.00    -0.008 A 
ATOM     17  C   LIG A   1      -6.391  -2.062 127.159  0.00  0.00    +0.056 A 
ATOM     18  C   LIG A   1      -5.845  -2.486 128.351  0.00  0.00    +0.167 A 
ATOM     19  C   LIG A   1      -6.575  -3.208 129.262  0.00  0.00    +0.166 A 
ATOM     20  C   LIG A   1      -7.888  -3.542 129.031  0.00  0.00    +0.050 A 
ATOM     21  C   LIG A   1      -8.465  -3.136 127.821  0.00  0.00    +0.010 A 
ATOM     22  O   LIG A   1      -5.850  -3.537 130.364  0.00  0.00    -0.453 OA
ATOM     23  C   LIG A   1      -4.569  -2.964 130.026  0.00  0.00    +0.466 C 
ATOM     24  O   LIG A   1      -4.567  -2.268 128.763  0.00  0.00    -0.453 OA
ENDBRANCH   1  16
BRANCH   1  25
ATOM     25  O   LIG A   1      -9.742  -1.784 125.741  0.00  0.00    -0.379 OA
ATOM     26  H   LIG A   1      -9.927  -2.243 126.581  0.00  0.00    +0.211 HD
ENDBRANCH   1  25
TORSDOF 2
ENDMDL
MODEL 2
REMARK VINA RESULT:      -8.6      1.889      5.285
REMARK  Name = NuBBE_589
REMARK  4 active torsions:
REMARK  status: ('A' for Active; 'I' for Inactive)
REMARK    1  A    between atoms: O_1  and  C_2
REMARK    2  A    between atoms: C_2  and  C_19
REMARK    3  A    between atoms: C_10  and  C_15
REMARK    4  A    between atoms: C_12  and  C_14
REMARK                            x       y       z     vdW  Elec       q    Type
REMARK                         _______ _______ _______ _____ _____    ______ ____
ROOT
ATOM      1  C   LIG A   1      -6.845  -1.245 125.339  0.00  0.00    +0.122 C 
ATOM      2  C   LIG A   1      -7.510  -2.110 126.407  0.00  0.00    +0.037 A 
ATOM      3  C   LIG A   1      -7.535  -1.710 127.744  0.00  0.00    +0.173 A 
ATOM      4  C   LIG A   1      -8.139  -2.450 128.735  0.00  0.00    +0.167 A 
ATOM      5  C   LIG A   1      -8.743  -3.656 128.471  0.00  0.00    +0.050 A 
ATOM      6  C   LIG A   1      -8.725  -4.109 127.152  0.00  0.00    +0.008 A 
ATOM      7  C   LIG A   1      -8.125  -3.347 126.118  0.00  0.00    -0.037 A 
ATOM      8  C   LIG A   1      -8.110  -3.929 124.726  0.00  0.00    +0.039 C 
ATOM      9  C   LIG A   1      -7.984  -2.869 123.628  0.00  0.00    -0.004 C 
ATOM     10  C   LIG A   1      -6.801  -1.910 123.913  0.00  0.00    +0.030 C 
ATOM     11  C   LIG A   1      -5.471  -2.644 123.639  0.00  0.00    +0.011 C 
ATOM     12  C   LIG A   1      -9.317  -2.153 123.397  0.00  0.00    +0.008 C 
ATOM     13  O   LIG A   1      -8.057  -1.861 129.957  0.00  0.00    -0.453 OA
ATOM     14  C   LIG A   1      -7.356  -0.648 129.629  0.00  0.00    +0.466 C 
ATOM     15  O   LIG A   1      -6.973  -0.568 128.241  0.00  0.00    -0.452 OA
ENDROOT
BRANCH   1  16
ATOM     16  C   LIG A   1      -7.407   0.191 125.223  0.00  0.00    -0.008 A 
ATOM     17  C   LIG A   1      -6.513   1.285 125.263  0.00  0.00    +0.056 A 
ATOM     18  C   LIG A   1      -7.020   2.566 125.203  0.00  0.00    +0.167 A 
ATOM     19  C   LIG A   1      -8.366   2.805 125.082  0.00  0.00    +0.166 A 
ATOM     20  C   LIG A   1      -9.277   1.777 125.013  0.00  0.00    +0.050 A 
ATOM     21  C   LIG A   1      -8.791   0.465 125.086  0.00  0.00    +0.010 A 
ATOM     22  O   LIG A   1      -8.658   4.132 125.053  0.00  0.00    -0.453 OA
ATOM     23  C   LIG A   1      -7.340   4.702 125.199  0.00  0.00    +0.466 C 
ATOM     24  O   LIG A   1      -6.291   3.713 125.264  0.00  0.00    -0.453 OA
ENDBRANCH   1  16
BRANCH   1  25
ATOM     25  O   LIG A   1      -5.482  -1.090 125.794  0.00  0.00    -0.379 OA
ATOM     26  H   LIG A   1      -5.032  -1.926 125.571  0.00  0.00    +0.211 HD
ENDBRANCH   1  25
TORSDOF 2
ENDMDL
MODEL 3
REMARK VINA RESULT:      -7.9      1.780      5.271
REMARK  Name = NuBBE_589
REMARK  4 active torsions:
REMARK  status: ('A' for Active; 'I' for Inactive)
REMARK    1  A    between atoms: O_1  and  C_2
REMARK    2  A    between atoms: C_2  and  C_19
REMARK    3  A    between atoms: C_10  and  C_15
REMARK    4  A    between atoms: C_12  and  C_14
REMARK                            x       y       z     vdW  Elec       q    Type
REMARK                         _______ _______ _______ _____ _____    ______ ____
ROOT
ATOM      1  C   LIG A   1      -6.105  -1.250 127.838  0.00  0.00    +0.122 C 
ATOM      2  C   LIG A   1      -7.001  -0.282 128.607  0.00  0.00    +0.037 A 
ATOM      3  C   LIG A   1      -7.365   0.950 128.062  0.00  0.00    +0.173 A 
ATOM      4  C   LIG A   1      -8.183   1.844 128.713  0.00  0.00    +0.167 A 
ATOM      5  C   LIG A   1      -8.682   1.587 129.967  0.00  0.00    +0.050 A 
ATOM      6  C   LIG A   1      -8.329   0.377 130.564  0.00  0.00    +0.008 A 
ATOM      7  C   LIG A   1      -7.504  -0.563 129.896  0.00  0.00    -0.037 A 
ATOM      8  C   LIG A   1      -7.133  -1.827 130.630  0.00  0.00    +0.039 C 
ATOM      9  C   LIG A   1      -6.756  -2.980 129.695  0.00  0.00    -0.004 C 
ATOM     10  C   LIG A   1      -5.697  -2.531 128.656  0.00  0.00    +0.030 C 
ATOM     11  C   LIG A   1      -4.328  -2.381 129.354  0.00  0.00    +0.011 C 
ATOM     12  C   LIG A   1      -8.001  -3.616 129.071  0.00  0.00    +0.008 C 
ATOM     13  O   LIG A   1      -8.418   2.969 127.987  0.00  0.00    -0.453 OA
ATOM     14  C   LIG A   1      -7.678   2.679 126.787  0.00  0.00    +0.466 C 
ATOM     15  O   LIG A   1      -6.964   1.428 126.846  0.00  0.00    -0.452 OA
ENDROOT
BRANCH   1  16
ATOM     16  C   LIG A   1      -6.646  -1.673 126.452  0.00  0.00    -0.008 A 
ATOM     17  C   LIG A   1      -8.011  -2.015 126.321  0.00  0.00    +0.056 A 
ATOM     18  C   LIG A   1      -8.482  -2.433 125.094  0.00  0.00    +0.167 A 
ATOM     19  C   LIG A   1      -7.665  -2.503 123.993  0.00  0.00    +0.166 A 
ATOM     20  C   LIG A   1      -6.336  -2.158 124.060  0.00  0.00    +0.050 A 
ATOM     21  C   LIG A   1      -5.827  -1.743 125.297  0.00  0.00    +0.010 A 
ATOM     22  O   LIG A   1      -8.320  -2.948 122.889  0.00  0.00    -0.453 OA
ATOM     23  C   LIG A   1      -9.638  -3.179 123.430  0.00  0.00    +0.466 C 
ATOM     24  O   LIG A   1      -9.756  -2.824 124.823  0.00  0.00    -0.453 OA
ENDBRANCH   1  16
BRANCH   1  25
ATOM     25  O   LIG A   1      -4.902  -0.497 127.570  0.00  0.00    -0.379 OA
ATOM     26  H   LIG A   1      -4.702  -0.017 128.395  0.00  0.00    +0.211 HD
ENDBRANCH   1  25
TORSDOF 2
ENDMDL
MODEL 4
REMARK VINA RESULT:      -7.5      6.149      9.384
REMARK  Name = NuBBE_589
REMARK  4 active torsions:
REMARK  status: ('A' for Active; 'I' for Inactive)
REMARK    1  A    between atoms: O_1  and  C_2
REMARK    2  A    between atoms: C_2  and  C_19
REMARK    3  A    between atoms: C_10  and  C_15
REMARK    4  A    between atoms: C_12  and  C_14
REMARK                            x       y       z     vdW  Elec       q    Type
REMARK                         _______ _______ _______ _____ _____    ______ ____
ROOT
ATOM      1  C   LIG A   1      -9.239   4.104 130.402  0.00  0.00    +0.122 C 
ATOM      2  C   LIG A   1      -7.805   3.980 129.891  0.00  0.00    +0.037 A 
ATOM      3  C   LIG A   1      -7.517   4.066 128.529  0.00  0.00    +0.173 A 
ATOM      4  C   LIG A   1      -6.238   3.978 128.028  0.00  0.00    +0.167 A 
ATOM      5  C   LIG A   1      -5.153   3.775 128.847  0.00  0.00    +0.050 A 
ATOM      6  C   LIG A   1      -5.393   3.661 130.216  0.00  0.00    +0.008 A 
ATOM      7  C   LIG A   1      -6.703   3.771 130.747  0.00  0.00    -0.037 A 
ATOM      8  C   LIG A   1      -6.881   3.591 132.234  0.00  0.00    +0.039 C 
ATOM      9  C   LIG A   1      -8.146   4.263 132.777  0.00  0.00    -0.004 C 
ATOM     10  C   LIG A   1      -9.391   3.857 131.949  0.00  0.00    +0.030 C 
ATOM     11  C   LIG A   1      -9.776   2.400 132.284  0.00  0.00    +0.011 C 
ATOM     12  C   LIG A   1      -7.957   5.776 132.904  0.00  0.00    +0.008 C 
ATOM     13  O   LIG A   1      -6.191   4.106 126.675  0.00  0.00    -0.453 OA
ATOM     14  C   LIG A   1      -7.583   4.313 126.373  0.00  0.00    +0.466 C 
ATOM     15  O   LIG A   1      -8.436   4.236 127.532  0.00  0.00    -0.452 OA
ENDROOT
BRANCH   1  16
ATOM     16  C   LIG A   1      -9.955   5.419 130.015  0.00  0.00    -0.008 A 
ATOM     17  C   LIG A   1     -11.342   5.392 129.739  0.00  0.00    +0.056 A 
ATOM     18  C   LIG A   1     -11.970   6.557 129.352  0.00  0.00    +0.167 A 
ATOM     19  C   LIG A   1     -11.289   7.744 129.251  0.00  0.00    +0.166 A 
ATOM     20  C   LIG A   1      -9.947   7.831 129.532  0.00  0.00    +0.050 A 
ATOM     21  C   LIG A   1      -9.279   6.661 129.914  0.00  0.00    +0.010 A 
ATOM     22  O   LIG A   1     -12.088   8.767 128.844  0.00  0.00    -0.453 OA
ATOM     23  C   LIG A   1     -13.344   8.077 128.672  0.00  0.00    +0.466 C 
ATOM     24  O   LIG A   1     -13.284   6.679 129.023  0.00  0.00    -0.453 OA
ENDBRANCH   1  16
BRANCH   1  25
ATOM     25  O   LIG A   1      -9.960   3.056 129.716  0.00  0.00    -0.379 OA
ATOM     26  H   LIG A   1     -10.903   3.222 129.898  0.00  0.00    +0.211 HD
ENDBRANCH   1  25
TORSDOF 2
ENDMDL
MODEL 5
REMARK VINA RESULT:      -7.4      6.533      9.628
REMARK  Name = NuBBE_589
REMARK  4 active torsions:
REMARK  status: ('A' for Active; 'I' for Inactive)
REMARK    1  A    between atoms: O_1  and  C_2
REMARK    2  A    between atoms: C_2  and  C_19
REMARK    3  A    between atoms: C_10  and  C_15
REMARK    4  A    between atoms: C_12  and  C_14
REMARK                            x       y       z     vdW  Elec       q    Type
REMARK                         _______ _______ _______ _____ _____    ______ ____
ROOT
ATOM      1  C   LIG A   1      -3.882   5.243 131.347  0.00  0.00    +0.122 C 
ATOM      2  C   LIG A   1      -3.640   4.515 130.027  0.00  0.00    +0.037 A 
ATOM      3  C   LIG A   1      -4.222   3.272 129.773  0.00  0.00    +0.173 A 
ATOM      4  C   LIG A   1      -4.045   2.590 128.590  0.00  0.00    +0.167 A 
ATOM      5  C   LIG A   1      -3.255   3.087 127.581  0.00  0.00    +0.050 A 
ATOM      6  C   LIG A   1      -2.634   4.317 127.797  0.00  0.00    +0.008 A 
ATOM      7  C   LIG A   1      -2.825   5.039 129.001  0.00  0.00    -0.037 A 
ATOM      8  C   LIG A   1      -2.081   6.341 129.172  0.00  0.00    +0.039 C 
ATOM      9  C   LIG A   1      -2.746   7.290 130.173  0.00  0.00    -0.004 C 
ATOM     10  C   LIG A   1      -3.049   6.567 131.510  0.00  0.00    +0.030 C 
ATOM     11  C   LIG A   1      -1.731   6.350 132.283  0.00  0.00    +0.011 C 
ATOM     12  C   LIG A   1      -3.966   7.979 129.555  0.00  0.00    +0.008 C 
ATOM     13  O   LIG A   1      -4.718   1.410 128.556  0.00  0.00    -0.453 OA
ATOM     14  C   LIG A   1      -5.368   1.429 129.840  0.00  0.00    +0.466 C 
ATOM     15  O   LIG A   1      -5.018   2.577 130.639  0.00  0.00    -0.452 OA
ENDROOT
BRANCH   1  16
ATOM     16  C   LIG A   1      -5.369   5.524 131.670  0.00  0.00    -0.008 A 
ATOM     17  C   LIG A   1      -6.247   5.876 130.619  0.00  0.00    +0.056 A 
ATOM     18  C   LIG A   1      -7.561   6.169 130.915  0.00  0.00    +0.167 A 
ATOM     19  C   LIG A   1      -8.044   6.105 132.198  0.00  0.00    +0.166 A 
ATOM     20  C   LIG A   1      -7.240   5.743 133.253  0.00  0.00    +0.050 A 
ATOM     21  C   LIG A   1      -5.896   5.454 132.984  0.00  0.00    +0.010 A 
ATOM     22  O   LIG A   1      -9.359   6.442 132.276  0.00  0.00    -0.453 OA
ATOM     23  C   LIG A   1      -9.639   6.755 130.895  0.00  0.00    +0.466 C 
ATOM     24  O   LIG A   1      -8.510   6.554 130.020  0.00  0.00    -0.453 OA
ENDBRANCH   1  16
BRANCH   1  25
ATOM     25  O   LIG A   1      -3.436   4.314 132.361  0.00  0.00    -0.379 OA
ATOM     26  H   LIG A   1      -4.248   3.936 132.747  0.00  0.00    +0.211 HD
ENDBRANCH   1  25
TORSDOF 2
ENDMDL
MODEL 6
REMARK VINA RESULT:      -7.4      4.999      8.709
REMARK  Name = NuBBE_589
REMARK  4 active torsions:
REMARK  status: ('A' for Active; 'I' for Inactive)
REMARK    1  A    between atoms: O_1  and  C_2
REMARK    2  A    between atoms: C_2  and  C_19
REMARK    3  A    between atoms: C_10  and  C_15
REMARK    4  A    between atoms: C_12  and  C_14
REMARK                            x       y       z     vdW  Elec       q    Type
REMARK                         _______ _______ _______ _____ _____    ______ ____
ROOT
ATOM      1  C   LIG A   1      -7.945   5.307 130.660  0.00  0.00    +0.122 C 
ATOM      2  C   LIG A   1      -9.347   5.899 130.773  0.00  0.00    +0.037 A 
ATOM      3  C   LIG A   1      -9.992   6.441 129.661  0.00  0.00    +0.173 A 
ATOM      4  C   LIG A   1     -11.262   6.969 129.715  0.00  0.00    +0.167 A 
ATOM      5  C   LIG A   1     -11.975   7.016 130.889  0.00  0.00    +0.050 A 
ATOM      6  C   LIG A   1     -11.365   6.506 132.034  0.00  0.00    +0.008 A 
ATOM      7  C   LIG A   1     -10.066   5.940 131.988  0.00  0.00    -0.037 A 
ATOM      8  C   LIG A   1      -9.460   5.451 133.280  0.00  0.00    +0.039 C 
ATOM      9  C   LIG A   1      -8.376   4.389 133.075  0.00  0.00    -0.004 C 
ATOM     10  C   LIG A   1      -7.326   4.857 132.036  0.00  0.00    +0.030 C 
ATOM     11  C   LIG A   1      -6.430   5.943 132.668  0.00  0.00    +0.011 C 
ATOM     12  C   LIG A   1      -8.992   3.024 132.757  0.00  0.00    +0.008 C 
ATOM     13  O   LIG A   1     -11.696   7.424 128.510  0.00  0.00    -0.453 OA
ATOM     14  C   LIG A   1     -10.569   7.101 127.674  0.00  0.00    +0.466 C 
ATOM     15  O   LIG A   1      -9.464   6.529 128.403  0.00  0.00    -0.452 OA
ENDROOT
BRANCH   1  16
ATOM     16  C   LIG A   1      -7.805   4.160 129.631  0.00  0.00    -0.008 A 
ATOM     17  C   LIG A   1      -6.691   4.148 128.761  0.00  0.00    +0.056 A 
ATOM     18  C   LIG A   1      -6.591   3.150 127.815  0.00  0.00    +0.167 A 
ATOM     19  C   LIG A   1      -7.532   2.156 127.713  0.00  0.00    +0.166 A 
ATOM     20  C   LIG A   1      -8.621   2.105 128.551  0.00  0.00    +0.050 A 
ATOM     21  C   LIG A   1      -8.756   3.115 129.513  0.00  0.00    +0.010 A 
ATOM     22  O   LIG A   1      -7.254   1.279 126.712  0.00  0.00    -0.453 OA
ATOM     23  C   LIG A   1      -6.044   1.855 126.176  0.00  0.00    +0.466 C 
ATOM     24  O   LIG A   1      -5.600   3.026 126.892  0.00  0.00    -0.453 OA
ENDBRANCH   1  16
BRANCH   1  25
ATOM     25  O   LIG A   1      -7.135   6.387 130.145  0.00  0.00    -0.379 OA
ATOM     26  H   LIG A   1      -6.925   6.949 130.914  0.00  0.00    +0.211 HD
ENDBRANCH   1  25
TORSDOF 2
ENDMDL
MODEL 7
REMARK VINA RESULT:      -7.1      6.665      9.956
REMARK  Name = NuBBE_589
REMARK  4 active torsions:
REMARK  status: ('A' for Active; 'I' for Inactive)
REMARK    1  A    between atoms: O_1  and  C_2
REMARK    2  A    between atoms: C_2  and  C_19
REMARK    3  A    between atoms: C_10  and  C_15
REMARK    4  A    between atoms: C_12  and  C_14
REMARK                            x       y       z     vdW  Elec       q    Type
REMARK                         _______ _______ _______ _____ _____    ______ ____
ROOT
ATOM      1  C   LIG A   1      -7.650   4.095 131.109  0.00  0.00    +0.122 C 
ATOM      2  C   LIG A   1      -6.557   4.647 132.022  0.00  0.00    +0.037 A 
ATOM      3  C   LIG A   1      -5.741   5.701 131.610  0.00  0.00    +0.173 A 
ATOM      4  C   LIG A   1      -4.757   6.241 132.408  0.00  0.00    +0.167 A 
ATOM      5  C   LIG A   1      -4.499   5.754 133.667  0.00  0.00    +0.050 A 
ATOM      6  C   LIG A   1      -5.275   4.685 134.115  0.00  0.00    +0.008 A 
ATOM      7  C   LIG A   1      -6.305   4.134 133.312  0.00  0.00    -0.037 A 
ATOM      8  C   LIG A   1      -7.069   2.951 133.854  0.00  0.00    +0.039 C 
ATOM      9  C   LIG A   1      -8.459   2.793 133.233  0.00  0.00    -0.004 C 
ATOM     10  C   LIG A   1      -8.386   2.829 131.685  0.00  0.00    +0.030 C 
ATOM     11  C   LIG A   1      -7.784   1.505 131.171  0.00  0.00    +0.011 C 
ATOM     12  C   LIG A   1      -9.447   3.801 133.827  0.00  0.00    +0.008 C 
ATOM     13  O   LIG A   1      -4.098   7.269 131.810  0.00  0.00    -0.453 OA
ATOM     14  C   LIG A   1      -4.792   7.342 130.551  0.00  0.00    +0.466 C 
ATOM     15  O   LIG A   1      -5.797   6.320 130.393  0.00  0.00    -0.452 OA
ENDROOT
BRANCH   1  16
ATOM     16  C   LIG A   1      -8.696   5.135 130.645  0.00  0.00    -0.008 A 
ATOM     17  C   LIG A   1      -8.930   5.306 129.261  0.00  0.00    +0.056 A 
ATOM     18  C   LIG A   1      -9.831   6.264 128.848  0.00  0.00    +0.167 A 
ATOM     19  C   LIG A   1     -10.522   7.039 129.745  0.00  0.00    +0.166 A 
ATOM     20  C   LIG A   1     -10.351   6.897 131.102  0.00  0.00    +0.050 A 
ATOM     21  C   LIG A   1      -9.431   5.941 131.550  0.00  0.00    +0.010 A 
ATOM     22  O   LIG A   1     -11.349   7.928 129.133  0.00  0.00    -0.453 OA
ATOM     23  C   LIG A   1     -11.075   7.642 127.746  0.00  0.00    +0.466 C 
ATOM     24  O   LIG A   1     -10.135   6.565 127.557  0.00  0.00    -0.453 OA
ENDBRANCH   1  16
BRANCH   1  25
ATOM     25  O   LIG A   1      -6.951   3.690 129.911  0.00  0.00    -0.379 OA
ATOM     26  H   LIG A   1      -7.079   4.416 129.273  0.00  0.00    +0.211 HD
ENDBRANCH   1  25
TORSDOF 2
ENDMDL
MODEL 8
REMARK VINA RESULT:      -7.1      2.179      5.585
REMARK  Name = NuBBE_589
REMARK  4 active torsions:
REMARK  status: ('A' for Active; 'I' for Inactive)
REMARK    1  A    between atoms: O_1  and  C_2
REMARK    2  A    between atoms: C_2  and  C_19
REMARK    3  A    between atoms: C_10  and  C_15
REMARK    4  A    between atoms: C_12  and  C_14
REMARK                            x       y       z     vdW  Elec       q    Type
REMARK                         _______ _______ _______ _____ _____    ______ ____
ROOT
ATOM      1  C   LIG A   1      -6.625  -0.433 127.068  0.00  0.00    +0.122 C 
ATOM      2  C   LIG A   1      -7.356  -1.622 127.688  0.00  0.00    +0.037 A 
ATOM      3  C   LIG A   1      -7.144  -1.983 129.019  0.00  0.00    +0.173 A 
ATOM      4  C   LIG A   1      -7.795  -3.036 129.621  0.00  0.00    +0.167 A 
ATOM      5  C   LIG A   1      -8.688  -3.822 128.934  0.00  0.00    +0.050 A 
ATOM      6  C   LIG A   1      -8.918  -3.514 127.593  0.00  0.00    +0.008 A 
ATOM      7  C   LIG A   1      -8.270  -2.419 126.966  0.00  0.00    -0.037 A 
ATOM      8  C   LIG A   1      -8.540  -2.181 125.501  0.00  0.00    +0.039 C 
ATOM      9  C   LIG A   1      -8.288  -0.735 125.067  0.00  0.00    -0.004 C 
ATOM     10  C   LIG A   1      -6.890  -0.250 125.528  0.00  0.00    +0.030 C 
ATOM     11  C   LIG A   1      -5.805  -0.915 124.655  0.00  0.00    +0.011 C 
ATOM     12  C   LIG A   1      -9.434   0.181 125.506  0.00  0.00    +0.008 C 
ATOM     13  O   LIG A   1      -7.448  -3.194 130.926  0.00  0.00    -0.453 OA
ATOM     14  C   LIG A   1      -6.522  -2.105 131.095  0.00  0.00    +0.466 C 
ATOM     15  O   LIG A   1      -6.282  -1.366 129.880  0.00  0.00    -0.452 OA
ENDROOT
BRANCH   1  16
ATOM     16  C   LIG A   1      -6.846   0.915 127.794  0.00  0.00    -0.008 A 
ATOM     17  C   LIG A   1      -8.135   1.229 128.285  0.00  0.00    +0.056 A 
ATOM     18  C   LIG A   1      -8.341   2.449 128.893  0.00  0.00    +0.167 A 
ATOM     19  C   LIG A   1      -7.322   3.355 129.055  0.00  0.00    +0.166 A 
ATOM     20  C   LIG A   1      -6.046   3.090 128.620  0.00  0.00    +0.050 A 
ATOM     21  C   LIG A   1      -5.811   1.863 127.986  0.00  0.00    +0.010 A 
ATOM     22  O   LIG A   1      -7.737   4.497 129.666  0.00  0.00    -0.453 OA
ATOM     23  C   LIG A   1      -9.141   4.215 129.842  0.00  0.00    +0.466 C 
ATOM     24  O   LIG A   1      -9.526   2.904 129.382  0.00  0.00    -0.453 OA
ENDBRANCH   1  16
BRANCH   1  25
ATOM     25  O   LIG A   1      -5.223  -0.739 127.241  0.00  0.00    -0.379 OA
ATOM     26  H   LIG A   1      -4.887  -0.944 126.349  0.00  0.00    +0.211 HD
ENDBRANCH   1  25
TORSDOF 2
ENDMDL
MODEL 9
REMARK VINA RESULT:      -7.0      1.837      3.947
REMARK  Name = NuBBE_589
REMARK  4 active torsions:
REMARK  status: ('A' for Active; 'I' for Inactive)
REMARK    1  A    between atoms: O_1  and  C_2
REMARK    2  A    between atoms: C_2  and  C_19
REMARK    3  A    between atoms: C_10  and  C_15
REMARK    4  A    between atoms: C_12  and  C_14
REMARK                            x       y       z     vdW  Elec       q    Type
REMARK                         _______ _______ _______ _____ _____    ______ ____
ROOT
ATOM      1  C   LIG A   1      -6.173  -0.177 126.454  0.00  0.00    +0.122 C 
ATOM      2  C   LIG A   1      -7.280  -0.172 125.402  0.00  0.00    +0.037 A 
ATOM      3  C   LIG A   1      -7.597  -1.326 124.685  0.00  0.00    +0.173 A 
ATOM      4  C   LIG A   1      -8.598  -1.369 123.741  0.00  0.00    +0.167 A 
ATOM      5  C   LIG A   1      -9.342  -0.258 123.425  0.00  0.00    +0.050 A 
ATOM      6  C   LIG A   1      -9.048   0.926 124.100  0.00  0.00    +0.008 A 
ATOM      7  C   LIG A   1      -8.034   0.980 125.090  0.00  0.00    -0.037 A 
ATOM      8  C   LIG A   1      -7.749   2.311 125.741  0.00  0.00    +0.039 C 
ATOM      9  C   LIG A   1      -7.098   2.181 127.120  0.00  0.00    -0.004 C 
ATOM     10  C   LIG A   1      -5.869   1.239 127.071  0.00  0.00    +0.030 C 
ATOM     11  C   LIG A   1      -4.701   1.957 126.363  0.00  0.00    +0.011 C 
ATOM     12  C   LIG A   1      -8.129   1.795 128.184  0.00  0.00    +0.008 C 
ATOM     13  O   LIG A   1      -8.743  -2.600 123.182  0.00  0.00    -0.453 OA
ATOM     14  C   LIG A   1      -7.739  -3.344 123.896  0.00  0.00    +0.466 C 
ATOM     15  O   LIG A   1      -6.972  -2.535 124.811  0.00  0.00    -0.452 OA
ENDROOT
BRANCH   1  16
ATOM     16  C   LIG A   1      -6.366  -1.207 127.593  0.00  0.00    -0.008 A 
ATOM     17  C   LIG A   1      -5.245  -1.928 128.065  0.00  0.00    +0.056 A 
ATOM     18  C   LIG A   1      -5.425  -2.876 129.049  0.00  0.00    +0.167 A 
ATOM     19  C   LIG A   1      -6.659  -3.121 129.598  0.00  0.00    +0.166 A 
ATOM     20  C   LIG A   1      -7.777  -2.430 129.194  0.00  0.00    +0.050 A 
ATOM     21  C   LIG A   1      -7.626  -1.471 128.185  0.00  0.00    +0.010 A 
ATOM     22  O   LIG A   1      -6.622  -4.099 130.542  0.00  0.00    -0.453 OA
ATOM     23  C   LIG A   1      -5.226  -4.462 130.501  0.00  0.00    +0.466 C 
ATOM     24  O   LIG A   1      -4.453  -3.668 129.577  0.00  0.00    -0.453 OA
ENDBRANCH   1  16
BRANCH   1  25
ATOM     25  O   LIG A   1      -4.994  -0.609 125.739  0.00  0.00    -0.379 OA
ATOM     26  H   LIG A   1      -4.407   0.169 125.706  0.00  0.00    +0.211 HD
ENDBRANCH   1  25
TORSDOF 2
ENDMDL
