MODEL 1
REMARK VINA RESULT:      -8.2      0.000      0.000
REMARK  Name = NuBBE_271
REMARK  21 active torsions:
REMARK  status: ('A' for Active; 'I' for Inactive)
REMARK    1  A    between atoms: O_1  and  C_2
REMARK    2  A    between atoms: C_2  and  C_3
REMARK    3  A    between atoms: C_6  and  O_8
REMARK    4  A    between atoms: O_8  and  C_9
REMARK    5  A    between atoms: C_11  and  C_12
REMARK    6  A    between atoms: C_13  and  C_14
REMARK    7  A    between atoms: C_14  and  O_15
REMARK    8  A    between atoms: O_15  and  C_16
REMARK    9  A    between atoms: C_19  and  C_43
REMARK   10  A    between atoms: C_21  and  O_42
REMARK   11  A    between atoms: C_23  and  O_41
REMARK   12  A    between atoms: C_25  and  O_27
REMARK   13  A    between atoms: O_27  and  C_28
REMARK   14  A    between atoms: C_30  and  O_40
REMARK   15  A    between atoms: C_32  and  O_39
REMARK   16  A    between atoms: C_34  and  O_38
REMARK   17  A    between atoms: C_43  and  O_44
REMARK   18  A    between atoms: C_48  and  O_49
REMARK   19  A    between atoms: C_50  and  O_58
REMARK   20  A    between atoms: C_52  and  O_57
REMARK   21  A    between atoms: C_54  and  O_56
REMARK                            x       y       z     vdW  Elec       q    Type
REMARK                         _______ _______ _______ _____ _____    ______ ____
ROOT
ATOM      1  C   LIG A   1      -6.740   4.361 128.596  0.00  0.00    +0.334 C 
ATOM      2  O   LIG A   1      -5.661   4.828 128.221  0.00  0.00    -0.245 OA
ENDROOT
BRANCH   1   4
ATOM      3  C   LIG A   1      -7.397   3.525 126.416  0.00  0.00    +0.015 C 
ATOM      4  C   LIG A   1      -7.527   3.467 127.748  0.00  0.00    +0.092 C 
BRANCH   3   7
ATOM      5  C   LIG A   1      -9.402   0.640 125.137  0.00  0.00    +0.166 A 
ATOM      6  C   LIG A   1      -8.685   1.515 125.953  0.00  0.00    +0.057 A 
ATOM      7  C   LIG A   1      -8.161   2.721 125.470  0.00  0.00    -0.021 A 
ATOM      8  C   LIG A   1      -8.300   3.051 124.126  0.00  0.00    +0.012 A 
ATOM      9  C   LIG A   1      -8.996   2.191 123.281  0.00  0.00    +0.050 A 
ATOM     10  C   LIG A   1      -9.551   1.005 123.787  0.00  0.00    +0.159 A 
BRANCH  10  11
ATOM     11  O   LIG A   1     -10.242   0.190 122.929  0.00  0.00    -0.503 OA
ATOM     12  H   LIG A   1     -10.982   0.697 122.556  0.00  0.00    +0.292 HD
ENDBRANCH  10  11
BRANCH   5  13
ATOM     13  O   LIG A   1      -9.957  -0.546 125.573  0.00  0.00    -0.457 OA
BRANCH  13  16
ATOM     14  C   LIG A   1      -6.664  -1.771 126.130  0.00  0.00    +0.179 C 
ATOM     15  O   LIG A   1      -7.881  -1.135 126.558  0.00  0.00    -0.331 OA
ATOM     16  C   LIG A   1      -9.068  -1.634 125.916  0.00  0.00    +0.339 C 
ATOM     17  C   LIG A   1      -8.870  -2.559 124.681  0.00  0.00    +0.214 C 
ATOM     18  C   LIG A   1      -7.574  -2.329 123.891  0.00  0.00    +0.180 C 
ATOM     19  C   LIG A   1      -6.522  -1.506 124.635  0.00  0.00    +0.177 C 
BRANCH  17  20
ATOM     20  O   LIG A   1      -8.834  -3.922 125.181  0.00  0.00    -0.383 OA
ATOM     21  H   LIG A   1      -8.511  -3.891 126.100  0.00  0.00    +0.210 HD
ENDBRANCH  17  20
BRANCH  18  22
ATOM     22  O   LIG A   1      -7.829  -1.727 122.615  0.00  0.00    -0.386 OA
ATOM     23  H   LIG A   1      -8.761  -1.898 122.382  0.00  0.00    +0.210 HD
ENDBRANCH  18  22
BRANCH  19  24
ATOM     24  O   LIG A   1      -5.229  -1.830 124.122  0.00  0.00    -0.387 OA
ATOM     25  H   LIG A   1      -5.333  -2.666 123.624  0.00  0.00    +0.210 HD
ENDBRANCH  19  24
BRANCH  14  26
ATOM     26  C   LIG A   1      -5.487  -1.203 126.935  0.00  0.00    +0.190 C 
BRANCH  26  27
ATOM     27  O   LIG A   1      -5.001   0.001 126.335  0.00  0.00    -0.392 OA
ATOM     28  H   LIG A   1      -5.764   0.421 125.896  0.00  0.00    +0.209 HD
ENDBRANCH  26  27
ENDBRANCH  14  26
ENDBRANCH  13  16
ENDBRANCH   5  13
ENDBRANCH   3   7
ENDBRANCH   1   4
BRANCH   1  29
ATOM     29  O   LIG A   1      -7.383   4.623 129.754  0.00  0.00    -0.429 OA
BRANCH  29  30
ATOM     30  C   LIG A   1      -8.503   3.787 130.024  0.00  0.00    +0.343 C 
ATOM     31  O   LIG A   1      -8.105   2.607 130.721  0.00  0.00    -0.331 OA
ATOM     32  C   LIG A   1      -7.482   2.910 131.969  0.00  0.00    +0.179 C 
ATOM     33  C   LIG A   1      -8.552   3.446 132.918  0.00  0.00    +0.177 C 
ATOM     34  C   LIG A   1      -9.201   4.698 132.309  0.00  0.00    +0.180 C 
ATOM     35  C   LIG A   1      -9.579   4.571 130.816  0.00  0.00    +0.218 C 
BRANCH  33  36
ATOM     36  O   LIG A   1      -8.029   3.833 134.196  0.00  0.00    -0.387 OA
ATOM     37  H   LIG A   1      -7.942   3.019 134.738  0.00  0.00    +0.210 HD
ENDBRANCH  33  36
BRANCH  34  38
ATOM     38  O   LIG A   1     -10.380   5.003 133.082  0.00  0.00    -0.386 OA
ATOM     39  H   LIG A   1     -11.045   4.338 132.812  0.00  0.00    +0.210 HD
ENDBRANCH  34  38
BRANCH  35  40
ATOM     40  O   LIG A   1      -9.795   5.918 130.334  0.00  0.00    -0.360 OA
BRANCH  40  41
ATOM     41  C   LIG A   1     -10.941   6.168 129.511  0.00  0.00    +0.176 C 
ATOM     42  C   LIG A   1     -10.438   6.961 128.292  0.00  0.00    +0.179 C 
ATOM     43  C   LIG A   1     -11.589   7.416 127.393  0.00  0.00    +0.201 C 
ATOM     44  C   LIG A   1     -12.671   8.119 128.229  0.00  0.00    +0.278 C 
ATOM     45  O   LIG A   1     -13.106   7.282 129.297  0.00  0.00    -0.346 OA
ATOM     46  C   LIG A   1     -12.057   6.951 130.205  0.00  0.00    +0.197 C 
BRANCH  44  47
ATOM     47  O   LIG A   1     -12.187   9.364 128.719  0.00  0.00    -0.365 OA
ATOM     48  H   LIG A   1     -12.639  10.037 128.173  0.00  0.00    +0.213 HD
ENDBRANCH  44  47
BRANCH  42  49
ATOM     49  O   LIG A   1      -9.543   6.141 127.512  0.00  0.00    -0.386 OA
ATOM     50  H   LIG A   1      -9.846   6.254 126.590  0.00  0.00    +0.210 HD
ENDBRANCH  42  49
BRANCH  43  51
ATOM     51  O   LIG A   1     -11.085   8.314 126.390  0.00  0.00    -0.384 OA
ATOM     52  H   LIG A   1     -11.517   9.173 126.572  0.00  0.00    +0.210 HD
ENDBRANCH  43  51
ENDBRANCH  40  41
ENDBRANCH  35  40
BRANCH  32  53
ATOM     53  C   LIG A   1      -6.782   1.648 132.476  0.00  0.00    +0.190 C 
BRANCH  53  54
ATOM     54  O   LIG A   1      -7.565   1.006 133.480  0.00  0.00    -0.392 OA
ATOM     55  H   LIG A   1      -7.448   0.044 133.368  0.00  0.00    +0.209 HD
ENDBRANCH  53  54
ENDBRANCH  32  53
ENDBRANCH  29  30
ENDBRANCH   1  29
TORSDOF 21
ENDMDL
MODEL 2
REMARK VINA RESULT:      -8.1      1.877      8.822
REMARK  Name = NuBBE_271
REMARK  21 active torsions:
REMARK  status: ('A' for Active; 'I' for Inactive)
REMARK    1  A    between atoms: O_1  and  C_2
REMARK    2  A    between atoms: C_2  and  C_3
REMARK    3  A    between atoms: C_6  and  O_8
REMARK    4  A    between atoms: O_8  and  C_9
REMARK    5  A    between atoms: C_11  and  C_12
REMARK    6  A    between atoms: C_13  and  C_14
REMARK    7  A    between atoms: C_14  and  O_15
REMARK    8  A    between atoms: O_15  and  C_16
REMARK    9  A    between atoms: C_19  and  C_43
REMARK   10  A    between atoms: C_21  and  O_42
REMARK   11  A    between atoms: C_23  and  O_41
REMARK   12  A    between atoms: C_25  and  O_27
REMARK   13  A    between atoms: O_27  and  C_28
REMARK   14  A    between atoms: C_30  and  O_40
REMARK   15  A    between atoms: C_32  and  O_39
REMARK   16  A    between atoms: C_34  and  O_38
REMARK   17  A    between atoms: C_43  and  O_44
REMARK   18  A    between atoms: C_48  and  O_49
REMARK   19  A    between atoms: C_50  and  O_58
REMARK   20  A    between atoms: C_52  and  O_57
REMARK   21  A    between atoms: C_54  and  O_56
REMARK                            x       y       z     vdW  Elec       q    Type
REMARK                         _______ _______ _______ _____ _____    ______ ____
ROOT
ATOM      1  C   LIG A   1      -7.461  -0.284 128.437  0.00  0.00    +0.334 C 
ATOM      2  O   LIG A   1      -6.705  -1.119 128.940  0.00  0.00    -0.245 OA
ENDROOT
BRANCH   1   4
ATOM      3  C   LIG A   1      -8.322   0.794 130.432  0.00  0.00    +0.015 C 
ATOM      4  C   LIG A   1      -7.887   0.907 129.170  0.00  0.00    +0.092 C 
BRANCH   3   7
ATOM      5  C   LIG A   1     -10.179   3.929 131.268  0.00  0.00    +0.166 A 
ATOM      6  C   LIG A   1      -9.670   2.810 130.610  0.00  0.00    +0.057 A 
ATOM      7  C   LIG A   1      -8.816   1.899 131.244  0.00  0.00    -0.021 A 
ATOM      8  C   LIG A   1      -8.405   2.127 132.554  0.00  0.00    +0.012 A 
ATOM      9  C   LIG A   1      -8.882   3.243 133.234  0.00  0.00    +0.050 A 
ATOM     10  C   LIG A   1      -9.770   4.127 132.599  0.00  0.00    +0.159 A 
BRANCH  10  11
ATOM     11  O   LIG A   1     -10.230   5.207 133.305  0.00  0.00    -0.503 OA
ATOM     12  H   LIG A   1     -10.820   5.720 132.728  0.00  0.00    +0.292 HD
ENDBRANCH  10  11
BRANCH   5  13
ATOM     13  O   LIG A   1     -11.042   4.840 130.694  0.00  0.00    -0.457 OA
BRANCH  13  16
ATOM     14  C   LIG A   1     -11.659   8.196 129.687  0.00  0.00    +0.179 C 
ATOM     15  O   LIG A   1     -11.841   7.069 130.563  0.00  0.00    -0.331 OA
ATOM     16  C   LIG A   1     -10.676   6.239 130.713  0.00  0.00    +0.339 C 
ATOM     17  C   LIG A   1      -9.498   6.487 129.726  0.00  0.00    +0.214 C 
ATOM     18  C   LIG A   1      -9.898   7.060 128.360  0.00  0.00    +0.180 C 
ATOM     19  C   LIG A   1     -11.312   7.641 128.309  0.00  0.00    +0.177 C 
BRANCH  17  20
ATOM     20  O   LIG A   1      -8.620   7.455 130.360  0.00  0.00    -0.383 OA
ATOM     21  H   LIG A   1      -7.784   7.001 130.572  0.00  0.00    +0.210 HD
ENDBRANCH  17  20
BRANCH  18  22
ATOM     22  O   LIG A   1      -9.748   6.092 127.313  0.00  0.00    -0.386 OA
ATOM     23  H   LIG A   1      -9.164   6.474 126.631  0.00  0.00    +0.210 HD
ENDBRANCH  18  22
BRANCH  19  24
ATOM     24  O   LIG A   1     -11.377   8.619 127.272  0.00  0.00    -0.387 OA
ATOM     25  H   LIG A   1     -10.566   9.160 127.352  0.00  0.00    +0.210 HD
ENDBRANCH  19  24
BRANCH  14  26
ATOM     26  C   LIG A   1     -12.943   9.034 129.669  0.00  0.00    +0.190 C 
BRANCH  26  27
ATOM     27  O   LIG A   1     -12.732  10.265 128.969  0.00  0.00    -0.392 OA
ATOM     28  H   LIG A   1     -13.565  10.467 128.506  0.00  0.00    +0.209 HD
ENDBRANCH  26  27
ENDBRANCH  14  26
ENDBRANCH  13  16
ENDBRANCH   5  13
ENDBRANCH   3   7
ENDBRANCH   1   4
BRANCH   1  29
ATOM     29  O   LIG A   1      -8.049  -0.342 127.223  0.00  0.00    -0.429 OA
BRANCH  29  30
ATOM     30  C   LIG A   1      -7.202  -0.016 126.126  0.00  0.00    +0.343 C 
ATOM     31  O   LIG A   1      -6.797  -1.192 125.425  0.00  0.00    -0.331 OA
ATOM     32  C   LIG A   1      -7.913  -1.915 124.908  0.00  0.00    +0.179 C 
ATOM     33  C   LIG A   1      -8.517  -1.103 123.764  0.00  0.00    +0.177 C 
ATOM     34  C   LIG A   1      -8.949   0.277 124.282  0.00  0.00    +0.180 C 
ATOM     35  C   LIG A   1      -7.910   0.985 125.180  0.00  0.00    +0.218 C 
BRANCH  33  36
ATOM     36  O   LIG A   1      -9.684  -1.714 123.195  0.00  0.00    -0.387 OA
ATOM     37  H   LIG A   1      -9.445  -2.027 122.296  0.00  0.00    +0.210 HD
ENDBRANCH  33  36
BRANCH  34  38
ATOM     38  O   LIG A   1      -9.244   1.105 123.139  0.00  0.00    -0.386 OA
ATOM     39  H   LIG A   1      -8.986   0.572 122.360  0.00  0.00    +0.210 HD
ENDBRANCH  34  38
BRANCH  35  40
ATOM     40  O   LIG A   1      -8.621   2.040 125.871  0.00  0.00    -0.360 OA
BRANCH  40  41
ATOM     41  C   LIG A   1      -7.984   3.318 125.994  0.00  0.00    +0.176 C 
ATOM     42  C   LIG A   1      -7.296   3.592 124.645  0.00  0.00    +0.179 C 
ATOM     43  C   LIG A   1      -6.456   4.871 124.682  0.00  0.00    +0.201 C 
ATOM     44  C   LIG A   1      -5.521   4.857 125.902  0.00  0.00    +0.278 C 
ATOM     45  O   LIG A   1      -6.260   4.650 127.102  0.00  0.00    -0.346 OA
ATOM     46  C   LIG A   1      -6.952   3.403 127.120  0.00  0.00    +0.197 C 
BRANCH  44  47
ATOM     47  O   LIG A   1      -4.514   3.863 125.744  0.00  0.00    -0.365 OA
ATOM     48  H   LIG A   1      -3.931   4.212 125.041  0.00  0.00    +0.213 HD
ENDBRANCH  44  47
BRANCH  42  49
ATOM     49  O   LIG A   1      -8.290   3.727 123.608  0.00  0.00    -0.386 OA
ATOM     50  H   LIG A   1      -8.174   2.934 123.050  0.00  0.00    +0.210 HD
ENDBRANCH  42  49
BRANCH  43  51
ATOM     51  O   LIG A   1      -5.683   4.970 123.474  0.00  0.00    -0.384 OA
ATOM     52  H   LIG A   1      -4.750   4.885 123.757  0.00  0.00    +0.210 HD
ENDBRANCH  43  51
ENDBRANCH  40  41
ENDBRANCH  35  40
BRANCH  32  53
ATOM     53  C   LIG A   1      -7.433  -3.306 124.492  0.00  0.00    +0.190 C 
BRANCH  53  54
ATOM     54  O   LIG A   1      -8.539  -4.186 124.305  0.00  0.00    -0.392 OA
ATOM     55  H   LIG A   1      -9.076  -3.826 123.574  0.00  0.00    +0.209 HD
ENDBRANCH  53  54
ENDBRANCH  32  53
ENDBRANCH  29  30
ENDBRANCH   1  29
TORSDOF 21
ENDMDL
MODEL 3
REMARK VINA RESULT:      -7.9      0.951      2.061
REMARK  Name = NuBBE_271
REMARK  21 active torsions:
REMARK  status: ('A' for Active; 'I' for Inactive)
REMARK    1  A    between atoms: O_1  and  C_2
REMARK    2  A    between atoms: C_2  and  C_3
REMARK    3  A    between atoms: C_6  and  O_8
REMARK    4  A    between atoms: O_8  and  C_9
REMARK    5  A    between atoms: C_11  and  C_12
REMARK    6  A    between atoms: C_13  and  C_14
REMARK    7  A    between atoms: C_14  and  O_15
REMARK    8  A    between atoms: O_15  and  C_16
REMARK    9  A    between atoms: C_19  and  C_43
REMARK   10  A    between atoms: C_21  and  O_42
REMARK   11  A    between atoms: C_23  and  O_41
REMARK   12  A    between atoms: C_25  and  O_27
REMARK   13  A    between atoms: O_27  and  C_28
REMARK   14  A    between atoms: C_30  and  O_40
REMARK   15  A    between atoms: C_32  and  O_39
REMARK   16  A    between atoms: C_34  and  O_38
REMARK   17  A    between atoms: C_43  and  O_44
REMARK   18  A    between atoms: C_48  and  O_49
REMARK   19  A    between atoms: C_50  and  O_58
REMARK   20  A    between atoms: C_52  and  O_57
REMARK   21  A    between atoms: C_54  and  O_56
REMARK                            x       y       z     vdW  Elec       q    Type
REMARK                         _______ _______ _______ _____ _____    ______ ____
ROOT
ATOM      1  C   LIG A   1      -6.819   4.225 128.297  0.00  0.00    +0.334 C 
ATOM      2  O   LIG A   1      -5.952   4.935 127.779  0.00  0.00    -0.245 OA
ENDROOT
BRANCH   1   4
ATOM      3  C   LIG A   1      -7.303   3.069 126.221  0.00  0.00    +0.015 C 
ATOM      4  C   LIG A   1      -7.544   3.213 127.531  0.00  0.00    +0.092 C 
BRANCH   3   7
ATOM      5  C   LIG A   1      -7.740   0.254 123.799  0.00  0.00    +0.166 A 
ATOM      6  C   LIG A   1      -7.202   1.183 124.689  0.00  0.00    +0.057 A 
ATOM      7  C   LIG A   1      -7.996   2.130 125.347  0.00  0.00    -0.021 A 
ATOM      8  C   LIG A   1      -9.359   2.201 125.078  0.00  0.00    +0.012 A 
ATOM      9  C   LIG A   1      -9.926   1.299 124.182  0.00  0.00    +0.050 A 
ATOM     10  C   LIG A   1      -9.124   0.329 123.560  0.00  0.00    +0.159 A 
BRANCH  10  11
ATOM     11  O   LIG A   1      -9.719  -0.551 122.695  0.00  0.00    -0.503 OA
ATOM     12  H   LIG A   1      -9.999  -1.333 123.199  0.00  0.00    +0.292 HD
ENDBRANCH  10  11
BRANCH   5  13
ATOM     13  O   LIG A   1      -7.002  -0.712 123.146  0.00  0.00    -0.457 OA
BRANCH  13  16
ATOM     14  C   LIG A   1      -7.775  -2.945 125.806  0.00  0.00    +0.179 C 
ATOM     15  O   LIG A   1      -8.039  -2.335 124.530  0.00  0.00    -0.331 OA
ATOM     16  C   LIG A   1      -6.861  -2.008 123.772  0.00  0.00    +0.339 C 
ATOM     17  C   LIG A   1      -5.496  -2.085 124.516  0.00  0.00    +0.214 C 
ATOM     18  C   LIG A   1      -5.561  -1.847 126.031  0.00  0.00    +0.180 C 
ATOM     19  C   LIG A   1      -6.968  -1.941 126.623  0.00  0.00    +0.177 C 
BRANCH  17  20
ATOM     20  O   LIG A   1      -4.986  -3.430 124.313  0.00  0.00    -0.383 OA
ATOM     21  H   LIG A   1      -4.115  -3.354 123.884  0.00  0.00    +0.210 HD
ENDBRANCH  17  20
BRANCH  18  22
ATOM     22  O   LIG A   1      -4.979  -0.589 126.397  0.00  0.00    -0.386 OA
ATOM     23  H   LIG A   1      -4.332  -0.345 125.708  0.00  0.00    +0.210 HD
ENDBRANCH  18  22
BRANCH  19  24
ATOM     24  O   LIG A   1      -6.870  -2.285 128.005  0.00  0.00    -0.387 OA
ATOM     25  H   LIG A   1      -7.172  -3.212 128.080  0.00  0.00    +0.210 HD
ENDBRANCH  19  24
BRANCH  14  26
ATOM     26  C   LIG A   1      -9.104  -3.307 126.478  0.00  0.00    +0.190 C 
BRANCH  26  27
ATOM     27  O   LIG A   1     -10.209  -2.916 125.657  0.00  0.00    -0.392 OA
ATOM     28  H   LIG A   1     -10.898  -3.595 125.775  0.00  0.00    +0.209 HD
ENDBRANCH  26  27
ENDBRANCH  14  26
ENDBRANCH  13  16
ENDBRANCH   5  13
ENDBRANCH   3   7
ENDBRANCH   1   4
BRANCH   1  29
ATOM     29  O   LIG A   1      -7.274   4.290 129.567  0.00  0.00    -0.429 OA
BRANCH  29  30
ATOM     30  C   LIG A   1      -8.441   3.520 129.830  0.00  0.00    +0.343 C 
ATOM     31  O   LIG A   1      -8.117   2.324 130.538  0.00  0.00    -0.331 OA
ATOM     32  C   LIG A   1      -7.491   2.600 131.790  0.00  0.00    +0.179 C 
ATOM     33  C   LIG A   1      -8.539   3.200 132.725  0.00  0.00    +0.177 C 
ATOM     34  C   LIG A   1      -9.112   4.483 132.102  0.00  0.00    +0.180 C 
ATOM     35  C   LIG A   1      -9.480   4.367 130.605  0.00  0.00    +0.218 C 
BRANCH  33  36
ATOM     36  O   LIG A   1      -8.009   3.566 134.006  0.00  0.00    -0.387 OA
ATOM     37  H   LIG A   1      -8.707   4.064 134.483  0.00  0.00    +0.210 HD
ENDBRANCH  33  36
BRANCH  34  38
ATOM     38  O   LIG A   1     -10.280   4.858 132.860  0.00  0.00    -0.386 OA
ATOM     39  H   LIG A   1      -9.944   5.399 133.602  0.00  0.00    +0.210 HD
ENDBRANCH  34  38
BRANCH  35  40
ATOM     40  O   LIG A   1      -9.615   5.722 130.113  0.00  0.00    -0.360 OA
BRANCH  40  41
ATOM     41  C   LIG A   1     -10.790   6.055 129.363  0.00  0.00    +0.176 C 
ATOM     42  C   LIG A   1     -10.312   6.864 128.144  0.00  0.00    +0.179 C 
ATOM     43  C   LIG A   1     -11.485   7.406 127.324  0.00  0.00    +0.201 C 
ATOM     44  C   LIG A   1     -12.484   8.132 128.240  0.00  0.00    +0.278 C 
ATOM     45  O   LIG A   1     -12.904   7.282 129.303  0.00  0.00    -0.346 OA
ATOM     46  C   LIG A   1     -11.826   6.868 130.141  0.00  0.00    +0.197 C 
BRANCH  44  47
ATOM     47  O   LIG A   1     -11.912   9.335 128.742  0.00  0.00    -0.365 OA
ATOM     48  H   LIG A   1     -11.362   9.672 128.008  0.00  0.00    +0.213 HD
ENDBRANCH  44  47
BRANCH  42  49
ATOM     49  O   LIG A   1      -9.503   6.029 127.290  0.00  0.00    -0.386 OA
ATOM     50  H   LIG A   1      -9.318   5.234 127.827  0.00  0.00    +0.210 HD
ENDBRANCH  42  49
BRANCH  43  51
ATOM     51  O   LIG A   1     -10.990   8.312 126.324  0.00  0.00    -0.384 OA
ATOM     52  H   LIG A   1     -10.181   7.889 125.970  0.00  0.00    +0.210 HD
ENDBRANCH  43  51
ENDBRANCH  40  41
ENDBRANCH  35  40
BRANCH  32  53
ATOM     53  C   LIG A   1      -6.868   1.304 132.312  0.00  0.00    +0.190 C 
BRANCH  53  54
ATOM     54  O   LIG A   1      -7.428   0.948 133.574  0.00  0.00    -0.392 OA
ATOM     55  H   LIG A   1      -8.191   0.366 133.399  0.00  0.00    +0.209 HD
ENDBRANCH  53  54
ENDBRANCH  32  53
ENDBRANCH  29  30
ENDBRANCH   1  29
TORSDOF 21
ENDMDL
MODEL 4
REMARK VINA RESULT:      -7.8      1.459      2.281
REMARK  Name = NuBBE_271
REMARK  21 active torsions:
REMARK  status: ('A' for Active; 'I' for Inactive)
REMARK    1  A    between atoms: O_1  and  C_2
REMARK    2  A    between atoms: C_2  and  C_3
REMARK    3  A    between atoms: C_6  and  O_8
REMARK    4  A    between atoms: O_8  and  C_9
REMARK    5  A    between atoms: C_11  and  C_12
REMARK    6  A    between atoms: C_13  and  C_14
REMARK    7  A    between atoms: C_14  and  O_15
REMARK    8  A    between atoms: O_15  and  C_16
REMARK    9  A    between atoms: C_19  and  C_43
REMARK   10  A    between atoms: C_21  and  O_42
REMARK   11  A    between atoms: C_23  and  O_41
REMARK   12  A    between atoms: C_25  and  O_27
REMARK   13  A    between atoms: O_27  and  C_28
REMARK   14  A    between atoms: C_30  and  O_40
REMARK   15  A    between atoms: C_32  and  O_39
REMARK   16  A    between atoms: C_34  and  O_38
REMARK   17  A    between atoms: C_43  and  O_44
REMARK   18  A    between atoms: C_48  and  O_49
REMARK   19  A    between atoms: C_50  and  O_58
REMARK   20  A    between atoms: C_52  and  O_57
REMARK   21  A    between atoms: C_54  and  O_56
REMARK                            x       y       z     vdW  Elec       q    Type
REMARK                         _______ _______ _______ _____ _____    ______ ____
ROOT
ATOM      1  C   LIG A   1      -5.951   4.702 129.920  0.00  0.00    +0.334 C 
ATOM      2  O   LIG A   1      -4.761   4.695 130.245  0.00  0.00    -0.245 OA
ENDROOT
BRANCH   1   4
ATOM      3  C   LIG A   1      -5.485   4.217 127.589  0.00  0.00    +0.015 C 
ATOM      4  C   LIG A   1      -6.384   4.316 128.578  0.00  0.00    +0.092 C 
BRANCH   3   7
ATOM      5  C   LIG A   1      -6.369   2.096 124.639  0.00  0.00    +0.166 A 
ATOM      6  C   LIG A   1      -6.085   2.544 125.929  0.00  0.00    +0.057 A 
ATOM      7  C   LIG A   1      -5.805   3.888 126.205  0.00  0.00    -0.021 A 
ATOM      8  C   LIG A   1      -5.748   4.814 125.168  0.00  0.00    +0.012 A 
ATOM      9  C   LIG A   1      -6.010   4.396 123.867  0.00  0.00    +0.050 A 
ATOM     10  C   LIG A   1      -6.329   3.053 123.610  0.00  0.00    +0.159 A 
BRANCH  10  11
ATOM     11  O   LIG A   1      -6.595   2.682 122.318  0.00  0.00    -0.503 OA
ATOM     12  H   LIG A   1      -7.360   2.084 122.324  0.00  0.00    +0.292 HD
ENDBRANCH  10  11
BRANCH   5  13
ATOM     13  O   LIG A   1      -6.674   0.788 124.323  0.00  0.00    -0.457 OA
BRANCH  13  16
ATOM     14  C   LIG A   1      -8.520  -1.863 125.813  0.00  0.00    +0.179 C 
ATOM     15  O   LIG A   1      -7.720  -0.669 125.875  0.00  0.00    -0.331 OA
ATOM     16  C   LIG A   1      -7.933   0.246 124.785  0.00  0.00    +0.339 C 
ATOM     17  C   LIG A   1      -8.755  -0.277 123.572  0.00  0.00    +0.214 C 
ATOM     18  C   LIG A   1      -8.688  -1.792 123.338  0.00  0.00    +0.180 C 
ATOM     19  C   LIG A   1      -8.142  -2.589 124.525  0.00  0.00    +0.177 C 
BRANCH  17  20
ATOM     20  O   LIG A   1     -10.144   0.058 123.834  0.00  0.00    -0.383 OA
ATOM     21  H   LIG A   1     -10.156   0.793 124.472  0.00  0.00    +0.210 HD
ENDBRANCH  17  20
BRANCH  18  22
ATOM     22  O   LIG A   1      -7.930  -2.116 122.165  0.00  0.00    -0.386 OA
ATOM     23  H   LIG A   1      -8.532  -2.080 121.398  0.00  0.00    +0.210 HD
ENDBRANCH  18  22
BRANCH  19  24
ATOM     24  O   LIG A   1      -8.644  -3.924 124.459  0.00  0.00    -0.387 OA
ATOM     25  H   LIG A   1      -7.882  -4.513 124.626  0.00  0.00    +0.210 HD
ENDBRANCH  19  24
BRANCH  14  26
ATOM     26  C   LIG A   1      -8.254  -2.716 127.059  0.00  0.00    +0.190 C 
BRANCH  26  27
ATOM     27  O   LIG A   1      -9.286  -3.691 127.233  0.00  0.00    -0.392 OA
ATOM     28  H   LIG A   1      -9.216  -4.010 128.151  0.00  0.00    +0.209 HD
ENDBRANCH  26  27
ENDBRANCH  14  26
ENDBRANCH  13  16
ENDBRANCH   5  13
ENDBRANCH   3   7
ENDBRANCH   1   4
BRANCH   1  29
ATOM     29  O   LIG A   1      -6.998   5.105 130.671  0.00  0.00    -0.429 OA
BRANCH  29  30
ATOM     30  C   LIG A   1      -8.073   4.175 130.754  0.00  0.00    +0.343 C 
ATOM     31  O   LIG A   1      -7.776   3.130 131.679  0.00  0.00    -0.331 OA
ATOM     32  C   LIG A   1      -7.539   3.633 132.993  0.00  0.00    +0.179 C 
ATOM     33  C   LIG A   1      -8.866   4.136 133.558  0.00  0.00    +0.177 C 
ATOM     34  C   LIG A   1      -9.434   5.232 132.644  0.00  0.00    +0.180 C 
ATOM     35  C   LIG A   1      -9.385   4.906 131.134  0.00  0.00    +0.218 C 
BRANCH  33  36
ATOM     36  O   LIG A   1      -8.740   4.714 134.865  0.00  0.00    -0.387 OA
ATOM     37  H   LIG A   1      -9.573   5.196 135.056  0.00  0.00    +0.210 HD
ENDBRANCH  33  36
BRANCH  34  38
ATOM     38  O   LIG A   1     -10.799   5.475 133.042  0.00  0.00    -0.386 OA
ATOM     39  H   LIG A   1     -10.745   6.146 133.752  0.00  0.00    +0.210 HD
ENDBRANCH  34  38
BRANCH  35  40
ATOM     40  O   LIG A   1      -9.579   6.160 130.439  0.00  0.00    -0.360 OA
BRANCH  40  41
ATOM     41  C   LIG A   1     -10.745   6.307 129.618  0.00  0.00    +0.176 C 
ATOM     42  C   LIG A   1     -10.280   6.989 128.320  0.00  0.00    +0.179 C 
ATOM     43  C   LIG A   1     -11.455   7.332 127.403  0.00  0.00    +0.201 C 
ATOM     44  C   LIG A   1     -12.538   8.091 128.188  0.00  0.00    +0.278 C 
ATOM     45  O   LIG A   1     -12.937   7.352 129.339  0.00  0.00    -0.346 OA
ATOM     46  C   LIG A   1     -11.866   7.131 130.255  0.00  0.00    +0.197 C 
BRANCH  44  47
ATOM     47  O   LIG A   1     -12.072   9.387 128.548  0.00  0.00    -0.365 OA
ATOM     48  H   LIG A   1     -12.739  10.000 128.179  0.00  0.00    +0.213 HD
ENDBRANCH  44  47
BRANCH  42  49
ATOM     49  O   LIG A   1      -9.380   6.115 127.604  0.00  0.00    -0.386 OA
ATOM     50  H   LIG A   1      -9.061   5.485 128.279  0.00  0.00    +0.210 HD
ENDBRANCH  42  49
BRANCH  43  51
ATOM     51  O   LIG A   1     -10.988   8.140 126.309  0.00  0.00    -0.384 OA
ATOM     52  H   LIG A   1     -10.422   7.547 125.773  0.00  0.00    +0.210 HD
ENDBRANCH  43  51
ENDBRANCH  40  41
ENDBRANCH  35  40
BRANCH  32  53
ATOM     53  C   LIG A   1      -6.895   2.523 133.824  0.00  0.00    +0.190 C 
BRANCH  53  54
ATOM     54  O   LIG A   1      -7.438   1.252 133.475  0.00  0.00    -0.392 OA
ATOM     55  H   LIG A   1      -7.453   1.200 132.501  0.00  0.00    +0.209 HD
ENDBRANCH  53  54
ENDBRANCH  32  53
ENDBRANCH  29  30
ENDBRANCH   1  29
TORSDOF 21
ENDMDL
MODEL 5
REMARK VINA RESULT:      -7.8      2.328      5.557
REMARK  Name = NuBBE_271
REMARK  21 active torsions:
REMARK  status: ('A' for Active; 'I' for Inactive)
REMARK    1  A    between atoms: O_1  and  C_2
REMARK    2  A    between atoms: C_2  and  C_3
REMARK    3  A    between atoms: C_6  and  O_8
REMARK    4  A    between atoms: O_8  and  C_9
REMARK    5  A    between atoms: C_11  and  C_12
REMARK    6  A    between atoms: C_13  and  C_14
REMARK    7  A    between atoms: C_14  and  O_15
REMARK    8  A    between atoms: O_15  and  C_16
REMARK    9  A    between atoms: C_19  and  C_43
REMARK   10  A    between atoms: C_21  and  O_42
REMARK   11  A    between atoms: C_23  and  O_41
REMARK   12  A    between atoms: C_25  and  O_27
REMARK   13  A    between atoms: O_27  and  C_28
REMARK   14  A    between atoms: C_30  and  O_40
REMARK   15  A    between atoms: C_32  and  O_39
REMARK   16  A    between atoms: C_34  and  O_38
REMARK   17  A    between atoms: C_43  and  O_44
REMARK   18  A    between atoms: C_48  and  O_49
REMARK   19  A    between atoms: C_50  and  O_58
REMARK   20  A    between atoms: C_52  and  O_57
REMARK   21  A    between atoms: C_54  and  O_56
REMARK                            x       y       z     vdW  Elec       q    Type
REMARK                         _______ _______ _______ _____ _____    ______ ____
ROOT
ATOM      1  C   LIG A   1      -8.413   1.103 130.443  0.00  0.00    +0.334 C 
ATOM      2  O   LIG A   1      -8.887   0.210 131.151  0.00  0.00    -0.245 OA
ENDROOT
BRANCH   1   4
ATOM      3  C   LIG A   1      -7.719  -0.450 128.714  0.00  0.00    +0.015 C 
ATOM      4  C   LIG A   1      -7.821   0.817 129.138  0.00  0.00    +0.092 C 
BRANCH   3   7
ATOM      5  C   LIG A   1      -7.505  -1.429 125.112  0.00  0.00    +0.166 A 
ATOM      6  C   LIG A   1      -7.964  -1.007 126.360  0.00  0.00    +0.057 A 
ATOM      7  C   LIG A   1      -7.106  -0.860 127.457  0.00  0.00    -0.021 A 
ATOM      8  C   LIG A   1      -5.760  -1.192 127.337  0.00  0.00    +0.012 A 
ATOM      9  C   LIG A   1      -5.274  -1.632 126.109  0.00  0.00    +0.050 A 
ATOM     10  C   LIG A   1      -6.137  -1.737 125.007  0.00  0.00    +0.159 A 
BRANCH  10  11
ATOM     11  O   LIG A   1      -5.619  -2.159 123.812  0.00  0.00    -0.503 OA
ATOM     12  H   LIG A   1      -4.699  -1.853 123.751  0.00  0.00    +0.292 HD
ENDBRANCH  10  11
BRANCH   5  13
ATOM     13  O   LIG A   1      -8.307  -1.565 123.998  0.00  0.00    -0.457 OA
BRANCH  13  16
ATOM     14  C   LIG A   1      -7.828   1.899 123.347  0.00  0.00    +0.179 C 
ATOM     15  O   LIG A   1      -7.411   0.523 123.318  0.00  0.00    -0.331 OA
ATOM     16  C   LIG A   1      -8.483  -0.419 123.134  0.00  0.00    +0.339 C 
ATOM     17  C   LIG A   1      -9.935   0.125 123.273  0.00  0.00    +0.214 C 
ATOM     18  C   LIG A   1     -10.093   1.343 124.193  0.00  0.00    +0.180 C 
ATOM     19  C   LIG A   1      -8.781   2.054 124.528  0.00  0.00    +0.177 C 
BRANCH  17  20
ATOM     20  O   LIG A   1     -10.358   0.530 121.944  0.00  0.00    -0.383 OA
ATOM     21  H   LIG A   1      -9.620   1.017 121.534  0.00  0.00    +0.210 HD
ENDBRANCH  17  20
BRANCH  18  22
ATOM     22  O   LIG A   1     -10.771   1.005 125.410  0.00  0.00    -0.386 OA
ATOM     23  H   LIG A   1     -10.906   0.039 125.421  0.00  0.00    +0.210 HD
ENDBRANCH  18  22
BRANCH  19  24
ATOM     24  O   LIG A   1      -9.060   3.415 124.857  0.00  0.00    -0.387 OA
ATOM     25  H   LIG A   1      -9.024   3.475 125.832  0.00  0.00    +0.210 HD
ENDBRANCH  19  24
BRANCH  14  26
ATOM     26  C   LIG A   1      -6.593   2.799 123.475  0.00  0.00    +0.190 C 
BRANCH  26  27
ATOM     27  O   LIG A   1      -6.148   2.854 124.834  0.00  0.00    -0.392 OA
ATOM     28  H   LIG A   1      -6.639   3.582 125.258  0.00  0.00    +0.209 HD
ENDBRANCH  26  27
ENDBRANCH  14  26
ENDBRANCH  13  16
ENDBRANCH   5  13
ENDBRANCH   3   7
ENDBRANCH   1   4
BRANCH   1  29
ATOM     29  O   LIG A   1      -8.302   2.414 130.750  0.00  0.00    -0.429 OA
BRANCH  29  30
ATOM     30  C   LIG A   1      -8.191   3.288 129.632  0.00  0.00    +0.343 C 
ATOM     31  O   LIG A   1      -9.417   3.982 129.402  0.00  0.00    -0.331 OA
ATOM     32  C   LIG A   1      -9.802   4.769 130.528  0.00  0.00    +0.179 C 
ATOM     33  C   LIG A   1      -8.834   5.944 130.642  0.00  0.00    +0.177 C 
ATOM     34  C   LIG A   1      -7.400   5.418 130.805  0.00  0.00    +0.180 C 
ATOM     35  C   LIG A   1      -7.016   4.275 129.838  0.00  0.00    +0.218 C 
BRANCH  33  36
ATOM     36  O   LIG A   1      -9.096   6.783 131.776  0.00  0.00    -0.387 OA
ATOM     37  H   LIG A   1      -9.877   6.412 132.243  0.00  0.00    +0.210 HD
ENDBRANCH  33  36
BRANCH  34  38
ATOM     38  O   LIG A   1      -6.498   6.528 130.624  0.00  0.00    -0.386 OA
ATOM     39  H   LIG A   1      -6.426   6.949 131.504  0.00  0.00    +0.210 HD
ENDBRANCH  34  38
BRANCH  35  40
ATOM     40  O   LIG A   1      -5.824   3.662 130.384  0.00  0.00    -0.360 OA
BRANCH  40  41
ATOM     41  C   LIG A   1      -4.775   3.297 129.479  0.00  0.00    +0.176 C 
ATOM     42  C   LIG A   1      -3.931   4.565 129.258  0.00  0.00    +0.179 C 
ATOM     43  C   LIG A   1      -2.848   4.353 128.198  0.00  0.00    +0.201 C 
ATOM     44  C   LIG A   1      -3.462   3.747 126.926  0.00  0.00    +0.278 C 
ATOM     45  O   LIG A   1      -4.176   2.551 127.230  0.00  0.00    -0.346 OA
ATOM     46  C   LIG A   1      -5.261   2.767 128.129  0.00  0.00    +0.197 C 
BRANCH  44  47
ATOM     47  O   LIG A   1      -4.305   4.696 126.282  0.00  0.00    -0.365 OA
ATOM     48  H   LIG A   1      -5.008   4.885 126.935  0.00  0.00    +0.213 HD
ENDBRANCH  44  47
BRANCH  42  49
ATOM     49  O   LIG A   1      -3.292   4.948 130.495  0.00  0.00    -0.386 OA
ATOM     50  H   LIG A   1      -3.261   5.924 130.465  0.00  0.00    +0.210 HD
ENDBRANCH  42  49
BRANCH  43  51
ATOM     51  O   LIG A   1      -2.228   5.612 127.890  0.00  0.00    -0.384 OA
ATOM     52  H   LIG A   1      -1.292   5.513 128.161  0.00  0.00    +0.210 HD
ENDBRANCH  43  51
ENDBRANCH  40  41
ENDBRANCH  35  40
BRANCH  32  53
ATOM     53  C   LIG A   1     -11.262   5.187 130.345  0.00  0.00    +0.190 C 
BRANCH  53  54
ATOM     54  O   LIG A   1     -11.783   5.743 131.551  0.00  0.00    -0.392 OA
ATOM     55  H   LIG A   1     -11.023   6.037 132.086  0.00  0.00    +0.209 HD
ENDBRANCH  53  54
ENDBRANCH  32  53
ENDBRANCH  29  30
ENDBRANCH   1  29
TORSDOF 21
ENDMDL
MODEL 6
REMARK VINA RESULT:      -7.7      2.156      5.816
REMARK  Name = NuBBE_271
REMARK  21 active torsions:
REMARK  status: ('A' for Active; 'I' for Inactive)
REMARK    1  A    between atoms: O_1  and  C_2
REMARK    2  A    between atoms: C_2  and  C_3
REMARK    3  A    between atoms: C_6  and  O_8
REMARK    4  A    between atoms: O_8  and  C_9
REMARK    5  A    between atoms: C_11  and  C_12
REMARK    6  A    between atoms: C_13  and  C_14
REMARK    7  A    between atoms: C_14  and  O_15
REMARK    8  A    between atoms: O_15  and  C_16
REMARK    9  A    between atoms: C_19  and  C_43
REMARK   10  A    between atoms: C_21  and  O_42
REMARK   11  A    between atoms: C_23  and  O_41
REMARK   12  A    between atoms: C_25  and  O_27
REMARK   13  A    between atoms: O_27  and  C_28
REMARK   14  A    between atoms: C_30  and  O_40
REMARK   15  A    between atoms: C_32  and  O_39
REMARK   16  A    between atoms: C_34  and  O_38
REMARK   17  A    between atoms: C_43  and  O_44
REMARK   18  A    between atoms: C_48  and  O_49
REMARK   19  A    between atoms: C_50  and  O_58
REMARK   20  A    between atoms: C_52  and  O_57
REMARK   21  A    between atoms: C_54  and  O_56
REMARK                            x       y       z     vdW  Elec       q    Type
REMARK                         _______ _______ _______ _____ _____    ______ ____
ROOT
ATOM      1  C   LIG A   1      -7.973   4.132 128.178  0.00  0.00    +0.334 C 
ATOM      2  O   LIG A   1      -6.934   4.689 127.812  0.00  0.00    -0.245 OA
ENDROOT
BRANCH   1   4
ATOM      3  C   LIG A   1      -7.935   2.030 126.967  0.00  0.00    +0.015 C 
ATOM      4  C   LIG A   1      -8.126   2.679 128.124  0.00  0.00    +0.092 C 
BRANCH   3   7
ATOM      5  C   LIG A   1      -7.176  -1.621 127.242  0.00  0.00    +0.166 A 
ATOM      6  C   LIG A   1      -7.145  -0.233 127.377  0.00  0.00    +0.057 A 
ATOM      7  C   LIG A   1      -8.105   0.594 126.781  0.00  0.00    -0.021 A 
ATOM      8  C   LIG A   1      -9.098   0.041 125.980  0.00  0.00    +0.012 A 
ATOM      9  C   LIG A   1      -9.148  -1.339 125.811  0.00  0.00    +0.050 A 
ATOM     10  C   LIG A   1      -8.203  -2.160 126.447  0.00  0.00    +0.159 A 
BRANCH  10  11
ATOM     11  O   LIG A   1      -8.292  -3.516 126.269  0.00  0.00    -0.503 OA
ATOM     12  H   LIG A   1      -7.714  -3.766 125.530  0.00  0.00    +0.292 HD
ENDBRANCH  10  11
BRANCH   5  13
ATOM     13  O   LIG A   1      -6.267  -2.477 127.829  0.00  0.00    -0.457 OA
BRANCH  13  16
ATOM     14  C   LIG A   1      -7.137  -1.259 131.057  0.00  0.00    +0.179 C 
ATOM     15  O   LIG A   1      -7.433  -1.935 129.822  0.00  0.00    -0.331 OA
ATOM     16  C   LIG A   1      -6.325  -2.662 129.263  0.00  0.00    +0.339 C 
ATOM     17  C   LIG A   1      -4.922  -2.403 129.882  0.00  0.00    +0.214 C 
ATOM     18  C   LIG A   1      -4.729  -1.015 130.510  0.00  0.00    +0.180 C 
ATOM     19  C   LIG A   1      -6.031  -0.251 130.761  0.00  0.00    +0.177 C 
BRANCH  17  20
ATOM     20  O   LIG A   1      -4.745  -3.382 130.940  0.00  0.00    -0.383 OA
ATOM     21  H   LIG A   1      -4.690  -2.899 131.784  0.00  0.00    +0.210 HD
ENDBRANCH  17  20
BRANCH  18  22
ATOM     22  O   LIG A   1      -3.846  -0.198 129.731  0.00  0.00    -0.386 OA
ATOM     23  H   LIG A   1      -4.188   0.716 129.747  0.00  0.00    +0.210 HD
ENDBRANCH  18  22
BRANCH  19  24
ATOM     24  O   LIG A   1      -5.823   0.688 131.816  0.00  0.00    -0.387 OA
ATOM     25  H   LIG A   1      -5.707   0.163 132.633  0.00  0.00    +0.210 HD
ENDBRANCH  19  24
BRANCH  14  26
ATOM     26  C   LIG A   1      -8.410  -0.586 131.583  0.00  0.00    +0.190 C 
BRANCH  26  27
ATOM     27  O   LIG A   1      -8.732   0.567 130.799  0.00  0.00    -0.392 OA
ATOM     28  H   LIG A   1      -8.076   1.250 131.026  0.00  0.00    +0.209 HD
ENDBRANCH  26  27
ENDBRANCH  14  26
ENDBRANCH  13  16
ENDBRANCH   5  13
ENDBRANCH   3   7
ENDBRANCH   1   4
BRANCH   1  29
ATOM     29  O   LIG A   1      -9.109   4.724 128.605  0.00  0.00    -0.429 OA
BRANCH  29  30
ATOM     30  C   LIG A   1      -8.927   5.742 129.582  0.00  0.00    +0.343 C 
ATOM     31  O   LIG A   1      -9.321   7.016 129.074  0.00  0.00    -0.331 OA
ATOM     32  C   LIG A   1     -10.693   7.033 128.684  0.00  0.00    +0.179 C 
ATOM     33  C   LIG A   1     -11.549   6.961 129.947  0.00  0.00    +0.177 C 
ATOM     34  C   LIG A   1     -11.215   5.679 130.725  0.00  0.00    +0.180 C 
ATOM     35  C   LIG A   1      -9.704   5.389 130.875  0.00  0.00    +0.218 C 
BRANCH  33  36
ATOM     36  O   LIG A   1     -12.956   6.921 129.673  0.00  0.00    -0.387 OA
ATOM     37  H   LIG A   1     -13.299   7.837 129.755  0.00  0.00    +0.210 HD
ENDBRANCH  33  36
BRANCH  34  38
ATOM     38  O   LIG A   1     -11.819   5.784 132.030  0.00  0.00    -0.386 OA
ATOM     39  H   LIG A   1     -12.783   5.721 131.874  0.00  0.00    +0.210 HD
ENDBRANCH  34  38
BRANCH  35  40
ATOM     40  O   LIG A   1      -9.593   3.999 131.263  0.00  0.00    -0.360 OA
BRANCH  40  41
ATOM     41  C   LIG A   1      -8.599   3.645 132.234  0.00  0.00    +0.176 C 
ATOM     42  C   LIG A   1      -8.886   4.499 133.482  0.00  0.00    +0.179 C 
ATOM     43  C   LIG A   1      -7.810   4.320 134.555  0.00  0.00    +0.201 C 
ATOM     44  C   LIG A   1      -6.412   4.506 133.942  0.00  0.00    +0.278 C 
ATOM     45  O   LIG A   1      -6.229   3.635 132.830  0.00  0.00    -0.346 OA
ATOM     46  C   LIG A   1      -7.158   3.877 131.776  0.00  0.00    +0.197 C 
BRANCH  44  47
ATOM     47  O   LIG A   1      -6.213   5.864 133.566  0.00  0.00    -0.365 OA
ATOM     48  H   LIG A   1      -5.280   6.049 133.793  0.00  0.00    +0.213 HD
ENDBRANCH  44  47
BRANCH  42  49
ATOM     49  O   LIG A   1     -10.162   4.128 134.045  0.00  0.00    -0.386 OA
ATOM     50  H   LIG A   1     -10.477   3.395 133.481  0.00  0.00    +0.210 HD
ENDBRANCH  42  49
BRANCH  43  51
ATOM     51  O   LIG A   1      -8.017   5.282 135.603  0.00  0.00    -0.384 OA
ATOM     52  H   LIG A   1      -8.985   5.420 135.640  0.00  0.00    +0.210 HD
ENDBRANCH  43  51
ENDBRANCH  40  41
ENDBRANCH  35  40
BRANCH  32  53
ATOM     53  C   LIG A   1     -10.939   8.286 127.842  0.00  0.00    +0.190 C 
BRANCH  53  54
ATOM     54  O   LIG A   1     -11.820   9.182 128.515  0.00  0.00    -0.392 OA
ATOM     55  H   LIG A   1     -11.485  10.086 128.366  0.00  0.00    +0.209 HD
ENDBRANCH  53  54
ENDBRANCH  32  53
ENDBRANCH  29  30
ENDBRANCH   1  29
TORSDOF 21
ENDMDL
MODEL 7
REMARK VINA RESULT:      -7.7      2.672      3.781
REMARK  Name = NuBBE_271
REMARK  21 active torsions:
REMARK  status: ('A' for Active; 'I' for Inactive)
REMARK    1  A    between atoms: O_1  and  C_2
REMARK    2  A    between atoms: C_2  and  C_3
REMARK    3  A    between atoms: C_6  and  O_8
REMARK    4  A    between atoms: O_8  and  C_9
REMARK    5  A    between atoms: C_11  and  C_12
REMARK    6  A    between atoms: C_13  and  C_14
REMARK    7  A    between atoms: C_14  and  O_15
REMARK    8  A    between atoms: O_15  and  C_16
REMARK    9  A    between atoms: C_19  and  C_43
REMARK   10  A    between atoms: C_21  and  O_42
REMARK   11  A    between atoms: C_23  and  O_41
REMARK   12  A    between atoms: C_25  and  O_27
REMARK   13  A    between atoms: O_27  and  C_28
REMARK   14  A    between atoms: C_30  and  O_40
REMARK   15  A    between atoms: C_32  and  O_39
REMARK   16  A    between atoms: C_34  and  O_38
REMARK   17  A    between atoms: C_43  and  O_44
REMARK   18  A    between atoms: C_48  and  O_49
REMARK   19  A    between atoms: C_50  and  O_58
REMARK   20  A    between atoms: C_52  and  O_57
REMARK   21  A    between atoms: C_54  and  O_56
REMARK                            x       y       z     vdW  Elec       q    Type
REMARK                         _______ _______ _______ _____ _____    ______ ____
ROOT
ATOM      1  C   LIG A   1      -7.647   3.806 128.680  0.00  0.00    +0.334 C 
ATOM      2  O   LIG A   1      -7.552   4.589 127.730  0.00  0.00    -0.245 OA
ENDROOT
BRANCH   1   4
ATOM      3  C   LIG A   1      -8.169   1.861 127.327  0.00  0.00    +0.015 C 
ATOM      4  C   LIG A   1      -7.704   2.359 128.481  0.00  0.00    +0.092 C 
BRANCH   3   7
ATOM      5  C   LIG A   1      -7.703  -1.829 127.704  0.00  0.00    +0.166 A 
ATOM      6  C   LIG A   1      -7.668  -0.448 127.899  0.00  0.00    +0.057 A 
ATOM      7  C   LIG A   1      -8.316   0.441 127.033  0.00  0.00    -0.021 A 
ATOM      8  C   LIG A   1      -8.975  -0.040 125.906  0.00  0.00    +0.012 A 
ATOM      9  C   LIG A   1      -9.015  -1.412 125.674  0.00  0.00    +0.050 A 
ATOM     10  C   LIG A   1      -8.395  -2.296 126.572  0.00  0.00    +0.159 A 
BRANCH  10  11
ATOM     11  O   LIG A   1      -8.467  -3.640 126.318  0.00  0.00    -0.503 OA
ATOM     12  H   LIG A   1      -9.293  -3.816 125.839  0.00  0.00    +0.292 HD
ENDBRANCH  10  11
BRANCH   5  13
ATOM     13  O   LIG A   1      -7.101  -2.745 128.542  0.00  0.00    -0.457 OA
BRANCH  13  16
ATOM     14  C   LIG A   1      -4.473  -2.120 130.857  0.00  0.00    +0.179 C 
ATOM     15  O   LIG A   1      -5.338  -1.743 129.771  0.00  0.00    -0.331 OA
ATOM     16  C   LIG A   1      -6.663  -2.298 129.846  0.00  0.00    +0.339 C 
ATOM     17  C   LIG A   1      -6.901  -3.424 130.894  0.00  0.00    +0.214 C 
ATOM     18  C   LIG A   1      -5.664  -4.262 131.248  0.00  0.00    +0.180 C 
ATOM     19  C   LIG A   1      -4.337  -3.639 130.813  0.00  0.00    +0.177 C 
BRANCH  17  20
ATOM     20  O   LIG A   1      -7.344  -2.772 132.114  0.00  0.00    -0.383 OA
ATOM     21  H   LIG A   1      -8.068  -2.164 131.878  0.00  0.00    +0.210 HD
ENDBRANCH  17  20
BRANCH  18  22
ATOM     22  O   LIG A   1      -5.756  -5.592 130.722  0.00  0.00    -0.386 OA
ATOM     23  H   LIG A   1      -6.036  -5.529 129.790  0.00  0.00    +0.210 HD
ENDBRANCH  18  22
BRANCH  19  24
ATOM     24  O   LIG A   1      -3.293  -4.138 131.650  0.00  0.00    -0.387 OA
ATOM     25  H   LIG A   1      -2.506  -3.587 131.467  0.00  0.00    +0.210 HD
ENDBRANCH  19  24
BRANCH  14  26
ATOM     26  C   LIG A   1      -3.123  -1.411 130.699  0.00  0.00    +0.190 C 
BRANCH  26  27
ATOM     27  O   LIG A   1      -2.261  -2.154 129.831  0.00  0.00    -0.392 OA
ATOM     28  H   LIG A   1      -1.570  -2.546 130.395  0.00  0.00    +0.209 HD
ENDBRANCH  26  27
ENDBRANCH  14  26
ENDBRANCH  13  16
ENDBRANCH   5  13
ENDBRANCH   3   7
ENDBRANCH   1   4
BRANCH   1  29
ATOM     29  O   LIG A   1      -7.774   4.122 129.986  0.00  0.00    -0.429 OA
BRANCH  29  30
ATOM     30  C   LIG A   1      -9.004   3.727 130.585  0.00  0.00    +0.343 C 
ATOM     31  O   LIG A   1      -8.779   2.835 131.676  0.00  0.00    -0.331 OA
ATOM     32  C   LIG A   1      -7.975   3.430 132.694  0.00  0.00    +0.179 C 
ATOM     33  C   LIG A   1      -8.803   4.511 133.385  0.00  0.00    +0.177 C 
ATOM     34  C   LIG A   1      -9.248   5.559 132.354  0.00  0.00    +0.180 C 
ATOM     35  C   LIG A   1      -9.805   4.974 131.035  0.00  0.00    +0.218 C 
BRANCH  33  36
ATOM     36  O   LIG A   1      -8.076   5.215 134.401  0.00  0.00    -0.387 OA
ATOM     37  H   LIG A   1      -7.353   5.709 133.957  0.00  0.00    +0.210 HD
ENDBRANCH  33  36
BRANCH  34  38
ATOM     38  O   LIG A   1     -10.249   6.391 132.974  0.00  0.00    -0.386 OA
ATOM     39  H   LIG A   1     -10.999   6.405 132.346  0.00  0.00    +0.210 HD
ENDBRANCH  34  38
BRANCH  35  40
ATOM     40  O   LIG A   1      -9.794   6.056 130.074  0.00  0.00    -0.360 OA
BRANCH  40  41
ATOM     41  C   LIG A   1     -10.979   6.285 129.300  0.00  0.00    +0.176 C 
ATOM     42  C   LIG A   1     -10.533   7.039 128.035  0.00  0.00    +0.179 C 
ATOM     43  C   LIG A   1     -11.724   7.472 127.178  0.00  0.00    +0.201 C 
ATOM     44  C   LIG A   1     -12.763   8.205 128.044  0.00  0.00    +0.278 C 
ATOM     45  O   LIG A   1     -13.148   7.403 129.157  0.00  0.00    -0.346 OA
ATOM     46  C   LIG A   1     -12.058   7.094 130.023  0.00  0.00    +0.197 C 
BRANCH  44  47
ATOM     47  O   LIG A   1     -12.252   9.462 128.473  0.00  0.00    -0.365 OA
ATOM     48  H   LIG A   1     -11.830   9.842 127.677  0.00  0.00    +0.213 HD
ENDBRANCH  44  47
BRANCH  42  49
ATOM     49  O   LIG A   1      -9.679   6.192 127.237  0.00  0.00    -0.386 OA
ATOM     50  H   LIG A   1      -8.773   6.498 127.436  0.00  0.00    +0.210 HD
ENDBRANCH  42  49
BRANCH  43  51
ATOM     51  O   LIG A   1     -11.267   8.337 126.126  0.00  0.00    -0.384 OA
ATOM     52  H   LIG A   1     -10.591   8.913 126.540  0.00  0.00    +0.210 HD
ENDBRANCH  43  51
ENDBRANCH  40  41
ENDBRANCH  35  40
BRANCH  32  53
ATOM     53  C   LIG A   1      -7.494   2.324 133.634  0.00  0.00    +0.190 C 
BRANCH  53  54
ATOM     54  O   LIG A   1      -6.450   2.799 134.480  0.00  0.00    -0.392 OA
ATOM     55  H   LIG A   1      -6.354   2.160 135.210  0.00  0.00    +0.209 HD
ENDBRANCH  53  54
ENDBRANCH  32  53
ENDBRANCH  29  30
ENDBRANCH   1  29
TORSDOF 21
ENDMDL
MODEL 8
REMARK VINA RESULT:      -7.7      2.462      5.721
REMARK  Name = NuBBE_271
REMARK  21 active torsions:
REMARK  status: ('A' for Active; 'I' for Inactive)
REMARK    1  A    between atoms: O_1  and  C_2
REMARK    2  A    between atoms: C_2  and  C_3
REMARK    3  A    between atoms: C_6  and  O_8
REMARK    4  A    between atoms: O_8  and  C_9
REMARK    5  A    between atoms: C_11  and  C_12
REMARK    6  A    between atoms: C_13  and  C_14
REMARK    7  A    between atoms: C_14  and  O_15
REMARK    8  A    between atoms: O_15  and  C_16
REMARK    9  A    between atoms: C_19  and  C_43
REMARK   10  A    between atoms: C_21  and  O_42
REMARK   11  A    between atoms: C_23  and  O_41
REMARK   12  A    between atoms: C_25  and  O_27
REMARK   13  A    between atoms: O_27  and  C_28
REMARK   14  A    between atoms: C_30  and  O_40
REMARK   15  A    between atoms: C_32  and  O_39
REMARK   16  A    between atoms: C_34  and  O_38
REMARK   17  A    between atoms: C_43  and  O_44
REMARK   18  A    between atoms: C_48  and  O_49
REMARK   19  A    between atoms: C_50  and  O_58
REMARK   20  A    between atoms: C_52  and  O_57
REMARK   21  A    between atoms: C_54  and  O_56
REMARK                            x       y       z     vdW  Elec       q    Type
REMARK                         _______ _______ _______ _____ _____    ______ ____
ROOT
ATOM      1  C   LIG A   1      -8.461   1.208 130.356  0.00  0.00    +0.334 C 
ATOM      2  O   LIG A   1      -8.551   0.228 131.101  0.00  0.00    -0.245 OA
ENDROOT
BRANCH   1   4
ATOM      3  C   LIG A   1      -7.475   0.096 128.439  0.00  0.00    +0.015 C 
ATOM      4  C   LIG A   1      -8.271   1.063 128.914  0.00  0.00    +0.092 C 
BRANCH   3   7
ATOM      5  C   LIG A   1      -7.999   0.105 124.737  0.00  0.00    +0.166 A 
ATOM      6  C   LIG A   1      -8.152   0.286 126.112  0.00  0.00    +0.057 A 
ATOM      7  C   LIG A   1      -7.173  -0.115 127.029  0.00  0.00    -0.021 A 
ATOM      8  C   LIG A   1      -6.028  -0.766 126.583  0.00  0.00    +0.012 A 
ATOM      9  C   LIG A   1      -5.851  -0.978 125.219  0.00  0.00    +0.050 A 
ATOM     10  C   LIG A   1      -6.823  -0.535 124.307  0.00  0.00    +0.159 A 
BRANCH  10  11
ATOM     11  O   LIG A   1      -6.608  -0.748 122.971  0.00  0.00    -0.503 OA
ATOM     12  H   LIG A   1      -7.470  -0.840 122.533  0.00  0.00    +0.292 HD
ENDBRANCH  10  11
BRANCH   5  13
ATOM     13  O   LIG A   1      -8.924   0.504 123.795  0.00  0.00    -0.457 OA
BRANCH  13  16
ATOM     14  C   LIG A   1      -8.261   3.517 122.024  0.00  0.00    +0.179 C 
ATOM     15  O   LIG A   1      -8.973   2.284 122.228  0.00  0.00    -0.331 OA
ATOM     16  C   LIG A   1      -9.148   1.921 123.610  0.00  0.00    +0.339 C 
ATOM     17  C   LIG A   1      -8.329   2.723 124.662  0.00  0.00    +0.214 C 
ATOM     18  C   LIG A   1      -7.005   3.310 124.154  0.00  0.00    +0.180 C 
ATOM     19  C   LIG A   1      -6.872   3.339 122.630  0.00  0.00    +0.177 C 
BRANCH  17  20
ATOM     20  O   LIG A   1      -9.163   3.838 125.078  0.00  0.00    -0.383 OA
ATOM     21  H   LIG A   1      -9.495   4.275 124.273  0.00  0.00    +0.210 HD
ENDBRANCH  17  20
BRANCH  18  22
ATOM     22  O   LIG A   1      -5.873   2.631 124.713  0.00  0.00    -0.386 OA
ATOM     23  H   LIG A   1      -5.380   2.215 123.981  0.00  0.00    +0.210 HD
ENDBRANCH  18  22
BRANCH  19  24
ATOM     24  O   LIG A   1      -5.957   4.370 122.262  0.00  0.00    -0.387 OA
ATOM     25  H   LIG A   1      -6.397   4.892 121.562  0.00  0.00    +0.210 HD
ENDBRANCH  19  24
BRANCH  14  26
ATOM     26  C   LIG A   1      -8.204   3.826 120.523  0.00  0.00    +0.190 C 
BRANCH  26  27
ATOM     27  O   LIG A   1      -9.509   3.745 119.942  0.00  0.00    -0.392 OA
ATOM     28  H   LIG A   1     -10.083   4.335 120.465  0.00  0.00    +0.209 HD
ENDBRANCH  26  27
ENDBRANCH  14  26
ENDBRANCH  13  16
ENDBRANCH   5  13
ENDBRANCH   3   7
ENDBRANCH   1   4
BRANCH   1  29
ATOM     29  O   LIG A   1      -8.454   2.509 130.719  0.00  0.00    -0.429 OA
BRANCH  29  30
ATOM     30  C   LIG A   1      -8.380   3.435 129.640  0.00  0.00    +0.343 C 
ATOM     31  O   LIG A   1      -9.620   4.121 129.468  0.00  0.00    -0.331 OA
ATOM     32  C   LIG A   1      -9.993   4.849 130.638  0.00  0.00    +0.179 C 
ATOM     33  C   LIG A   1      -9.039   6.032 130.786  0.00  0.00    +0.177 C 
ATOM     34  C   LIG A   1      -7.594   5.521 130.894  0.00  0.00    +0.180 C 
ATOM     35  C   LIG A   1      -7.215   4.430 129.867  0.00  0.00    +0.218 C 
BRANCH  33  36
ATOM     36  O   LIG A   1      -9.289   6.813 131.963  0.00  0.00    -0.387 OA
ATOM     37  H   LIG A   1     -10.155   6.529 132.327  0.00  0.00    +0.210 HD
ENDBRANCH  33  36
BRANCH  34  38
ATOM     38  O   LIG A   1      -6.713   6.652 130.745  0.00  0.00    -0.386 OA
ATOM     39  H   LIG A   1      -6.663   7.060 131.633  0.00  0.00    +0.210 HD
ENDBRANCH  34  38
BRANCH  35  40
ATOM     40  O   LIG A   1      -6.004   3.811 130.359  0.00  0.00    -0.360 OA
BRANCH  40  41
ATOM     41  C   LIG A   1      -4.897   3.676 129.458  0.00  0.00    +0.176 C 
ATOM     42  C   LIG A   1      -4.372   5.099 129.199  0.00  0.00    +0.179 C 
ATOM     43  C   LIG A   1      -3.270   5.116 128.138  0.00  0.00    +0.201 C 
ATOM     44  C   LIG A   1      -3.725   4.349 126.886  0.00  0.00    +0.278 C 
ATOM     45  O   LIG A   1      -4.140   3.029 127.226  0.00  0.00    -0.346 OA
ATOM     46  C   LIG A   1      -5.246   3.010 128.126  0.00  0.00    +0.197 C 
BRANCH  44  47
ATOM     47  O   LIG A   1      -4.766   5.057 126.222  0.00  0.00    -0.365 OA
ATOM     48  H   LIG A   1      -5.562   4.893 126.765  0.00  0.00    +0.213 HD
ENDBRANCH  44  47
BRANCH  42  49
ATOM     49  O   LIG A   1      -3.841   5.654 130.421  0.00  0.00    -0.386 OA
ATOM     50  H   LIG A   1      -4.624   5.799 130.986  0.00  0.00    +0.210 HD
ENDBRANCH  42  49
BRANCH  43  51
ATOM     51  O   LIG A   1      -2.960   6.477 127.793  0.00  0.00    -0.384 OA
ATOM     52  H   LIG A   1      -3.268   6.586 126.870  0.00  0.00    +0.210 HD
ENDBRANCH  43  51
ENDBRANCH  40  41
ENDBRANCH  35  40
BRANCH  32  53
ATOM     53  C   LIG A   1     -11.462   5.252 130.505  0.00  0.00    +0.190 C 
BRANCH  53  54
ATOM     54  O   LIG A   1     -11.947   5.802 131.727  0.00  0.00    -0.392 OA
ATOM     55  H   LIG A   1     -11.889   6.773 131.652  0.00  0.00    +0.209 HD
ENDBRANCH  53  54
ENDBRANCH  32  53
ENDBRANCH  29  30
ENDBRANCH   1  29
TORSDOF 21
ENDMDL
MODEL 9
REMARK VINA RESULT:      -7.7      2.227      9.181
REMARK  Name = NuBBE_271
REMARK  21 active torsions:
REMARK  status: ('A' for Active; 'I' for Inactive)
REMARK    1  A    between atoms: O_1  and  C_2
REMARK    2  A    between atoms: C_2  and  C_3
REMARK    3  A    between atoms: C_6  and  O_8
REMARK    4  A    between atoms: O_8  and  C_9
REMARK    5  A    between atoms: C_11  and  C_12
REMARK    6  A    between atoms: C_13  and  C_14
REMARK    7  A    between atoms: C_14  and  O_15
REMARK    8  A    between atoms: O_15  and  C_16
REMARK    9  A    between atoms: C_19  and  C_43
REMARK   10  A    between atoms: C_21  and  O_42
REMARK   11  A    between atoms: C_23  and  O_41
REMARK   12  A    between atoms: C_25  and  O_27
REMARK   13  A    between atoms: O_27  and  C_28
REMARK   14  A    between atoms: C_30  and  O_40
REMARK   15  A    between atoms: C_32  and  O_39
REMARK   16  A    between atoms: C_34  and  O_38
REMARK   17  A    between atoms: C_43  and  O_44
REMARK   18  A    between atoms: C_48  and  O_49
REMARK   19  A    between atoms: C_50  and  O_58
REMARK   20  A    between atoms: C_52  and  O_57
REMARK   21  A    between atoms: C_54  and  O_56
REMARK                            x       y       z     vdW  Elec       q    Type
REMARK                         _______ _______ _______ _____ _____    ______ ____
ROOT
ATOM      1  C   LIG A   1      -5.293   0.840 127.180  0.00  0.00    +0.334 C 
ATOM      2  O   LIG A   1      -4.658   0.802 126.122  0.00  0.00    -0.245 OA
ENDROOT
BRANCH   1   4
ATOM      3  C   LIG A   1      -5.954   2.126 129.127  0.00  0.00    +0.015 C 
ATOM      4  C   LIG A   1      -5.633   2.106 127.827  0.00  0.00    +0.092 C 
BRANCH   3   7
ATOM      5  C   LIG A   1      -7.842   5.258 129.905  0.00  0.00    +0.166 A 
ATOM      6  C   LIG A   1      -7.392   4.078 129.313  0.00  0.00    +0.057 A 
ATOM      7  C   LIG A   1      -6.355   3.317 129.866  0.00  0.00    -0.021 A 
ATOM      8  C   LIG A   1      -5.702   3.759 131.012  0.00  0.00    +0.012 A 
ATOM      9  C   LIG A   1      -6.116   4.942 131.619  0.00  0.00    +0.050 A 
ATOM     10  C   LIG A   1      -7.183   5.675 131.076  0.00  0.00    +0.159 A 
BRANCH  10  11
ATOM     11  O   LIG A   1      -7.571   6.826 131.709  0.00  0.00    -0.503 OA
ATOM     12  H   LIG A   1      -8.167   6.588 132.438  0.00  0.00    +0.292 HD
ENDBRANCH  10  11
BRANCH   5  13
ATOM     13  O   LIG A   1      -8.874   6.028 129.411  0.00  0.00    -0.457 OA
BRANCH  13  16
ATOM     14  C   LIG A   1     -12.393   6.528 129.557  0.00  0.00    +0.179 C 
ATOM     15  O   LIG A   1     -11.147   6.403 128.849  0.00  0.00    -0.331 OA
ATOM     16  C   LIG A   1     -10.214   5.485 129.446  0.00  0.00    +0.339 C 
ATOM     17  C   LIG A   1     -10.538   4.979 130.881  0.00  0.00    +0.214 C 
ATOM     18  C   LIG A   1     -11.373   5.938 131.741  0.00  0.00    +0.180 C 
ATOM     19  C   LIG A   1     -12.064   7.051 130.952  0.00  0.00    +0.177 C 
BRANCH  17  20
ATOM     20  O   LIG A   1     -11.305   3.756 130.729  0.00  0.00    -0.383 OA
ATOM     21  H   LIG A   1     -12.206   4.004 130.454  0.00  0.00    +0.210 HD
ENDBRANCH  17  20
BRANCH  18  22
ATOM     22  O   LIG A   1     -10.597   6.519 132.796  0.00  0.00    -0.386 OA
ATOM     23  H   LIG A   1     -11.103   7.268 133.164  0.00  0.00    +0.210 HD
ENDBRANCH  18  22
BRANCH  19  24
ATOM     24  O   LIG A   1     -13.213   7.491 131.677  0.00  0.00    -0.387 OA
ATOM     25  H   LIG A   1     -12.895   7.758 132.562  0.00  0.00    +0.210 HD
ENDBRANCH  19  24
BRANCH  14  26
ATOM     26  C   LIG A   1     -13.322   7.474 128.786  0.00  0.00    +0.190 C 
BRANCH  26  27
ATOM     27  O   LIG A   1     -13.074   8.834 129.154  0.00  0.00    -0.392 OA
ATOM     28  H   LIG A   1     -13.907   9.318 129.008  0.00  0.00    +0.209 HD
ENDBRANCH  26  27
ENDBRANCH  14  26
ENDBRANCH  13  16
ENDBRANCH   5  13
ENDBRANCH   3   7
ENDBRANCH   1   4
BRANCH   1  29
ATOM     29  O   LIG A   1      -5.705  -0.210 127.921  0.00  0.00    -0.429 OA
BRANCH  29  30
ATOM     30  C   LIG A   1      -5.758  -1.453 127.229  0.00  0.00    +0.343 C 
ATOM     31  O   LIG A   1      -4.828  -2.385 127.780  0.00  0.00    -0.331 OA
ATOM     32  C   LIG A   1      -5.088  -2.647 129.158  0.00  0.00    +0.179 C 
ATOM     33  C   LIG A   1      -6.380  -3.455 129.253  0.00  0.00    +0.177 C 
ATOM     34  C   LIG A   1      -7.533  -2.663 128.618  0.00  0.00    +0.180 C 
ATOM     35  C   LIG A   1      -7.200  -2.019 127.253  0.00  0.00    +0.218 C 
BRANCH  33  36
ATOM     36  O   LIG A   1      -6.770  -3.737 130.605  0.00  0.00    -0.387 OA
ATOM     37  H   LIG A   1      -6.686  -4.705 130.741  0.00  0.00    +0.210 HD
ENDBRANCH  33  36
BRANCH  34  38
ATOM     38  O   LIG A   1      -8.654  -3.557 128.469  0.00  0.00    -0.386 OA
ATOM     39  H   LIG A   1      -9.423  -3.071 128.829  0.00  0.00    +0.210 HD
ENDBRANCH  34  38
BRANCH  35  40
ATOM     40  O   LIG A   1      -8.223  -1.024 127.011  0.00  0.00    -0.360 OA
BRANCH  40  41
ATOM     41  C   LIG A   1      -8.706  -0.861 125.672  0.00  0.00    +0.176 C 
ATOM     42  C   LIG A   1      -8.995  -2.275 125.138  0.00  0.00    +0.179 C 
ATOM     43  C   LIG A   1      -9.390  -2.257 123.660  0.00  0.00    +0.201 C 
ATOM     44  C   LIG A   1      -8.367  -1.448 122.846  0.00  0.00    +0.278 C 
ATOM     45  O   LIG A   1      -8.211  -0.140 123.389  0.00  0.00    -0.346 OA
ATOM     46  C   LIG A   1      -7.730  -0.150 124.732  0.00  0.00    +0.197 C 
BRANCH  44  47
ATOM     47  O   LIG A   1      -7.120  -2.133 122.797  0.00  0.00    -0.365 OA
ATOM     48  H   LIG A   1      -6.448  -1.431 122.907  0.00  0.00    +0.213 HD
ENDBRANCH  44  47
BRANCH  42  49
ATOM     49  O   LIG A   1     -10.072  -2.870 125.893  0.00  0.00    -0.386 OA
ATOM     50  H   LIG A   1     -10.751  -2.171 125.947  0.00  0.00    +0.210 HD
ENDBRANCH  42  49
BRANCH  43  51
ATOM     51  O   LIG A   1      -9.452  -3.606 123.166  0.00  0.00    -0.384 OA
ATOM     52  H   LIG A   1     -10.404  -3.788 123.033  0.00  0.00    +0.210 HD
ENDBRANCH  43  51
ENDBRANCH  40  41
ENDBRANCH  35  40
BRANCH  32  53
ATOM     53  C   LIG A   1      -3.870  -3.357 129.750  0.00  0.00    +0.190 C 
BRANCH  53  54
ATOM     54  O   LIG A   1      -2.695  -2.568 129.583  0.00  0.00    -0.392 OA
ATOM     55  H   LIG A   1      -2.776  -1.797 130.174  0.00  0.00    +0.209 HD
ENDBRANCH  53  54
ENDBRANCH  32  53
ENDBRANCH  29  30
ENDBRANCH   1  29
TORSDOF 21
ENDMDL
