MODEL 1
REMARK VINA RESULT:      -7.9      0.000      0.000
REMARK  Name = NuBBE_122
REMARK  6 active torsions:
REMARK  status: ('A' for Active; 'I' for Inactive)
REMARK    1  A    between atoms: C_4  and  O_5
REMARK    2  A    between atoms: C_7  and  O_8
REMARK    3  A    between atoms: C_12  and  C_13
REMARK    4  A    between atoms: C_16  and  O_17
REMARK    5  A    between atoms: C_18  and  O_19
REMARK    6  A    between atoms: C_21  and  O_22
REMARK                            x       y       z     vdW  Elec       q    Type
REMARK                         _______ _______ _______ _____ _____    ______ ____
ROOT
ATOM      1  O   LIG A   1      -8.605   2.379 126.128  0.00  0.00    -0.283 OA
ATOM      2  C   LIG A   1      -8.014   2.072 125.095  0.00  0.00    +0.238 A 
ATOM      3  C   LIG A   1      -7.665   0.668 124.849  0.00  0.00    +0.109 A 
ATOM      4  C   LIG A   1      -7.983  -0.340 125.767  0.00  0.00    +0.135 A 
ATOM      5  C   LIG A   1      -7.642  -1.666 125.503  0.00  0.00    +0.091 A 
ATOM      6  C   LIG A   1      -6.983  -1.972 124.316  0.00  0.00    +0.124 A 
ATOM      7  C   LIG A   1      -6.662  -0.978 123.397  0.00  0.00    +0.092 A 
ATOM      8  C   LIG A   1      -7.006   0.346 123.666  0.00  0.00    +0.146 A 
ATOM      9  O   LIG A   1      -6.666   1.281 122.724  0.00  0.00    -0.451 OA
ATOM     10  C   LIG A   1      -6.981   2.610 122.962  0.00  0.00    +0.181 A 
ATOM     11  C   LIG A   1      -7.629   3.064 124.054  0.00  0.00    +0.208 A 
ENDROOT
BRANCH  10  12
ATOM     12  C   LIG A   1      -6.544   3.492 121.866  0.00  0.00    +0.025 A 
ATOM     13  C   LIG A   1      -7.264   3.513 120.658  0.00  0.00    +0.015 A 
ATOM     14  C   LIG A   1      -6.867   4.344 119.604  0.00  0.00    +0.050 A 
ATOM     15  C   LIG A   1      -5.747   5.148 119.763  0.00  0.00    +0.158 A 
ATOM     16  C   LIG A   1      -5.027   5.125 120.955  0.00  0.00    +0.159 A 
ATOM     17  C   LIG A   1      -5.409   4.301 122.004  0.00  0.00    +0.060 A 
BRANCH  15  18
ATOM     18  O   LIG A   1      -5.310   5.984 118.774  0.00  0.00    -0.503 OA
ATOM     19  H   LIG A   1      -6.060   6.182 118.186  0.00  0.00    +0.292 HD
ENDBRANCH  15  18
BRANCH  16  20
ATOM     20  O   LIG A   1      -3.927   5.919 121.102  0.00  0.00    -0.503 OA
ATOM     21  H   LIG A   1      -3.880   6.105 122.062  0.00  0.00    +0.292 HD
ENDBRANCH  16  20
ENDBRANCH  10  12
BRANCH   4  22
ATOM     22  O   LIG A   1      -8.632  -0.097 126.947  0.00  0.00    -0.506 OA
ATOM     23  H   LIG A   1      -9.411  -0.699 126.997  0.00  0.00    +0.292 HD
ENDBRANCH   4  22
BRANCH   6  24
ATOM     24  O   LIG A   1      -6.631  -3.254 124.012  0.00  0.00    -0.506 OA
ATOM     25  H   LIG A   1      -5.678  -3.279 123.819  0.00  0.00    +0.292 HD
ENDBRANCH   6  24
BRANCH  11  26
ATOM     26  O   LIG A   1      -7.979   4.385 124.275  0.00  0.00    -0.501 OA
ATOM     27  H   LIG A   1      -7.468   4.738 125.022  0.00  0.00    +0.292 HD
ENDBRANCH  11  26
TORSDOF 6
ENDMDL
MODEL 2
REMARK VINA RESULT:      -7.6      8.918     10.494
REMARK  Name = NuBBE_122
REMARK  6 active torsions:
REMARK  status: ('A' for Active; 'I' for Inactive)
REMARK    1  A    between atoms: C_4  and  O_5
REMARK    2  A    between atoms: C_7  and  O_8
REMARK    3  A    between atoms: C_12  and  C_13
REMARK    4  A    between atoms: C_16  and  O_17
REMARK    5  A    between atoms: C_18  and  O_19
REMARK    6  A    between atoms: C_21  and  O_22
REMARK                            x       y       z     vdW  Elec       q    Type
REMARK                         _______ _______ _______ _____ _____    ______ ____
ROOT
ATOM      1  O   LIG A   1      -9.653   2.288 131.542  0.00  0.00    -0.283 OA
ATOM      2  C   LIG A   1      -9.633   3.496 131.764  0.00  0.00    +0.238 A 
ATOM      3  C   LIG A   1      -8.795   4.022 132.848  0.00  0.00    +0.109 A 
ATOM      4  C   LIG A   1      -8.015   3.180 133.648  0.00  0.00    +0.135 A 
ATOM      5  C   LIG A   1      -7.225   3.709 134.667  0.00  0.00    +0.091 A 
ATOM      6  C   LIG A   1      -7.223   5.084 134.878  0.00  0.00    +0.124 A 
ATOM      7  C   LIG A   1      -7.995   5.932 134.089  0.00  0.00    +0.092 A 
ATOM      8  C   LIG A   1      -8.783   5.396 133.070  0.00  0.00    +0.146 A 
ATOM      9  O   LIG A   1      -9.520   6.278 132.325  0.00  0.00    -0.451 OA
ATOM     10  C   LIG A   1     -10.325   5.782 131.311  0.00  0.00    +0.181 A 
ATOM     11  C   LIG A   1     -10.425   4.480 130.974  0.00  0.00    +0.208 A 
ENDROOT
BRANCH  10  12
ATOM     12  C   LIG A   1     -11.060   6.848 130.610  0.00  0.00    +0.025 A 
ATOM     13  C   LIG A   1     -12.276   7.321 131.134  0.00  0.00    +0.015 A 
ATOM     14  C   LIG A   1     -12.990   8.333 130.485  0.00  0.00    +0.050 A 
ATOM     15  C   LIG A   1     -12.485   8.867 129.307  0.00  0.00    +0.158 A 
ATOM     16  C   LIG A   1     -11.285   8.397 128.780  0.00  0.00    +0.159 A 
ATOM     17  C   LIG A   1     -10.571   7.390 129.413  0.00  0.00    +0.060 A 
BRANCH  15  18
ATOM     18  O   LIG A   1     -13.132   9.860 128.626  0.00  0.00    -0.503 OA
ATOM     19  H   LIG A   1     -13.874  10.172 129.172  0.00  0.00    +0.292 HD
ENDBRANCH  15  18
BRANCH  16  20
ATOM     20  O   LIG A   1     -10.795   8.928 127.622  0.00  0.00    -0.503 OA
ATOM     21  H   LIG A   1     -11.569   8.982 127.025  0.00  0.00    +0.292 HD
ENDBRANCH  16  20
ENDBRANCH  10  12
BRANCH   4  22
ATOM     22  O   LIG A   1      -7.976   1.821 133.485  0.00  0.00    -0.506 OA
ATOM     23  H   LIG A   1      -8.900   1.502 133.362  0.00  0.00    +0.292 HD
ENDBRANCH   4  22
BRANCH   6  24
ATOM     24  O   LIG A   1      -6.466   5.649 135.861  0.00  0.00    -0.506 OA
ATOM     25  H   LIG A   1      -5.829   6.261 135.454  0.00  0.00    +0.292 HD
ENDBRANCH   6  24
BRANCH  11  26
ATOM     26  O   LIG A   1     -11.197   3.987 129.937  0.00  0.00    -0.501 OA
ATOM     27  H   LIG A   1     -11.579   4.725 129.434  0.00  0.00    +0.292 HD
ENDBRANCH  11  26
TORSDOF 6
ENDMDL
MODEL 3
REMARK VINA RESULT:      -7.4      1.587      2.190
REMARK  Name = NuBBE_122
REMARK  6 active torsions:
REMARK  status: ('A' for Active; 'I' for Inactive)
REMARK    1  A    between atoms: C_4  and  O_5
REMARK    2  A    between atoms: C_7  and  O_8
REMARK    3  A    between atoms: C_12  and  C_13
REMARK    4  A    between atoms: C_16  and  O_17
REMARK    5  A    between atoms: C_18  and  O_19
REMARK    6  A    between atoms: C_21  and  O_22
REMARK                            x       y       z     vdW  Elec       q    Type
REMARK                         _______ _______ _______ _____ _____    ______ ____
ROOT
ATOM      1  O   LIG A   1      -8.279   3.075 127.073  0.00  0.00    -0.283 OA
ATOM      2  C   LIG A   1      -8.077   2.505 126.003  0.00  0.00    +0.238 A 
ATOM      3  C   LIG A   1      -7.946   1.044 125.972  0.00  0.00    +0.109 A 
ATOM      4  C   LIG A   1      -8.040   0.272 127.137  0.00  0.00    +0.135 A 
ATOM      5  C   LIG A   1      -7.917  -1.115 127.075  0.00  0.00    +0.091 A 
ATOM      6  C   LIG A   1      -7.699  -1.721 125.842  0.00  0.00    +0.124 A 
ATOM      7  C   LIG A   1      -7.603  -0.964 124.678  0.00  0.00    +0.092 A 
ATOM      8  C   LIG A   1      -7.728   0.423 124.746  0.00  0.00    +0.146 A 
ATOM      9  O   LIG A   1      -7.627   1.115 123.568  0.00  0.00    -0.451 OA
ATOM     10  C   LIG A   1      -7.734   2.497 123.597  0.00  0.00    +0.181 A 
ATOM     11  C   LIG A   1      -7.959   3.229 124.707  0.00  0.00    +0.208 A 
ENDROOT
BRANCH  10  12
ATOM     12  C   LIG A   1      -7.595   3.096 122.259  0.00  0.00    +0.025 A 
ATOM     13  C   LIG A   1      -6.322   3.453 121.782  0.00  0.00    +0.015 A 
ATOM     14  C   LIG A   1      -6.166   4.023 120.513  0.00  0.00    +0.050 A 
ATOM     15  C   LIG A   1      -7.290   4.237 119.727  0.00  0.00    +0.158 A 
ATOM     16  C   LIG A   1      -8.555   3.892 120.198  0.00  0.00    +0.159 A 
ATOM     17  C   LIG A   1      -8.720   3.331 121.457  0.00  0.00    +0.060 A 
BRANCH  15  18
ATOM     18  O   LIG A   1      -7.207   4.787 118.478  0.00  0.00    -0.503 OA
ATOM     19  H   LIG A   1      -6.543   4.289 117.969  0.00  0.00    +0.292 HD
ENDBRANCH  15  18
BRANCH  16  20
ATOM     20  O   LIG A   1      -9.654   4.106 119.419  0.00  0.00    -0.503 OA
ATOM     21  H   LIG A   1      -9.303   4.184 118.508  0.00  0.00    +0.292 HD
ENDBRANCH  16  20
ENDBRANCH  10  12
BRANCH   4  22
ATOM     22  O   LIG A   1      -8.256   0.814 128.375  0.00  0.00    -0.506 OA
ATOM     23  H   LIG A   1      -9.116   1.297 128.351  0.00  0.00    +0.292 HD
ENDBRANCH   4  22
BRANCH   6  24
ATOM     24  O   LIG A   1      -7.573  -3.074 125.730  0.00  0.00    -0.506 OA
ATOM     25  H   LIG A   1      -8.345  -3.496 126.144  0.00  0.00    +0.292 HD
ENDBRANCH   6  24
BRANCH  11  26
ATOM     26  O   LIG A   1      -8.106   4.604 124.733  0.00  0.00    -0.501 OA
ATOM     27  H   LIG A   1      -8.673   4.859 125.479  0.00  0.00    +0.292 HD
ENDBRANCH  11  26
TORSDOF 6
ENDMDL
MODEL 4
REMARK VINA RESULT:      -7.1      3.824      8.155
REMARK  Name = NuBBE_122
REMARK  6 active torsions:
REMARK  status: ('A' for Active; 'I' for Inactive)
REMARK    1  A    between atoms: C_4  and  O_5
REMARK    2  A    between atoms: C_7  and  O_8
REMARK    3  A    between atoms: C_12  and  C_13
REMARK    4  A    between atoms: C_16  and  O_17
REMARK    5  A    between atoms: C_18  and  O_19
REMARK    6  A    between atoms: C_21  and  O_22
REMARK                            x       y       z     vdW  Elec       q    Type
REMARK                         _______ _______ _______ _____ _____    ______ ____
ROOT
ATOM      1  O   LIG A   1      -9.536  -2.374 123.578  0.00  0.00    -0.283 OA
ATOM      2  C   LIG A   1      -8.977  -1.796 124.507  0.00  0.00    +0.238 A 
ATOM      3  C   LIG A   1      -8.993  -0.330 124.565  0.00  0.00    +0.109 A 
ATOM      4  C   LIG A   1      -9.629   0.438 123.582  0.00  0.00    +0.135 A 
ATOM      5  C   LIG A   1      -9.632   1.829 123.666  0.00  0.00    +0.091 A 
ATOM      6  C   LIG A   1      -8.996   2.443 124.741  0.00  0.00    +0.124 A 
ATOM      7  C   LIG A   1      -8.361   1.691 125.724  0.00  0.00    +0.092 A 
ATOM      8  C   LIG A   1      -8.361   0.299 125.634  0.00  0.00    +0.146 A 
ATOM      9  O   LIG A   1      -7.722  -0.389 126.631  0.00  0.00    -0.451 OA
ATOM     10  C   LIG A   1      -7.691  -1.773 126.570  0.00  0.00    +0.181 A 
ATOM     11  C   LIG A   1      -8.272  -2.515 125.604  0.00  0.00    +0.208 A 
ENDROOT
BRANCH  10  12
ATOM     12  C   LIG A   1      -6.963  -2.366 127.704  0.00  0.00    +0.025 A 
ATOM     13  C   LIG A   1      -7.665  -3.088 128.686  0.00  0.00    +0.015 A 
ATOM     14  C   LIG A   1      -6.993  -3.660 129.771  0.00  0.00    +0.050 A 
ATOM     15  C   LIG A   1      -5.617  -3.504 129.872  0.00  0.00    +0.158 A 
ATOM     16  C   LIG A   1      -4.918  -2.784 128.906  0.00  0.00    +0.159 A 
ATOM     17  C   LIG A   1      -5.576  -2.208 127.828  0.00  0.00    +0.060 A 
BRANCH  15  18
ATOM     18  O   LIG A   1      -4.901  -4.040 130.905  0.00  0.00    -0.503 OA
ATOM     19  H   LIG A   1      -4.637  -4.944 130.658  0.00  0.00    +0.292 HD
ENDBRANCH  15  18
BRANCH  16  20
ATOM     20  O   LIG A   1      -3.566  -2.636 129.013  0.00  0.00    -0.503 OA
ATOM     21  H   LIG A   1      -3.202  -3.527 128.836  0.00  0.00    +0.292 HD
ENDBRANCH  16  20
ENDBRANCH  10  12
BRANCH   4  22
ATOM     22  O   LIG A   1     -10.271  -0.113 122.506  0.00  0.00    -0.506 OA
ATOM     23  H   LIG A   1     -11.070  -0.587 122.837  0.00  0.00    +0.292 HD
ENDBRANCH   4  22
BRANCH   6  24
ATOM     24  O   LIG A   1      -8.973   3.801 124.868  0.00  0.00    -0.506 OA
ATOM     25  H   LIG A   1      -8.170   4.142 124.440  0.00  0.00    +0.292 HD
ENDBRANCH   6  24
BRANCH  11  26
ATOM     26  O   LIG A   1      -8.276  -3.898 125.562  0.00  0.00    -0.501 OA
ATOM     27  H   LIG A   1      -9.173  -4.228 125.736  0.00  0.00    +0.292 HD
ENDBRANCH  11  26
TORSDOF 6
ENDMDL
MODEL 5
REMARK VINA RESULT:      -7.0      3.096      4.286
REMARK  Name = NuBBE_122
REMARK  6 active torsions:
REMARK  status: ('A' for Active; 'I' for Inactive)
REMARK    1  A    between atoms: C_4  and  O_5
REMARK    2  A    between atoms: C_7  and  O_8
REMARK    3  A    between atoms: C_12  and  C_13
REMARK    4  A    between atoms: C_16  and  O_17
REMARK    5  A    between atoms: C_18  and  O_19
REMARK    6  A    between atoms: C_21  and  O_22
REMARK                            x       y       z     vdW  Elec       q    Type
REMARK                         _______ _______ _______ _____ _____    ______ ____
ROOT
ATOM      1  O   LIG A   1      -9.772  -1.486 123.214  0.00  0.00    -0.283 OA
ATOM      2  C   LIG A   1      -9.149  -0.908 124.102  0.00  0.00    +0.238 A 
ATOM      3  C   LIG A   1      -8.849  -1.611 125.354  0.00  0.00    +0.109 A 
ATOM      4  C   LIG A   1      -9.260  -2.932 125.572  0.00  0.00    +0.135 A 
ATOM      5  C   LIG A   1      -8.956  -3.575 126.770  0.00  0.00    +0.091 A 
ATOM      6  C   LIG A   1      -8.240  -2.888 127.745  0.00  0.00    +0.124 A 
ATOM      7  C   LIG A   1      -7.826  -1.575 127.540  0.00  0.00    +0.092 A 
ATOM      8  C   LIG A   1      -8.133  -0.937 126.338  0.00  0.00    +0.146 A 
ATOM      9  O   LIG A   1      -7.699   0.354 126.192  0.00  0.00    -0.451 OA
ATOM     10  C   LIG A   1      -7.995   1.026 125.016  0.00  0.00    +0.181 A 
ATOM     11  C   LIG A   1      -8.666   0.495 123.974  0.00  0.00    +0.208 A 
ENDROOT
BRANCH  10  12
ATOM     12  C   LIG A   1      -7.471   2.402 125.012  0.00  0.00    +0.025 A 
ATOM     13  C   LIG A   1      -6.129   2.638 124.666  0.00  0.00    +0.015 A 
ATOM     14  C   LIG A   1      -5.610   3.938 124.655  0.00  0.00    +0.050 A 
ATOM     15  C   LIG A   1      -6.439   4.998 124.996  0.00  0.00    +0.158 A 
ATOM     16  C   LIG A   1      -7.767   4.769 125.348  0.00  0.00    +0.159 A 
ATOM     17  C   LIG A   1      -8.289   3.483 125.366  0.00  0.00    +0.060 A 
BRANCH  15  18
ATOM     18  O   LIG A   1      -5.995   6.291 125.002  0.00  0.00    -0.503 OA
ATOM     19  H   LIG A   1      -5.454   6.432 124.206  0.00  0.00    +0.292 HD
ENDBRANCH  15  18
BRANCH  16  20
ATOM     20  O   LIG A   1      -8.574   5.817 125.681  0.00  0.00    -0.503 OA
ATOM     21  H   LIG A   1      -7.971   6.484 126.066  0.00  0.00    +0.292 HD
ENDBRANCH  16  20
ENDBRANCH  10  12
BRANCH   4  22
ATOM     22  O   LIG A   1      -9.964  -3.656 124.648  0.00  0.00    -0.506 OA
ATOM     23  H   LIG A   1     -10.887  -3.760 124.981  0.00  0.00    +0.292 HD
ENDBRANCH   4  22
BRANCH   6  24
ATOM     24  O   LIG A   1      -7.917  -3.475 128.933  0.00  0.00    -0.506 OA
ATOM     25  H   LIG A   1      -7.139  -4.042 128.801  0.00  0.00    +0.292 HD
ENDBRANCH   6  24
BRANCH  11  26
ATOM     26  O   LIG A   1      -8.928   1.151 122.784  0.00  0.00    -0.501 OA
ATOM     27  H   LIG A   1      -8.526   0.663 122.046  0.00  0.00    +0.292 HD
ENDBRANCH  11  26
TORSDOF 6
ENDMDL
MODEL 6
REMARK VINA RESULT:      -6.9      5.021      9.110
REMARK  Name = NuBBE_122
REMARK  6 active torsions:
REMARK  status: ('A' for Active; 'I' for Inactive)
REMARK    1  A    between atoms: C_4  and  O_5
REMARK    2  A    between atoms: C_7  and  O_8
REMARK    3  A    between atoms: C_12  and  C_13
REMARK    4  A    between atoms: C_16  and  O_17
REMARK    5  A    between atoms: C_18  and  O_19
REMARK    6  A    between atoms: C_21  and  O_22
REMARK                            x       y       z     vdW  Elec       q    Type
REMARK                         _______ _______ _______ _____ _____    ______ ____
ROOT
ATOM      1  O   LIG A   1      -5.164  -0.484 125.474  0.00  0.00    -0.283 OA
ATOM      2  C   LIG A   1      -5.949  -1.217 126.070  0.00  0.00    +0.238 A 
ATOM      3  C   LIG A   1      -7.066  -1.830 125.342  0.00  0.00    +0.109 A 
ATOM      4  C   LIG A   1      -7.269  -1.597 123.976  0.00  0.00    +0.135 A 
ATOM      5  C   LIG A   1      -8.336  -2.198 123.311  0.00  0.00    +0.091 A 
ATOM      6  C   LIG A   1      -9.195  -3.030 124.021  0.00  0.00    +0.124 A 
ATOM      7  C   LIG A   1      -9.004  -3.268 125.379  0.00  0.00    +0.092 A 
ATOM      8  C   LIG A   1      -7.934  -2.665 126.039  0.00  0.00    +0.146 A 
ATOM      9  O   LIG A   1      -7.794  -2.937 127.374  0.00  0.00    -0.451 OA
ATOM     10  C   LIG A   1      -6.749  -2.347 128.068  0.00  0.00    +0.181 A 
ATOM     11  C   LIG A   1      -5.826  -1.530 127.521  0.00  0.00    +0.208 A 
ENDROOT
BRANCH  10  12
ATOM     12  C   LIG A   1      -6.737  -2.728 129.490  0.00  0.00    +0.025 A 
ATOM     13  C   LIG A   1      -7.481  -1.980 130.420  0.00  0.00    +0.015 A 
ATOM     14  C   LIG A   1      -7.485  -2.325 131.776  0.00  0.00    +0.050 A 
ATOM     15  C   LIG A   1      -6.739  -3.416 132.198  0.00  0.00    +0.158 A 
ATOM     16  C   LIG A   1      -5.994  -4.155 131.282  0.00  0.00    +0.159 A 
ATOM     17  C   LIG A   1      -5.979  -3.819 129.936  0.00  0.00    +0.060 A 
BRANCH  15  18
ATOM     18  O   LIG A   1      -6.702  -3.807 133.507  0.00  0.00    -0.503 OA
ATOM     19  H   LIG A   1      -5.836  -3.559 133.876  0.00  0.00    +0.292 HD
ENDBRANCH  15  18
BRANCH  16  20
ATOM     20  O   LIG A   1      -5.263  -5.227 131.705  0.00  0.00    -0.503 OA
ATOM     21  H   LIG A   1      -5.563  -5.971 131.144  0.00  0.00    +0.292 HD
ENDBRANCH  16  20
ENDBRANCH  10  12
BRANCH   4  22
ATOM     22  O   LIG A   1      -6.455  -0.791 123.228  0.00  0.00    -0.506 OA
ATOM     23  H   LIG A   1      -6.150  -1.307 122.445  0.00  0.00    +0.292 HD
ENDBRANCH   4  22
BRANCH   6  24
ATOM     24  O   LIG A   1     -10.253  -3.641 123.414  0.00  0.00    -0.506 OA
ATOM     25  H   LIG A   1     -10.997  -3.674 124.039  0.00  0.00    +0.292 HD
ENDBRANCH   6  24
BRANCH  11  26
ATOM     26  O   LIG A   1      -4.759  -0.971 128.203  0.00  0.00    -0.501 OA
ATOM     27  H   LIG A   1      -3.939  -1.431 127.960  0.00  0.00    +0.292 HD
ENDBRANCH  11  26
TORSDOF 6
ENDMDL
MODEL 7
REMARK VINA RESULT:      -6.8      5.054      9.175
REMARK  Name = NuBBE_122
REMARK  6 active torsions:
REMARK  status: ('A' for Active; 'I' for Inactive)
REMARK    1  A    between atoms: C_4  and  O_5
REMARK    2  A    between atoms: C_7  and  O_8
REMARK    3  A    between atoms: C_12  and  C_13
REMARK    4  A    between atoms: C_16  and  O_17
REMARK    5  A    between atoms: C_18  and  O_19
REMARK    6  A    between atoms: C_21  and  O_22
REMARK                            x       y       z     vdW  Elec       q    Type
REMARK                         _______ _______ _______ _____ _____    ______ ____
ROOT
ATOM      1  O   LIG A   1      -5.109  -0.500 125.652  0.00  0.00    -0.283 OA
ATOM      2  C   LIG A   1      -5.885  -1.249 126.241  0.00  0.00    +0.238 A 
ATOM      3  C   LIG A   1      -7.009  -1.848 125.514  0.00  0.00    +0.109 A 
ATOM      4  C   LIG A   1      -7.231  -1.585 124.156  0.00  0.00    +0.135 A 
ATOM      5  C   LIG A   1      -8.305  -2.173 123.491  0.00  0.00    +0.091 A 
ATOM      6  C   LIG A   1      -9.153  -3.024 124.194  0.00  0.00    +0.124 A 
ATOM      7  C   LIG A   1      -8.943  -3.292 125.543  0.00  0.00    +0.092 A 
ATOM      8  C   LIG A   1      -7.866  -2.701 126.203  0.00  0.00    +0.146 A 
ATOM      9  O   LIG A   1      -7.709  -3.003 127.530  0.00  0.00    -0.451 OA
ATOM     10  C   LIG A   1      -6.656  -2.425 128.223  0.00  0.00    +0.181 A 
ATOM     11  C   LIG A   1      -5.742  -1.594 127.683  0.00  0.00    +0.208 A 
ENDROOT
BRANCH  10  12
ATOM     12  C   LIG A   1      -6.625  -2.838 129.636  0.00  0.00    +0.025 A 
ATOM     13  C   LIG A   1      -5.861  -3.954 130.022  0.00  0.00    +0.015 A 
ATOM     14  C   LIG A   1      -5.816  -4.363 131.359  0.00  0.00    +0.050 A 
ATOM     15  C   LIG A   1      -6.542  -3.655 132.307  0.00  0.00    +0.158 A 
ATOM     16  C   LIG A   1      -7.307  -2.554 131.928  0.00  0.00    +0.159 A 
ATOM     17  C   LIG A   1      -7.362  -2.143 130.604  0.00  0.00    +0.060 A 
BRANCH  15  18
ATOM     18  O   LIG A   1      -6.539  -4.001 133.629  0.00  0.00    -0.503 OA
ATOM     19  H   LIG A   1      -7.152  -4.746 133.751  0.00  0.00    +0.292 HD
ENDBRANCH  15  18
BRANCH  16  20
ATOM     20  O   LIG A   1      -8.018  -1.864 132.867  0.00  0.00    -0.503 OA
ATOM     21  H   LIG A   1      -7.673  -2.182 133.725  0.00  0.00    +0.292 HD
ENDBRANCH  16  20
ENDBRANCH  10  12
BRANCH   4  22
ATOM     22  O   LIG A   1      -6.428  -0.760 123.416  0.00  0.00    -0.506 OA
ATOM     23  H   LIG A   1      -6.985  -0.333 122.724  0.00  0.00    +0.292 HD
ENDBRANCH   4  22
BRANCH   6  24
ATOM     24  O   LIG A   1     -10.217  -3.623 123.586  0.00  0.00    -0.506 OA
ATOM     25  H   LIG A   1     -10.658  -4.205 124.229  0.00  0.00    +0.292 HD
ENDBRANCH   6  24
BRANCH  11  26
ATOM     26  O   LIG A   1      -4.668  -1.048 128.363  0.00  0.00    -0.501 OA
ATOM     27  H   LIG A   1      -4.989  -0.424 129.035  0.00  0.00    +0.292 HD
ENDBRANCH  11  26
TORSDOF 6
ENDMDL
MODEL 8
REMARK VINA RESULT:      -6.8      3.398      8.128
REMARK  Name = NuBBE_122
REMARK  6 active torsions:
REMARK  status: ('A' for Active; 'I' for Inactive)
REMARK    1  A    between atoms: C_4  and  O_5
REMARK    2  A    between atoms: C_7  and  O_8
REMARK    3  A    between atoms: C_12  and  C_13
REMARK    4  A    between atoms: C_16  and  O_17
REMARK    5  A    between atoms: C_18  and  O_19
REMARK    6  A    between atoms: C_21  and  O_22
REMARK                            x       y       z     vdW  Elec       q    Type
REMARK                         _______ _______ _______ _____ _____    ______ ____
ROOT
ATOM      1  O   LIG A   1      -9.784  -2.260 123.609  0.00  0.00    -0.283 OA
ATOM      2  C   LIG A   1      -9.088  -1.647 124.414  0.00  0.00    +0.238 A 
ATOM      3  C   LIG A   1      -8.940  -0.193 124.287  0.00  0.00    +0.109 A 
ATOM      4  C   LIG A   1      -9.570   0.524 123.262  0.00  0.00    +0.135 A 
ATOM      5  C   LIG A   1      -9.414   1.905 123.169  0.00  0.00    +0.091 A 
ATOM      6  C   LIG A   1      -8.626   2.562 124.109  0.00  0.00    +0.124 A 
ATOM      7  C   LIG A   1      -7.995   1.861 125.132  0.00  0.00    +0.092 A 
ATOM      8  C   LIG A   1      -8.155   0.478 125.219  0.00  0.00    +0.146 A 
ATOM      9  O   LIG A   1      -7.512  -0.158 126.248  0.00  0.00    -0.451 OA
ATOM     10  C   LIG A   1      -7.637  -1.534 126.361  0.00  0.00    +0.181 A 
ATOM     11  C   LIG A   1      -8.375  -2.310 125.541  0.00  0.00    +0.208 A 
ENDROOT
BRANCH  10  12
ATOM     12  C   LIG A   1      -6.883  -2.071 127.506  0.00  0.00    +0.025 A 
ATOM     13  C   LIG A   1      -5.487  -2.220 127.416  0.00  0.00    +0.015 A 
ATOM     14  C   LIG A   1      -4.751  -2.728 128.492  0.00  0.00    +0.050 A 
ATOM     15  C   LIG A   1      -5.417  -3.089 129.655  0.00  0.00    +0.158 A 
ATOM     16  C   LIG A   1      -6.800  -2.951 129.746  0.00  0.00    +0.159 A 
ATOM     17  C   LIG A   1      -7.540  -2.453 128.683  0.00  0.00    +0.060 A 
BRANCH  15  18
ATOM     18  O   LIG A   1      -4.756  -3.588 130.743  0.00  0.00    -0.503 OA
ATOM     19  H   LIG A   1      -4.653  -2.871 131.393  0.00  0.00    +0.292 HD
ENDBRANCH  15  18
BRANCH  16  20
ATOM     20  O   LIG A   1      -7.446  -3.308 130.893  0.00  0.00    -0.503 OA
ATOM     21  H   LIG A   1      -7.898  -2.493 131.190  0.00  0.00    +0.292 HD
ENDBRANCH  16  20
ENDBRANCH  10  12
BRANCH   4  22
ATOM     22  O   LIG A   1     -10.358  -0.070 122.313  0.00  0.00    -0.506 OA
ATOM     23  H   LIG A   1     -11.249   0.350 122.350  0.00  0.00    +0.292 HD
ENDBRANCH   4  22
BRANCH   6  24
ATOM     24  O   LIG A   1      -8.445   3.913 124.061  0.00  0.00    -0.506 OA
ATOM     25  H   LIG A   1      -8.865   4.257 123.255  0.00  0.00    +0.292 HD
ENDBRANCH   6  24
BRANCH  11  26
ATOM     26  O   LIG A   1      -8.533  -3.678 125.675  0.00  0.00    -0.501 OA
ATOM     27  H   LIG A   1      -7.675  -4.119 125.566  0.00  0.00    +0.292 HD
ENDBRANCH  11  26
TORSDOF 6
ENDMDL
MODEL 9
REMARK VINA RESULT:      -6.6      5.402      8.385
REMARK  Name = NuBBE_122
REMARK  6 active torsions:
REMARK  status: ('A' for Active; 'I' for Inactive)
REMARK    1  A    between atoms: C_4  and  O_5
REMARK    2  A    between atoms: C_7  and  O_8
REMARK    3  A    between atoms: C_12  and  C_13
REMARK    4  A    between atoms: C_16  and  O_17
REMARK    5  A    between atoms: C_18  and  O_19
REMARK    6  A    between atoms: C_21  and  O_22
REMARK                            x       y       z     vdW  Elec       q    Type
REMARK                         _______ _______ _______ _____ _____    ______ ____
ROOT
ATOM      1  O   LIG A   1      -9.583  -3.452 126.989  0.00  0.00    -0.283 OA
ATOM      2  C   LIG A   1      -8.411  -3.089 126.921  0.00  0.00    +0.238 A 
ATOM      3  C   LIG A   1      -7.824  -2.771 125.614  0.00  0.00    +0.109 A 
ATOM      4  C   LIG A   1      -8.565  -2.876 124.430  0.00  0.00    +0.135 A 
ATOM      5  C   LIG A   1      -7.981  -2.563 123.204  0.00  0.00    +0.091 A 
ATOM      6  C   LIG A   1      -6.655  -2.145 123.173  0.00  0.00    +0.124 A 
ATOM      7  C   LIG A   1      -5.909  -2.037 124.343  0.00  0.00    +0.092 A 
ATOM      8  C   LIG A   1      -6.499  -2.352 125.567  0.00  0.00    +0.146 A 
ATOM      9  O   LIG A   1      -5.717  -2.225 126.685  0.00  0.00    -0.451 OA
ATOM     10  C   LIG A   1      -6.264  -2.540 127.918  0.00  0.00    +0.181 A 
ATOM     11  C   LIG A   1      -7.535  -2.944 128.117  0.00  0.00    +0.208 A 
ENDROOT
BRANCH  10  12
ATOM     12  C   LIG A   1      -5.301  -2.363 129.018  0.00  0.00    +0.025 A 
ATOM     13  C   LIG A   1      -4.547  -3.461 129.470  0.00  0.00    +0.015 A 
ATOM     14  C   LIG A   1      -3.626  -3.316 130.513  0.00  0.00    +0.050 A 
ATOM     15  C   LIG A   1      -3.465  -2.070 131.104  0.00  0.00    +0.158 A 
ATOM     16  C   LIG A   1      -4.215  -0.981 130.665  0.00  0.00    +0.159 A 
ATOM     17  C   LIG A   1      -5.135  -1.116 129.635  0.00  0.00    +0.060 A 
BRANCH  15  18
ATOM     18  O   LIG A   1      -2.580  -1.860 132.124  0.00  0.00    -0.503 OA
ATOM     19  H   LIG A   1      -2.598  -2.638 132.709  0.00  0.00    +0.292 HD
ENDBRANCH  15  18
BRANCH  16  20
ATOM     20  O   LIG A   1      -4.050   0.240 131.251  0.00  0.00    -0.503 OA
ATOM     21  H   LIG A   1      -4.960   0.566 131.408  0.00  0.00    +0.292 HD
ENDBRANCH  16  20
ENDBRANCH  10  12
BRANCH   4  22
ATOM     22  O   LIG A   1      -9.873  -3.279 124.402  0.00  0.00    -0.506 OA
ATOM     23  H   LIG A   1     -10.179  -3.257 123.465  0.00  0.00    +0.292 HD
ENDBRANCH   4  22
BRANCH   6  24
ATOM     24  O   LIG A   1      -6.040  -1.826 121.998  0.00  0.00    -0.506 OA
ATOM     25  H   LIG A   1      -5.345  -2.482 121.820  0.00  0.00    +0.292 HD
ENDBRANCH   6  24
BRANCH  11  26
ATOM     26  O   LIG A   1      -8.095  -3.221 129.351  0.00  0.00    -0.501 OA
ATOM     27  H   LIG A   1      -7.408  -3.193 130.036  0.00  0.00    +0.292 HD
ENDBRANCH  11  26
TORSDOF 6
ENDMDL
