MODEL 1
REMARK VINA RESULT:      -8.4      0.000      0.000
REMARK  Name = NuBBE_1163
REMARK  12 active torsions:
REMARK  status: ('A' for Active; 'I' for Inactive)
REMARK    1  A    between atoms: C_1  and  C_2
REMARK    2  A    between atoms: C_5  and  C_6
REMARK    3  A    between atoms: C_13  and  C_14
REMARK    4  A    between atoms: C_13  and  C_23
REMARK    5  A    between atoms: C_14  and  C_15
REMARK    6  A    between atoms: C_25  and  O_27
REMARK    7  A    between atoms: O_27  and  C_28
REMARK    8  A    between atoms: C_28  and  C_29
REMARK    9  A    between atoms: C_36  and  C_47
REMARK   10  A    between atoms: C_39  and  O_41
REMARK   11  A    between atoms: O_41  and  C_42
REMARK   12  A    between atoms: C_42  and  C_43
REMARK                            x       y       z     vdW  Elec       q    Type
REMARK                         _______ _______ _______ _____ _____    ______ ____
ROOT
ATOM      1  C   LIG A   1      -6.750   4.659 130.207  0.00  0.00    +0.020 C 
ATOM      2  C   LIG A   1      -7.574   3.450 130.726  0.00  0.00    +0.040 C 
ATOM      3  C   LIG A   1      -7.027   2.059 130.084  0.00  0.00    +0.053 C 
ATOM      4  C   LIG A   1      -7.346   0.830 130.985  0.00  0.00    +0.016 C 
ATOM      5  C   LIG A   1      -8.898   0.630 131.041  0.00  0.00    +0.015 C 
ATOM      6  C   LIG A   1      -6.680   1.048 132.375  0.00  0.00    +0.183 C 
ATOM      7  O   LIG A   1      -7.304   0.167 133.318  0.00  0.00    -0.461 OA
ATOM      8  C   LIG A   1      -7.334  -1.152 132.977  0.00  0.00    +0.308 C 
ATOM      9  C   LIG A   1      -6.591  -1.513 131.703  0.00  0.00    +0.126 C 
ATOM     10  C   LIG A   1      -6.810  -0.570 130.477  0.00  0.00    +0.023 C 
ATOM     11  C   LIG A   1      -5.589  -0.517 129.494  0.00  0.00    +0.034 C 
ATOM     12  C   LIG A   1      -4.572  -1.672 129.690  0.00  0.00    +0.019 C 
ATOM     13  C   LIG A   1      -4.763   0.767 129.719  0.00  0.00    +0.059 C 
ATOM     14  C   LIG A   1      -5.507   2.112 129.738  0.00  0.00    +0.182 C 
ATOM     15  O   LIG A   1      -7.854  -1.997 133.695  0.00  0.00    -0.251 OA
ATOM     16  C   LIG A   1      -6.627   2.491 132.912  0.00  0.00    +0.050 C 
ATOM     17  C   LIG A   1      -7.700   3.374 132.291  0.00  0.00    +0.009 C 
ATOM     18  C   LIG A   1      -7.918   4.773 132.911  0.00  0.00    -0.006 C 
ATOM     19  C   LIG A   1      -9.322   5.256 132.481  0.00  0.00    +0.056 C 
ATOM     20  C   LIG A   1      -9.707   4.981 131.011  0.00  0.00    +0.243 C 
ATOM     21  C   LIG A   1      -9.004   3.795 130.283  0.00  0.00    +0.180 C 
ATOM     22  O   LIG A   1      -9.544   3.229 129.329  0.00  0.00    -0.293 OA
ATOM     23  C   LIG A   1      -7.813   4.803 134.439  0.00  0.00    +0.008 C 
ENDROOT
BRANCH  11  24
ATOM     24  C   LIG A   1      -6.093  -0.582 128.012  0.00  0.00    +0.146 C 
ATOM     25  O   LIG A   1      -5.307  -0.457 127.073  0.00  0.00    -0.296 OA
BRANCH  24  26
ATOM     26  C   LIG A   1      -7.585  -0.732 127.711  0.00  0.00    +0.104 C 
ATOM     27  C   LIG A   1      -7.839  -1.912 126.790  0.00  0.00    +0.243 C 
ATOM     28  O   LIG A   1      -9.014  -1.589 126.051  0.00  0.00    -0.464 OA
ATOM     29  C   LIG A   1      -9.216  -0.245 126.094  0.00  0.00    +0.308 C 
ATOM     30  C   LIG A   1      -8.172   0.423 126.932  0.00  0.00    +0.135 C 
ATOM     31  O   LIG A   1     -10.134   0.330 125.519  0.00  0.00    -0.251 OA
ENDBRANCH  24  26
ENDBRANCH  11  24
BRANCH  14  32
ATOM     32  O   LIG A   1      -5.353   2.736 128.444  0.00  0.00    -0.461 OA
BRANCH  32  33
ATOM     33  C   LIG A   1      -4.101   3.149 128.107  0.00  0.00    +0.304 C 
ATOM     34  C   LIG A   1      -3.766   2.704 126.719  0.00  0.00    +0.136 C 
ATOM     35  O   LIG A   1      -3.340   3.758 128.845  0.00  0.00    -0.251 OA
ENDBRANCH  32  33
ENDBRANCH  14  32
BRANCH  20  36
ATOM     36  O   LIG A   1     -11.133   4.898 130.827  0.00  0.00    -0.454 OA
BRANCH  36  37
ATOM     37  C   LIG A   1     -11.680   5.929 130.122  0.00  0.00    +0.305 C 
ATOM     38  C   LIG A   1     -12.353   6.892 131.044  0.00  0.00    +0.136 C 
ATOM     39  O   LIG A   1     -11.577   6.086 128.913  0.00  0.00    -0.251 OA
ENDBRANCH  36  37
ENDBRANCH  20  36
TORSDOF 6
ENDMDL
MODEL 2
REMARK VINA RESULT:      -8.1      2.558      6.562
REMARK  Name = NuBBE_1163
REMARK  12 active torsions:
REMARK  status: ('A' for Active; 'I' for Inactive)
REMARK    1  A    between atoms: C_1  and  C_2
REMARK    2  A    between atoms: C_5  and  C_6
REMARK    3  A    between atoms: C_13  and  C_14
REMARK    4  A    between atoms: C_13  and  C_23
REMARK    5  A    between atoms: C_14  and  C_15
REMARK    6  A    between atoms: C_25  and  O_27
REMARK    7  A    between atoms: O_27  and  C_28
REMARK    8  A    between atoms: C_28  and  C_29
REMARK    9  A    between atoms: C_36  and  C_47
REMARK   10  A    between atoms: C_39  and  O_41
REMARK   11  A    between atoms: O_41  and  C_42
REMARK   12  A    between atoms: C_42  and  C_43
REMARK                            x       y       z     vdW  Elec       q    Type
REMARK                         _______ _______ _______ _____ _____    ______ ____
ROOT
ATOM      1  C   LIG A   1      -3.035   4.688 131.087  0.00  0.00    +0.020 C 
ATOM      2  C   LIG A   1      -4.402   4.900 130.381  0.00  0.00    +0.040 C 
ATOM      3  C   LIG A   1      -5.612   4.263 131.260  0.00  0.00    +0.053 C 
ATOM      4  C   LIG A   1      -6.977   4.952 130.969  0.00  0.00    +0.016 C 
ATOM      5  C   LIG A   1      -7.393   4.651 129.489  0.00  0.00    +0.015 C 
ATOM      6  C   LIG A   1      -6.848   6.468 131.301  0.00  0.00    +0.183 C 
ATOM      7  O   LIG A   1      -7.918   7.165 130.650  0.00  0.00    -0.461 OA
ATOM      8  C   LIG A   1      -9.175   6.702 130.900  0.00  0.00    +0.308 C 
ATOM      9  C   LIG A   1      -9.267   5.591 131.930  0.00  0.00    +0.126 C 
ATOM     10  C   LIG A   1      -8.215   4.442 131.812  0.00  0.00    +0.023 C 
ATOM     11  C   LIG A   1      -7.873   3.755 133.180  0.00  0.00    +0.034 C 
ATOM     12  C   LIG A   1      -8.893   4.056 134.309  0.00  0.00    +0.019 C 
ATOM     13  C   LIG A   1      -6.526   4.275 133.728  0.00  0.00    +0.059 C 
ATOM     14  C   LIG A   1      -5.309   4.260 132.790  0.00  0.00    +0.182 C 
ATOM     15  O   LIG A   1     -10.167   7.207 130.389  0.00  0.00    -0.251 OA
ATOM     16  C   LIG A   1      -5.491   7.137 131.013  0.00  0.00    +0.050 C 
ATOM     17  C   LIG A   1      -4.691   6.386 129.959  0.00  0.00    +0.009 C 
ATOM     18  C   LIG A   1      -3.424   7.074 129.400  0.00  0.00    -0.006 C 
ATOM     19  C   LIG A   1      -3.087   6.398 128.051  0.00  0.00    +0.056 C 
ATOM     20  C   LIG A   1      -3.225   4.861 128.016  0.00  0.00    +0.243 C 
ATOM     21  C   LIG A   1      -4.201   4.192 129.032  0.00  0.00    +0.180 C 
ATOM     22  O   LIG A   1      -4.711   3.095 128.790  0.00  0.00    -0.293 OA
ATOM     23  C   LIG A   1      -3.575   8.585 129.192  0.00  0.00    +0.008 C 
ENDROOT
BRANCH  11  24
ATOM     24  C   LIG A   1      -7.818   2.201 132.999  0.00  0.00    +0.146 C 
ATOM     25  O   LIG A   1      -7.372   1.478 133.891  0.00  0.00    -0.296 OA
BRANCH  24  26
ATOM     26  C   LIG A   1      -8.253   1.562 131.680  0.00  0.00    +0.104 C 
ATOM     27  C   LIG A   1      -9.005   0.265 131.924  0.00  0.00    +0.243 C 
ATOM     28  O   LIG A   1      -8.767  -0.549 130.779  0.00  0.00    -0.464 OA
ATOM     29  C   LIG A   1      -7.661  -0.098 130.130  0.00  0.00    +0.308 C 
ATOM     30  C   LIG A   1      -7.104   1.114 130.807  0.00  0.00    +0.135 C 
ATOM     31  O   LIG A   1      -7.193  -0.624 129.125  0.00  0.00    -0.251 OA
ENDBRANCH  24  26
ENDBRANCH  11  24
BRANCH  14  32
ATOM     32  O   LIG A   1      -4.512   3.096 133.098  0.00  0.00    -0.461 OA
BRANCH  32  33
ATOM     33  C   LIG A   1      -3.874   3.087 134.300  0.00  0.00    +0.304 C 
ATOM     34  C   LIG A   1      -4.017   1.750 134.953  0.00  0.00    +0.136 C 
ATOM     35  O   LIG A   1      -3.304   4.048 134.798  0.00  0.00    -0.251 OA
ENDBRANCH  32  33
ENDBRANCH  14  32
BRANCH  20  36
ATOM     36  O   LIG A   1      -3.478   4.366 126.688  0.00  0.00    -0.454 OA
BRANCH  36  37
ATOM     37  C   LIG A   1      -2.996   3.114 126.443  0.00  0.00    +0.305 C 
ATOM     38  C   LIG A   1      -1.520   3.069 126.675  0.00  0.00    +0.136 C 
ATOM     39  O   LIG A   1      -3.678   2.144 126.143  0.00  0.00    -0.251 OA
ENDBRANCH  36  37
ENDBRANCH  20  36
TORSDOF 6
ENDMDL
MODEL 3
REMARK VINA RESULT:      -8.0      1.803      7.250
REMARK  Name = NuBBE_1163
REMARK  12 active torsions:
REMARK  status: ('A' for Active; 'I' for Inactive)
REMARK    1  A    between atoms: C_1  and  C_2
REMARK    2  A    between atoms: C_5  and  C_6
REMARK    3  A    between atoms: C_13  and  C_14
REMARK    4  A    between atoms: C_13  and  C_23
REMARK    5  A    between atoms: C_14  and  C_15
REMARK    6  A    between atoms: C_25  and  O_27
REMARK    7  A    between atoms: O_27  and  C_28
REMARK    8  A    between atoms: C_28  and  C_29
REMARK    9  A    between atoms: C_36  and  C_47
REMARK   10  A    between atoms: C_39  and  O_41
REMARK   11  A    between atoms: O_41  and  C_42
REMARK   12  A    between atoms: C_42  and  C_43
REMARK                            x       y       z     vdW  Elec       q    Type
REMARK                         _______ _______ _______ _____ _____    ______ ____
ROOT
ATOM      1  C   LIG A   1      -8.061  -0.559 129.879  0.00  0.00    +0.020 C 
ATOM      2  C   LIG A   1      -7.165   0.225 128.882  0.00  0.00    +0.040 C 
ATOM      3  C   LIG A   1      -7.312   1.828 129.110  0.00  0.00    +0.053 C 
ATOM      4  C   LIG A   1      -6.053   2.609 128.632  0.00  0.00    +0.016 C 
ATOM      5  C   LIG A   1      -5.925   2.463 127.078  0.00  0.00    +0.015 C 
ATOM      6  C   LIG A   1      -4.818   2.091 129.426  0.00  0.00    +0.183 C 
ATOM      7  O   LIG A   1      -3.632   2.474 128.717  0.00  0.00    -0.461 OA
ATOM      8  C   LIG A   1      -3.516   3.798 128.415  0.00  0.00    +0.308 C 
ATOM      9  C   LIG A   1      -4.602   4.694 128.983  0.00  0.00    +0.126 C 
ATOM     10  C   LIG A   1      -6.070   4.175 128.858  0.00  0.00    +0.023 C 
ATOM     11  C   LIG A   1      -7.022   4.691 129.992  0.00  0.00    +0.034 C 
ATOM     12  C   LIG A   1      -6.460   5.899 130.786  0.00  0.00    +0.019 C 
ATOM     13  C   LIG A   1      -7.240   3.596 131.059  0.00  0.00    +0.059 C 
ATOM     14  C   LIG A   1      -7.665   2.198 130.584  0.00  0.00    +0.182 C 
ATOM     15  O   LIG A   1      -2.555   4.242 127.798  0.00  0.00    -0.251 OA
ATOM     16  C   LIG A   1      -4.790   0.594 129.787  0.00  0.00    +0.050 C 
ATOM     17  C   LIG A   1      -5.663  -0.237 128.857  0.00  0.00    +0.009 C 
ATOM     18  C   LIG A   1      -5.541  -1.776 128.951  0.00  0.00    -0.006 C 
ATOM     19  C   LIG A   1      -6.099  -2.365 127.636  0.00  0.00    +0.056 C 
ATOM     20  C   LIG A   1      -7.392  -1.712 127.101  0.00  0.00    +0.243 C 
ATOM     21  C   LIG A   1      -7.690  -0.238 127.515  0.00  0.00    +0.180 C 
ATOM     22  O   LIG A   1      -8.398   0.485 126.810  0.00  0.00    -0.293 OA
ATOM     23  C   LIG A   1      -4.110  -2.277 129.170  0.00  0.00    +0.008 C 
ENDROOT
BRANCH  11  24
ATOM     24  C   LIG A   1      -8.395   5.129 129.380  0.00  0.00    +0.146 C 
ATOM     25  O   LIG A   1      -8.632   4.966 128.182  0.00  0.00    -0.296 OA
BRANCH  24  26
ATOM     26  C   LIG A   1      -9.439   5.831 130.249  0.00  0.00    +0.104 C 
ATOM     27  C   LIG A   1     -10.717   5.016 130.332  0.00  0.00    +0.243 C 
ATOM     28  O   LIG A   1     -11.772   5.956 130.524  0.00  0.00    -0.464 OA
ATOM     29  C   LIG A   1     -11.351   7.188 130.132  0.00  0.00    +0.308 C 
ATOM     30  C   LIG A   1      -9.926   7.145 129.682  0.00  0.00    +0.135 C 
ATOM     31  O   LIG A   1     -12.056   8.191 130.151  0.00  0.00    -0.251 OA
ENDBRANCH  24  26
ENDBRANCH  11  24
BRANCH  14  32
ATOM     32  O   LIG A   1      -9.093   2.071 130.760  0.00  0.00    -0.461 OA
BRANCH  32  33
ATOM     33  C   LIG A   1      -9.526   1.614 131.966  0.00  0.00    +0.304 C 
ATOM     34  C   LIG A   1      -9.398   2.684 133.002  0.00  0.00    +0.136 C 
ATOM     35  O   LIG A   1      -9.922   0.478 132.184  0.00  0.00    -0.251 OA
ENDBRANCH  32  33
ENDBRANCH  14  32
BRANCH  20  36
ATOM     36  O   LIG A   1      -7.529  -1.862 125.675  0.00  0.00    -0.454 OA
BRANCH  36  37
ATOM     37  C   LIG A   1      -8.569  -2.652 125.281  0.00  0.00    +0.305 C 
ATOM     38  C   LIG A   1      -8.061  -3.909 124.654  0.00  0.00    +0.136 C 
ATOM     39  O   LIG A   1      -9.752  -2.404 125.474  0.00  0.00    -0.251 OA
ENDBRANCH  36  37
ENDBRANCH  20  36
TORSDOF 6
ENDMDL
MODEL 4
REMARK VINA RESULT:      -7.9      2.070      6.952
REMARK  Name = NuBBE_1163
REMARK  12 active torsions:
REMARK  status: ('A' for Active; 'I' for Inactive)
REMARK    1  A    between atoms: C_1  and  C_2
REMARK    2  A    between atoms: C_5  and  C_6
REMARK    3  A    between atoms: C_13  and  C_14
REMARK    4  A    between atoms: C_13  and  C_23
REMARK    5  A    between atoms: C_14  and  C_15
REMARK    6  A    between atoms: C_25  and  O_27
REMARK    7  A    between atoms: O_27  and  C_28
REMARK    8  A    between atoms: C_28  and  C_29
REMARK    9  A    between atoms: C_36  and  C_47
REMARK   10  A    between atoms: C_39  and  O_41
REMARK   11  A    between atoms: O_41  and  C_42
REMARK   12  A    between atoms: C_42  and  C_43
REMARK                            x       y       z     vdW  Elec       q    Type
REMARK                         _______ _______ _______ _____ _____    ______ ____
ROOT
ATOM      1  C   LIG A   1      -8.224  -1.692 127.213  0.00  0.00    +0.020 C 
ATOM      2  C   LIG A   1      -7.716  -0.291 126.776  0.00  0.00    +0.040 C 
ATOM      3  C   LIG A   1      -7.123   0.531 128.048  0.00  0.00    +0.053 C 
ATOM      4  C   LIG A   1      -6.075   1.600 127.621  0.00  0.00    +0.016 C 
ATOM      5  C   LIG A   1      -6.792   2.700 126.767  0.00  0.00    +0.015 C 
ATOM      6  C   LIG A   1      -4.906   0.882 126.886  0.00  0.00    +0.183 C 
ATOM      7  O   LIG A   1      -4.177   1.860 126.133  0.00  0.00    -0.461 OA
ATOM      8  C   LIG A   1      -3.741   2.949 126.827  0.00  0.00    +0.308 C 
ATOM      9  C   LIG A   1      -3.984   2.905 128.326  0.00  0.00    +0.126 C 
ATOM     10  C   LIG A   1      -5.395   2.422 128.790  0.00  0.00    +0.023 C 
ATOM     11  C   LIG A   1      -5.396   1.734 130.199  0.00  0.00    +0.034 C 
ATOM     12  C   LIG A   1      -4.113   1.998 131.030  0.00  0.00    +0.019 C 
ATOM     13  C   LIG A   1      -5.452   0.198 130.054  0.00  0.00    +0.059 C 
ATOM     14  C   LIG A   1      -6.540  -0.405 129.152  0.00  0.00    +0.182 C 
ATOM     15  O   LIG A   1      -3.122   3.858 126.289  0.00  0.00    -0.251 OA
ATOM     16  C   LIG A   1      -5.265  -0.337 126.015  0.00  0.00    +0.050 C 
ATOM     17  C   LIG A   1      -6.717  -0.312 125.563  0.00  0.00    +0.009 C 
ATOM     18  C   LIG A   1      -7.149  -1.339 124.491  0.00  0.00    -0.006 C 
ATOM     19  C   LIG A   1      -8.453  -0.817 123.848  0.00  0.00    +0.056 C 
ATOM     20  C   LIG A   1      -9.491  -0.218 124.821  0.00  0.00    +0.243 C 
ATOM     21  C   LIG A   1      -8.973   0.356 126.176  0.00  0.00    +0.180 C 
ATOM     22  O   LIG A   1      -9.608   1.227 126.777  0.00  0.00    -0.293 OA
ATOM     23  C   LIG A   1      -6.100  -1.580 123.400  0.00  0.00    +0.008 C 
ENDROOT
BRANCH  11  24
ATOM     24  C   LIG A   1      -6.615   2.241 131.041  0.00  0.00    +0.146 C 
ATOM     25  O   LIG A   1      -6.784   1.858 132.199  0.00  0.00    -0.296 OA
BRANCH  24  26
ATOM     26  C   LIG A   1      -7.654   3.169 130.412  0.00  0.00    +0.104 C 
ATOM     27  C   LIG A   1      -7.959   4.344 131.323  0.00  0.00    +0.243 C 
ATOM     28  O   LIG A   1      -9.304   4.723 131.041  0.00  0.00    -0.464 OA
ATOM     29  C   LIG A   1      -9.943   3.688 130.434  0.00  0.00    +0.308 C 
ATOM     30  C   LIG A   1      -9.014   2.534 130.232  0.00  0.00    +0.135 C 
ATOM     31  O   LIG A   1     -11.124   3.711 130.104  0.00  0.00    -0.251 OA
ENDBRANCH  24  26
ENDBRANCH  11  24
BRANCH  14  32
ATOM     32  O   LIG A   1      -7.626  -0.859 129.989  0.00  0.00    -0.461 OA
BRANCH  32  33
ATOM     33  C   LIG A   1      -7.369  -1.914 130.810  0.00  0.00    +0.304 C 
ATOM     34  C   LIG A   1      -7.697  -1.560 132.225  0.00  0.00    +0.136 C 
ATOM     35  O   LIG A   1      -6.897  -2.983 130.451  0.00  0.00    -0.251 OA
ENDBRANCH  32  33
ENDBRANCH  14  32
BRANCH  20  36
ATOM     36  O   LIG A   1     -10.355   0.738 124.178  0.00  0.00    -0.454 OA
BRANCH  36  37
ATOM     37  C   LIG A   1      -9.964   1.110 122.926  0.00  0.00    +0.305 C 
ATOM     38  C   LIG A   1      -9.012   2.260 122.996  0.00  0.00    +0.136 C 
ATOM     39  O   LIG A   1     -10.287   0.543 121.891  0.00  0.00    -0.251 OA
ENDBRANCH  36  37
ENDBRANCH  20  36
TORSDOF 6
ENDMDL
MODEL 5
REMARK VINA RESULT:      -7.8      2.398      6.681
REMARK  Name = NuBBE_1163
REMARK  12 active torsions:
REMARK  status: ('A' for Active; 'I' for Inactive)
REMARK    1  A    between atoms: C_1  and  C_2
REMARK    2  A    between atoms: C_5  and  C_6
REMARK    3  A    between atoms: C_13  and  C_14
REMARK    4  A    between atoms: C_13  and  C_23
REMARK    5  A    between atoms: C_14  and  C_15
REMARK    6  A    between atoms: C_25  and  O_27
REMARK    7  A    between atoms: O_27  and  C_28
REMARK    8  A    between atoms: C_28  and  C_29
REMARK    9  A    between atoms: C_36  and  C_47
REMARK   10  A    between atoms: C_39  and  O_41
REMARK   11  A    between atoms: O_41  and  C_42
REMARK   12  A    between atoms: C_42  and  C_43
REMARK                            x       y       z     vdW  Elec       q    Type
REMARK                         _______ _______ _______ _____ _____    ______ ____
ROOT
ATOM      1  C   LIG A   1      -5.795   1.411 128.385  0.00  0.00    +0.020 C 
ATOM      2  C   LIG A   1      -5.651   2.929 128.679  0.00  0.00    +0.040 C 
ATOM      3  C   LIG A   1      -6.291   3.300 130.127  0.00  0.00    +0.053 C 
ATOM      4  C   LIG A   1      -5.655   4.582 130.740  0.00  0.00    +0.016 C 
ATOM      5  C   LIG A   1      -6.023   5.812 129.843  0.00  0.00    +0.015 C 
ATOM      6  C   LIG A   1      -4.125   4.345 130.904  0.00  0.00    +0.183 C 
ATOM      7  O   LIG A   1      -3.484   5.619 131.053  0.00  0.00    -0.461 OA
ATOM      8  C   LIG A   1      -3.976   6.426 132.035  0.00  0.00    +0.308 C 
ATOM      9  C   LIG A   1      -5.050   5.806 132.911  0.00  0.00    +0.126 C 
ATOM     10  C   LIG A   1      -6.171   5.003 132.176  0.00  0.00    +0.023 C 
ATOM     11  C   LIG A   1      -6.795   3.854 133.041  0.00  0.00    +0.034 C 
ATOM     12  C   LIG A   1      -6.484   3.965 134.557  0.00  0.00    +0.019 C 
ATOM     13  C   LIG A   1      -6.215   2.484 132.627  0.00  0.00    +0.059 C 
ATOM     14  C   LIG A   1      -6.229   2.113 131.136  0.00  0.00    +0.182 C 
ATOM     15  O   LIG A   1      -3.520   7.543 132.247  0.00  0.00    -0.251 OA
ATOM     16  C   LIG A   1      -3.426   3.493 129.828  0.00  0.00    +0.050 C 
ATOM     17  C   LIG A   1      -4.191   3.487 128.513  0.00  0.00    +0.009 C 
ATOM     18  C   LIG A   1      -3.486   2.875 127.281  0.00  0.00    -0.006 C 
ATOM     19  C   LIG A   1      -4.201   3.416 126.022  0.00  0.00    +0.056 C 
ATOM     20  C   LIG A   1      -5.742   3.474 126.096  0.00  0.00    +0.243 C 
ATOM     21  C   LIG A   1      -6.402   3.577 127.505  0.00  0.00    +0.180 C 
ATOM     22  O   LIG A   1      -7.522   4.074 127.644  0.00  0.00    -0.293 OA
ATOM     23  C   LIG A   1      -1.990   3.192 127.196  0.00  0.00    +0.008 C 
ENDROOT
BRANCH  11  24
ATOM     24  C   LIG A   1      -8.353   3.850 132.881  0.00  0.00    +0.146 C 
ATOM     25  O   LIG A   1      -9.050   3.050 133.506  0.00  0.00    -0.296 OA
BRANCH  24  26
ATOM     26  C   LIG A   1      -9.029   4.798 131.890  0.00  0.00    +0.104 C 
ATOM     27  C   LIG A   1     -10.031   5.697 132.591  0.00  0.00    +0.243 C 
ATOM     28  O   LIG A   1     -11.030   6.005 131.622  0.00  0.00    -0.464 OA
ATOM     29  C   LIG A   1     -10.985   5.083 130.623  0.00  0.00    +0.308 C 
ATOM     30  C   LIG A   1      -9.884   4.099 130.858  0.00  0.00    +0.135 C 
ATOM     31  O   LIG A   1     -11.750   5.073 129.665  0.00  0.00    -0.251 OA
ENDBRANCH  24  26
ENDBRANCH  11  24
BRANCH  14  32
ATOM     32  O   LIG A   1      -7.356   1.244 130.893  0.00  0.00    -0.461 OA
BRANCH  32  33
ATOM     33  C   LIG A   1      -7.297  -0.004 131.432  0.00  0.00    +0.304 C 
ATOM     34  C   LIG A   1      -8.598  -0.349 132.083  0.00  0.00    +0.136 C 
ATOM     35  O   LIG A   1      -6.309  -0.726 131.425  0.00  0.00    -0.251 OA
ENDBRANCH  32  33
ENDBRANCH  14  32
BRANCH  20  36
ATOM     36  O   LIG A   1      -6.293   4.474 125.218  0.00  0.00    -0.454 OA
BRANCH  36  37
ATOM     37  C   LIG A   1      -7.106   3.988 124.237  0.00  0.00    +0.305 C 
ATOM     38  C   LIG A   1      -6.310   3.659 123.016  0.00  0.00    +0.136 C 
ATOM     39  O   LIG A   1      -8.306   3.782 124.356  0.00  0.00    -0.251 OA
ENDBRANCH  36  37
ENDBRANCH  20  36
TORSDOF 6
ENDMDL
MODEL 6
REMARK VINA RESULT:      -7.7      3.167      7.173
REMARK  Name = NuBBE_1163
REMARK  12 active torsions:
REMARK  status: ('A' for Active; 'I' for Inactive)
REMARK    1  A    between atoms: C_1  and  C_2
REMARK    2  A    between atoms: C_5  and  C_6
REMARK    3  A    between atoms: C_13  and  C_14
REMARK    4  A    between atoms: C_13  and  C_23
REMARK    5  A    between atoms: C_14  and  C_15
REMARK    6  A    between atoms: C_25  and  O_27
REMARK    7  A    between atoms: O_27  and  C_28
REMARK    8  A    between atoms: C_28  and  C_29
REMARK    9  A    between atoms: C_36  and  C_47
REMARK   10  A    between atoms: C_39  and  O_41
REMARK   11  A    between atoms: O_41  and  C_42
REMARK   12  A    between atoms: C_42  and  C_43
REMARK                            x       y       z     vdW  Elec       q    Type
REMARK                         _______ _______ _______ _____ _____    ______ ____
ROOT
ATOM      1  C   LIG A   1      -8.258   4.953 125.861  0.00  0.00    +0.020 C 
ATOM      2  C   LIG A   1      -7.297   3.746 126.043  0.00  0.00    +0.040 C 
ATOM      3  C   LIG A   1      -7.018   3.461 127.619  0.00  0.00    +0.053 C 
ATOM      4  C   LIG A   1      -6.621   1.980 127.888  0.00  0.00    +0.016 C 
ATOM      5  C   LIG A   1      -5.241   1.692 127.206  0.00  0.00    +0.015 C 
ATOM      6  C   LIG A   1      -7.778   1.061 127.399  0.00  0.00    +0.183 C 
ATOM      7  O   LIG A   1      -7.265  -0.268 127.245  0.00  0.00    -0.461 OA
ATOM      8  C   LIG A   1      -6.628  -0.795 128.328  0.00  0.00    +0.308 C 
ATOM      9  C   LIG A   1      -6.666   0.058 129.584  0.00  0.00    +0.126 C 
ATOM     10  C   LIG A   1      -6.378   1.582 129.400  0.00  0.00    +0.023 C 
ATOM     11  C   LIG A   1      -7.082   2.491 130.467  0.00  0.00    +0.034 C 
ATOM     12  C   LIG A   1      -7.598   1.720 131.710  0.00  0.00    +0.019 C 
ATOM     13  C   LIG A   1      -8.344   3.152 129.871  0.00  0.00    +0.059 C 
ATOM     14  C   LIG A   1      -8.210   3.889 128.529  0.00  0.00    +0.182 C 
ATOM     15  O   LIG A   1      -6.134  -1.916 128.311  0.00  0.00    -0.251 OA
ATOM     16  C   LIG A   1      -8.551   1.508 126.144  0.00  0.00    +0.050 C 
ATOM     17  C   LIG A   1      -7.733   2.448 125.271  0.00  0.00    +0.009 C 
ATOM     18  C   LIG A   1      -8.288   2.782 123.867  0.00  0.00    -0.006 C 
ATOM     19  C   LIG A   1      -7.109   3.304 123.015  0.00  0.00    +0.056 C 
ATOM     20  C   LIG A   1      -6.142   4.274 123.727  0.00  0.00    +0.243 C 
ATOM     21  C   LIG A   1      -6.040   4.194 125.281  0.00  0.00    +0.180 C 
ATOM     22  O   LIG A   1      -5.021   4.567 125.868  0.00  0.00    -0.293 OA
ATOM     23  C   LIG A   1      -8.947   1.595 123.158  0.00  0.00    +0.008 C 
ENDROOT
BRANCH  11  24
ATOM     24  C   LIG A   1      -6.087   3.589 130.974  0.00  0.00    +0.146 C 
ATOM     25  O   LIG A   1      -6.453   4.452 131.772  0.00  0.00    -0.296 OA
BRANCH  24  26
ATOM     26  C   LIG A   1      -4.659   3.646 130.430  0.00  0.00    +0.104 C 
ATOM     27  C   LIG A   1      -3.659   3.881 131.548  0.00  0.00    +0.243 C 
ATOM     28  O   LIG A   1      -2.562   4.573 130.956  0.00  0.00    -0.464 OA
ATOM     29  C   LIG A   1      -2.969   5.144 129.791  0.00  0.00    +0.308 C 
ATOM     30  C   LIG A   1      -4.400   4.816 129.509  0.00  0.00    +0.135 C 
ATOM     31  O   LIG A   1      -2.248   5.834 129.077  0.00  0.00    -0.251 OA
ENDBRANCH  24  26
ENDBRANCH  11  24
BRANCH  14  32
ATOM     32  O   LIG A   1      -8.100   5.304 128.796  0.00  0.00    -0.461 OA
BRANCH  32  33
ATOM     33  C   LIG A   1      -9.190   5.914 129.335  0.00  0.00    +0.304 C 
ATOM     34  C   LIG A   1      -8.795   6.714 130.535  0.00  0.00    +0.136 C 
ATOM     35  O   LIG A   1     -10.336   5.793 128.926  0.00  0.00    -0.251 OA
ENDBRANCH  32  33
ENDBRANCH  14  32
BRANCH  20  36
ATOM     36  O   LIG A   1      -4.825   4.257 123.144  0.00  0.00    -0.454 OA
BRANCH  36  37
ATOM     37  C   LIG A   1      -4.765   4.690 121.852  0.00  0.00    +0.305 C 
ATOM     38  C   LIG A   1      -5.131   3.586 120.914  0.00  0.00    +0.136 C 
ATOM     39  O   LIG A   1      -4.517   5.837 121.507  0.00  0.00    -0.251 OA
ENDBRANCH  36  37
ENDBRANCH  20  36
TORSDOF 6
ENDMDL
MODEL 7
REMARK VINA RESULT:      -7.7      3.801      7.165
REMARK  Name = NuBBE_1163
REMARK  12 active torsions:
REMARK  status: ('A' for Active; 'I' for Inactive)
REMARK    1  A    between atoms: C_1  and  C_2
REMARK    2  A    between atoms: C_5  and  C_6
REMARK    3  A    between atoms: C_13  and  C_14
REMARK    4  A    between atoms: C_13  and  C_23
REMARK    5  A    between atoms: C_14  and  C_15
REMARK    6  A    between atoms: C_25  and  O_27
REMARK    7  A    between atoms: O_27  and  C_28
REMARK    8  A    between atoms: C_28  and  C_29
REMARK    9  A    between atoms: C_36  and  C_47
REMARK   10  A    between atoms: C_39  and  O_41
REMARK   11  A    between atoms: O_41  and  C_42
REMARK   12  A    between atoms: C_42  and  C_43
REMARK                            x       y       z     vdW  Elec       q    Type
REMARK                         _______ _______ _______ _____ _____    ______ ____
ROOT
ATOM      1  C   LIG A   1      -8.753   6.097 132.934  0.00  0.00    +0.020 C 
ATOM      2  C   LIG A   1      -8.041   5.632 131.635  0.00  0.00    +0.040 C 
ATOM      3  C   LIG A   1      -6.467   5.331 131.915  0.00  0.00    +0.053 C 
ATOM      4  C   LIG A   1      -5.874   4.313 130.899  0.00  0.00    +0.016 C 
ATOM      5  C   LIG A   1      -5.882   4.955 129.470  0.00  0.00    +0.015 C 
ATOM      6  C   LIG A   1      -6.675   2.982 131.005  0.00  0.00    +0.183 C 
ATOM      7  O   LIG A   1      -6.434   2.214 129.819  0.00  0.00    -0.461 OA
ATOM      8  C   LIG A   1      -5.127   1.989 129.505  0.00  0.00    +0.308 C 
ATOM      9  C   LIG A   1      -4.118   2.481 130.528  0.00  0.00    +0.126 C 
ATOM     10  C   LIG A   1      -4.358   3.908 131.114  0.00  0.00    +0.023 C 
ATOM     11  C   LIG A   1      -3.802   4.098 132.568  0.00  0.00    +0.034 C 
ATOM     12  C   LIG A   1      -2.795   3.001 133.004  0.00  0.00    +0.019 C 
ATOM     13  C   LIG A   1      -4.943   4.008 133.603  0.00  0.00    +0.059 C 
ATOM     14  C   LIG A   1      -6.192   4.875 133.380  0.00  0.00    +0.182 C 
ATOM     15  O   LIG A   1      -4.797   1.359 128.508  0.00  0.00    -0.251 OA
ATOM     16  C   LIG A   1      -8.182   3.090 131.301  0.00  0.00    +0.050 C 
ATOM     17  C   LIG A   1      -8.752   4.441 130.895  0.00  0.00    +0.009 C 
ATOM     18  C   LIG A   1     -10.290   4.601 130.911  0.00  0.00    -0.006 C 
ATOM     19  C   LIG A   1     -10.639   5.813 130.018  0.00  0.00    +0.056 C 
ATOM     20  C   LIG A   1      -9.721   7.045 130.166  0.00  0.00    +0.243 C 
ATOM     21  C   LIG A   1      -8.267   6.814 130.681  0.00  0.00    +0.180 C 
ATOM     22  O   LIG A   1      -7.364   7.608 130.402  0.00  0.00    -0.293 OA
ATOM     23  C   LIG A   1     -11.051   3.366 130.419  0.00  0.00    +0.008 C 
ENDROOT
BRANCH  11  24
ATOM     24  C   LIG A   1      -3.073   5.478 132.686  0.00  0.00    +0.146 C 
ATOM     25  O   LIG A   1      -3.270   6.368 131.857  0.00  0.00    -0.296 OA
BRANCH  24  26
ATOM     26  C   LIG A   1      -2.049   5.719 133.796  0.00  0.00    +0.104 C 
ATOM     27  C   LIG A   1      -2.503   6.831 134.724  0.00  0.00    +0.243 C 
ATOM     28  O   LIG A   1      -1.313   7.427 135.235  0.00  0.00    -0.464 OA
ATOM     29  C   LIG A   1      -0.271   7.118 134.418  0.00  0.00    +0.308 C 
ATOM     30  C   LIG A   1      -0.716   6.229 133.301  0.00  0.00    +0.135 C 
ATOM     31  O   LIG A   1       0.876   7.521 134.587  0.00  0.00    -0.251 OA
ENDBRANCH  24  26
ENDBRANCH  11  24
BRANCH  14  32
ATOM     32  O   LIG A   1      -6.085   6.050 134.215  0.00  0.00    -0.461 OA
BRANCH  32  33
ATOM     33  C   LIG A   1      -6.177   5.860 135.559  0.00  0.00    +0.304 C 
ATOM     34  C   LIG A   1      -7.549   5.389 135.923  0.00  0.00    +0.136 C 
ATOM     35  O   LIG A   1      -5.282   6.083 136.362  0.00  0.00    -0.251 OA
ENDBRANCH  32  33
ENDBRANCH  14  32
BRANCH  20  36
ATOM     36  O   LIG A   1      -9.701   7.858 128.978  0.00  0.00    -0.454 OA
BRANCH  36  37
ATOM     37  C   LIG A   1     -10.927   8.274 128.549  0.00  0.00    +0.305 C 
ATOM     38  C   LIG A   1     -11.095   7.989 127.092  0.00  0.00    +0.136 C 
ATOM     39  O   LIG A   1     -11.797   8.750 129.265  0.00  0.00    -0.251 OA
ENDBRANCH  36  37
ENDBRANCH  20  36
TORSDOF 6
ENDMDL
MODEL 8
REMARK VINA RESULT:      -7.7      1.755      2.098
REMARK  Name = NuBBE_1163
REMARK  12 active torsions:
REMARK  status: ('A' for Active; 'I' for Inactive)
REMARK    1  A    between atoms: C_1  and  C_2
REMARK    2  A    between atoms: C_5  and  C_6
REMARK    3  A    between atoms: C_13  and  C_14
REMARK    4  A    between atoms: C_13  and  C_23
REMARK    5  A    between atoms: C_14  and  C_15
REMARK    6  A    between atoms: C_25  and  O_27
REMARK    7  A    between atoms: O_27  and  C_28
REMARK    8  A    between atoms: C_28  and  C_29
REMARK    9  A    between atoms: C_36  and  C_47
REMARK   10  A    between atoms: C_39  and  O_41
REMARK   11  A    between atoms: O_41  and  C_42
REMARK   12  A    between atoms: C_42  and  C_43
REMARK                            x       y       z     vdW  Elec       q    Type
REMARK                         _______ _______ _______ _____ _____    ______ ____
ROOT
ATOM      1  C   LIG A   1      -7.515   5.693 130.163  0.00  0.00    +0.020 C 
ATOM      2  C   LIG A   1      -8.259   4.441 130.701  0.00  0.00    +0.040 C 
ATOM      3  C   LIG A   1      -7.857   3.117 129.847  0.00  0.00    +0.053 C 
ATOM      4  C   LIG A   1      -8.039   1.809 130.670  0.00  0.00    +0.016 C 
ATOM      5  C   LIG A   1      -9.562   1.607 130.974  0.00  0.00    +0.015 C 
ATOM      6  C   LIG A   1      -7.139   1.891 131.938  0.00  0.00    +0.183 C 
ATOM      7  O   LIG A   1      -7.608   0.926 132.888  0.00  0.00    -0.461 OA
ATOM      8  C   LIG A   1      -7.721  -0.355 132.435  0.00  0.00    +0.308 C 
ATOM      9  C   LIG A   1      -7.215  -0.594 131.024  0.00  0.00    +0.126 C 
ATOM     10  C   LIG A   1      -7.624   0.462 129.948  0.00  0.00    +0.023 C 
ATOM     11  C   LIG A   1      -6.590   0.606 128.778  0.00  0.00    +0.034 C 
ATOM     12  C   LIG A   1      -5.575  -0.564 128.686  0.00  0.00    +0.019 C 
ATOM     13  C   LIG A   1      -5.714   1.862 128.977  0.00  0.00    +0.059 C 
ATOM     14  C   LIG A   1      -6.419   3.200 129.249  0.00  0.00    +0.182 C 
ATOM     15  O   LIG A   1      -8.125  -1.263 133.150  0.00  0.00    -0.251 OA
ATOM     16  C   LIG A   1      -6.969   3.276 132.590  0.00  0.00    +0.050 C 
ATOM     17  C   LIG A   1      -8.115   4.217 132.250  0.00  0.00    +0.009 C 
ATOM     18  C   LIG A   1      -8.198   5.551 133.027  0.00  0.00    -0.006 C 
ATOM     19  C   LIG A   1      -9.646   6.076 132.893  0.00  0.00    +0.056 C 
ATOM     20  C   LIG A   1     -10.283   5.943 131.493  0.00  0.00    +0.243 C 
ATOM     21  C   LIG A   1      -9.737   4.831 130.546  0.00  0.00    +0.180 C 
ATOM     22  O   LIG A   1     -10.444   4.359 129.651  0.00  0.00    -0.293 OA
ATOM     23  C   LIG A   1      -7.831   5.434 134.510  0.00  0.00    +0.008 C 
ENDROOT
BRANCH  11  24
ATOM     24  C   LIG A   1      -7.342   0.684 127.407  0.00  0.00    +0.146 C 
ATOM     25  O   LIG A   1      -8.567   0.802 127.366  0.00  0.00    -0.296 OA
BRANCH  24  26
ATOM     26  C   LIG A   1      -6.571   0.546 126.094  0.00  0.00    +0.104 C 
ATOM     27  C   LIG A   1      -7.029   1.579 125.080  0.00  0.00    +0.243 C 
ATOM     28  O   LIG A   1      -6.818   0.993 123.798  0.00  0.00    -0.464 OA
ATOM     29  C   LIG A   1      -6.720  -0.357 123.932  0.00  0.00    +0.308 C 
ATOM     30  C   LIG A   1      -6.821  -0.757 125.370  0.00  0.00    +0.135 C 
ATOM     31  O   LIG A   1      -6.570  -1.130 122.992  0.00  0.00    -0.251 OA
ENDBRANCH  24  26
ENDBRANCH  11  24
BRANCH  14  32
ATOM     32  O   LIG A   1      -6.477   3.944 128.013  0.00  0.00    -0.461 OA
BRANCH  32  33
ATOM     33  C   LIG A   1      -5.289   4.295 127.450  0.00  0.00    +0.304 C 
ATOM     34  C   LIG A   1      -4.480   5.106 128.410  0.00  0.00    +0.136 C 
ATOM     35  O   LIG A   1      -4.948   4.026 126.306  0.00  0.00    -0.251 OA
ENDBRANCH  32  33
ENDBRANCH  14  32
BRANCH  20  36
ATOM     36  O   LIG A   1     -11.721   5.880 131.552  0.00  0.00    -0.454 OA
BRANCH  36  37
ATOM     37  C   LIG A   1     -12.357   7.045 131.239  0.00  0.00    +0.305 C 
ATOM     38  C   LIG A   1     -11.789   7.629 129.986  0.00  0.00    +0.136 C 
ATOM     39  O   LIG A   1     -13.305   7.514 131.852  0.00  0.00    -0.251 OA
ENDBRANCH  36  37
ENDBRANCH  20  36
TORSDOF 6
ENDMDL
MODEL 9
REMARK VINA RESULT:      -7.6      2.125      6.871
REMARK  Name = NuBBE_1163
REMARK  12 active torsions:
REMARK  status: ('A' for Active; 'I' for Inactive)
REMARK    1  A    between atoms: C_1  and  C_2
REMARK    2  A    between atoms: C_5  and  C_6
REMARK    3  A    between atoms: C_13  and  C_14
REMARK    4  A    between atoms: C_13  and  C_23
REMARK    5  A    between atoms: C_14  and  C_15
REMARK    6  A    between atoms: C_25  and  O_27
REMARK    7  A    between atoms: O_27  and  C_28
REMARK    8  A    between atoms: C_28  and  C_29
REMARK    9  A    between atoms: C_36  and  C_47
REMARK   10  A    between atoms: C_39  and  O_41
REMARK   11  A    between atoms: O_41  and  C_42
REMARK   12  A    between atoms: C_42  and  C_43
REMARK                            x       y       z     vdW  Elec       q    Type
REMARK                         _______ _______ _______ _____ _____    ______ ____
ROOT
ATOM      1  C   LIG A   1      -8.559   0.560 127.454  0.00  0.00    +0.020 C 
ATOM      2  C   LIG A   1      -7.285  -0.016 128.131  0.00  0.00    +0.040 C 
ATOM      3  C   LIG A   1      -6.765   0.968 129.316  0.00  0.00    +0.053 C 
ATOM      4  C   LIG A   1      -5.942   0.205 130.395  0.00  0.00    +0.016 C 
ATOM      5  C   LIG A   1      -4.621  -0.327 129.745  0.00  0.00    +0.015 C 
ATOM      6  C   LIG A   1      -6.843  -0.905 131.012  0.00  0.00    +0.183 C 
ATOM      7  O   LIG A   1      -5.999  -1.859 131.668  0.00  0.00    -0.461 OA
ATOM      8  C   LIG A   1      -5.124  -1.356 132.584  0.00  0.00    +0.308 C 
ATOM      9  C   LIG A   1      -5.259   0.130 132.866  0.00  0.00    +0.126 C 
ATOM     10  C   LIG A   1      -5.432   1.062 131.624  0.00  0.00    +0.023 C 
ATOM     11  C   LIG A   1      -6.239   2.373 131.925  0.00  0.00    +0.034 C 
ATOM     12  C   LIG A   1      -6.378   2.695 133.436  0.00  0.00    +0.019 C 
ATOM     13  C   LIG A   1      -7.693   2.243 131.422  0.00  0.00    +0.059 C 
ATOM     14  C   LIG A   1      -7.920   1.783 129.974  0.00  0.00    +0.182 C 
ATOM     15  O   LIG A   1      -4.342  -2.071 133.197  0.00  0.00    -0.251 OA
ATOM     16  C   LIG A   1      -7.844  -1.602 130.071  0.00  0.00    +0.050 C 
ATOM     17  C   LIG A   1      -7.423  -1.506 128.612  0.00  0.00    +0.009 C 
ATOM     18  C   LIG A   1      -8.202  -2.363 127.587  0.00  0.00    -0.006 C 
ATOM     19  C   LIG A   1      -7.317  -2.495 126.327  0.00  0.00    +0.056 C 
ATOM     20  C   LIG A   1      -6.587  -1.210 125.880  0.00  0.00    +0.243 C 
ATOM     21  C   LIG A   1      -6.296  -0.123 126.960  0.00  0.00    +0.180 C 
ATOM     22  O   LIG A   1      -5.363   0.673 126.821  0.00  0.00    -0.293 OA
ATOM     23  C   LIG A   1      -8.577  -3.759 128.098  0.00  0.00    +0.008 C 
ENDROOT
BRANCH  11  24
ATOM     24  C   LIG A   1      -5.541   3.599 131.245  0.00  0.00    +0.146 C 
ATOM     25  O   LIG A   1      -6.077   4.707 131.240  0.00  0.00    -0.296 OA
BRANCH  24  26
ATOM     26  C   LIG A   1      -4.209   3.421 130.515  0.00  0.00    +0.104 C 
ATOM     27  C   LIG A   1      -3.268   4.575 130.808  0.00  0.00    +0.243 C 
ATOM     28  O   LIG A   1      -2.433   4.703 129.660  0.00  0.00    -0.464 OA
ATOM     29  C   LIG A   1      -3.031   4.096 128.600  0.00  0.00    +0.308 C 
ATOM     30  C   LIG A   1      -4.325   3.467 129.008  0.00  0.00    +0.135 C 
ATOM     31  O   LIG A   1      -2.561   4.074 127.468  0.00  0.00    -0.251 OA
ENDBRANCH  24  26
ENDBRANCH  11  24
BRANCH  14  32
ATOM     32  O   LIG A   1      -8.182   2.948 129.161  0.00  0.00    -0.461 OA
BRANCH  32  33
ATOM     33  C   LIG A   1      -9.245   3.719 129.516  0.00  0.00    +0.304 C 
ATOM     34  C   LIG A   1      -8.869   5.165 129.486  0.00  0.00    +0.136 C 
ATOM     35  O   LIG A   1     -10.340   3.291 129.854  0.00  0.00    -0.251 OA
ENDBRANCH  32  33
ENDBRANCH  14  32
BRANCH  20  36
ATOM     36  O   LIG A   1      -5.391  -1.494 125.131  0.00  0.00    -0.454 OA
BRANCH  36  37
ATOM     37  C   LIG A   1      -5.605  -2.014 123.888  0.00  0.00    +0.305 C 
ATOM     38  C   LIG A   1      -4.824  -3.275 123.708  0.00  0.00    +0.136 C 
ATOM     39  O   LIG A   1      -6.379  -1.556 123.059  0.00  0.00    -0.251 OA
ENDBRANCH  36  37
ENDBRANCH  20  36
TORSDOF 6
ENDMDL
