MODEL 1
REMARK VINA RESULT:      -6.2      0.000      0.000
REMARK  Name = NuBBE_2214
REMARK  4 active torsions:
REMARK  status: ('A' for Active; 'I' for Inactive)
REMARK    1  A    between atoms: O_1  and  C_2
REMARK    2  A    between atoms: O_1  and  C_3
REMARK    3  A    between atoms: C_9  and  C_12
REMARK    4  A    between atoms: C_13  and  O_16
REMARK                            x       y       z     vdW  Elec       q    Type
REMARK                         _______ _______ _______ _____ _____    ______ ____
ROOT
ATOM      1  C   LIG A   1      -7.458  -2.699 126.855  0.00  0.00    +0.124 A 
ATOM      2  C   LIG A   1      -6.973  -2.445 125.560  0.00  0.00    +0.015 A 
ATOM      3  C   LIG A   1      -7.835  -2.558 124.455  0.00  0.00    +0.107 A 
ATOM      4  C   LIG A   1      -7.345  -2.252 123.088  0.00  0.00    +0.343 C 
ATOM      5  O   LIG A   1      -8.138  -2.159 122.156  0.00  0.00    -0.245 OA
ATOM      6  O   LIG A   1      -6.012  -2.074 122.919  0.00  0.00    -0.458 OA
ATOM      7  C   LIG A   1      -5.080  -2.454 123.950  0.00  0.00    +0.178 C 
ATOM      8  C   LIG A   1      -5.559  -1.990 125.321  0.00  0.00    +0.084 C 
ATOM      9  C   LIG A   1      -4.799  -3.953 123.866  0.00  0.00    +0.052 C 
ATOM     10  C   LIG A   1      -9.168  -2.939 124.650  0.00  0.00    +0.131 A 
ATOM     11  C   LIG A   1      -9.640  -3.214 125.927  0.00  0.00    +0.050 A 
ATOM     12  C   LIG A   1      -8.788  -3.093 127.028  0.00  0.00    +0.049 A 
ENDROOT
BRANCH   1  13
ATOM     13  O   LIG A   1      -6.555  -2.534 127.872  0.00  0.00    -0.495 OA
ATOM     14  C   LIG A   1      -6.940  -2.975 129.169  0.00  0.00    +0.277 C 
ENDBRANCH   1  13
BRANCH  10  15
ATOM     15  O   LIG A   1     -10.077  -3.061 123.633  0.00  0.00    -0.506 OA
ATOM     16  H   LIG A   1      -9.735  -2.577 122.847  0.00  0.00    +0.292 HD
ENDBRANCH  10  15
TORSDOF 2
ENDMDL
MODEL 2
REMARK VINA RESULT:      -6.1     10.430     11.439
REMARK  Name = NuBBE_2214
REMARK  4 active torsions:
REMARK  status: ('A' for Active; 'I' for Inactive)
REMARK    1  A    between atoms: O_1  and  C_2
REMARK    2  A    between atoms: O_1  and  C_3
REMARK    3  A    between atoms: C_9  and  C_12
REMARK    4  A    between atoms: C_13  and  O_16
REMARK                            x       y       z     vdW  Elec       q    Type
REMARK                         _______ _______ _______ _____ _____    ______ ____
ROOT
ATOM      1  C   LIG A   1      -9.526   5.550 129.086  0.00  0.00    +0.124 A 
ATOM      2  C   LIG A   1     -10.425   6.624 128.967  0.00  0.00    +0.015 A 
ATOM      3  C   LIG A   1     -11.326   6.902 130.010  0.00  0.00    +0.107 A 
ATOM      4  C   LIG A   1     -12.250   8.059 129.913  0.00  0.00    +0.343 C 
ATOM      5  O   LIG A   1     -12.893   8.417 130.896  0.00  0.00    -0.245 OA
ATOM      6  O   LIG A   1     -12.345   8.696 128.721  0.00  0.00    -0.458 OA
ATOM      7  C   LIG A   1     -11.805   8.103 127.523  0.00  0.00    +0.178 C 
ATOM      8  C   LIG A   1     -10.411   7.538 127.771  0.00  0.00    +0.084 C 
ATOM      9  C   LIG A   1     -12.795   7.087 126.958  0.00  0.00    +0.052 C 
ATOM     10  C   LIG A   1     -11.334   6.095 131.154  0.00  0.00    +0.131 A 
ATOM     11  C   LIG A   1     -10.463   5.018 131.260  0.00  0.00    +0.050 A 
ATOM     12  C   LIG A   1      -9.560   4.747 130.230  0.00  0.00    +0.049 A 
ENDROOT
BRANCH   1  13
ATOM     13  O   LIG A   1      -8.665   5.374 128.035  0.00  0.00    -0.495 OA
ATOM     14  C   LIG A   1      -7.849   4.209 128.042  0.00  0.00    +0.277 C 
ENDBRANCH   1  13
BRANCH  10  15
ATOM     15  O   LIG A   1     -12.168   6.302 132.221  0.00  0.00    -0.506 OA
ATOM     16  H   LIG A   1     -12.295   5.447 132.690  0.00  0.00    +0.292 HD
ENDBRANCH  10  15
TORSDOF 2
ENDMDL
MODEL 3
REMARK VINA RESULT:      -5.5      1.924      4.135
REMARK  Name = NuBBE_2214
REMARK  4 active torsions:
REMARK  status: ('A' for Active; 'I' for Inactive)
REMARK    1  A    between atoms: O_1  and  C_2
REMARK    2  A    between atoms: O_1  and  C_3
REMARK    3  A    between atoms: C_9  and  C_12
REMARK    4  A    between atoms: C_13  and  O_16
REMARK                            x       y       z     vdW  Elec       q    Type
REMARK                         _______ _______ _______ _____ _____    ______ ____
ROOT
ATOM      1  C   LIG A   1      -6.246  -3.279 123.786  0.00  0.00    +0.124 A 
ATOM      2  C   LIG A   1      -7.444  -2.955 124.449  0.00  0.00    +0.015 A 
ATOM      3  C   LIG A   1      -8.013  -1.681 124.284  0.00  0.00    +0.107 A 
ATOM      4  C   LIG A   1      -9.298  -1.343 124.946  0.00  0.00    +0.343 C 
ATOM      5  O   LIG A   1      -9.892  -0.311 124.648  0.00  0.00    -0.245 OA
ATOM      6  O   LIG A   1      -9.783  -2.211 125.867  0.00  0.00    -0.458 OA
ATOM      7  C   LIG A   1      -8.952  -3.262 126.400  0.00  0.00    +0.178 C 
ATOM      8  C   LIG A   1      -8.177  -3.964 125.291  0.00  0.00    +0.084 C 
ATOM      9  C   LIG A   1      -8.071  -2.706 127.517  0.00  0.00    +0.052 C 
ATOM     10  C   LIG A   1      -7.376  -0.734 123.473  0.00  0.00    +0.131 A 
ATOM     11  C   LIG A   1      -6.180  -1.046 122.838  0.00  0.00    +0.050 A 
ATOM     12  C   LIG A   1      -5.617  -2.315 122.992  0.00  0.00    +0.049 A 
ENDROOT
BRANCH   1  13
ATOM     13  O   LIG A   1      -5.782  -4.552 123.981  0.00  0.00    -0.495 OA
ATOM     14  C   LIG A   1      -4.439  -4.827 123.601  0.00  0.00    +0.277 C 
ENDBRANCH   1  13
BRANCH  10  15
ATOM     15  O   LIG A   1      -7.868   0.524 123.247  0.00  0.00    -0.506 OA
ATOM     16  H   LIG A   1      -8.728   0.613 123.717  0.00  0.00    +0.292 HD
ENDBRANCH  10  15
TORSDOF 2
ENDMDL
MODEL 4
REMARK VINA RESULT:      -5.4      1.989      3.949
REMARK  Name = NuBBE_2214
REMARK  4 active torsions:
REMARK  status: ('A' for Active; 'I' for Inactive)
REMARK    1  A    between atoms: O_1  and  C_2
REMARK    2  A    between atoms: O_1  and  C_3
REMARK    3  A    between atoms: C_9  and  C_12
REMARK    4  A    between atoms: C_13  and  O_16
REMARK                            x       y       z     vdW  Elec       q    Type
REMARK                         _______ _______ _______ _____ _____    ______ ____
ROOT
ATOM      1  C   LIG A   1      -5.740  -1.967 124.665  0.00  0.00    +0.124 A 
ATOM      2  C   LIG A   1      -7.025  -1.568 124.254  0.00  0.00    +0.015 A 
ATOM      3  C   LIG A   1      -7.862  -0.876 125.146  0.00  0.00    +0.107 A 
ATOM      4  C   LIG A   1      -9.203  -0.414 124.711  0.00  0.00    +0.343 C 
ATOM      5  O   LIG A   1      -9.849   0.355 125.416  0.00  0.00    -0.245 OA
ATOM      6  O   LIG A   1      -9.670  -0.861 123.519  0.00  0.00    -0.458 OA
ATOM      7  C   LIG A   1      -9.032  -1.962 122.842  0.00  0.00    +0.178 C 
ATOM      8  C   LIG A   1      -7.515  -1.807 122.852  0.00  0.00    +0.084 C 
ATOM      9  C   LIG A   1      -9.525  -3.283 123.430  0.00  0.00    +0.052 C 
ATOM     10  C   LIG A   1      -7.418  -0.601 126.446  0.00  0.00    +0.131 A 
ATOM     11  C   LIG A   1      -6.158  -1.017 126.859  0.00  0.00    +0.050 A 
ATOM     12  C   LIG A   1      -5.320  -1.697 125.971  0.00  0.00    +0.049 A 
ENDROOT
BRANCH   1  13
ATOM     13  O   LIG A   1      -4.985  -2.608 123.720  0.00  0.00    -0.495 OA
ATOM     14  C   LIG A   1      -4.689  -3.982 123.938  0.00  0.00    +0.277 C 
ENDBRANCH   1  13
BRANCH  10  15
ATOM     15  O   LIG A   1      -8.162   0.079 127.373  0.00  0.00    -0.506 OA
ATOM     16  H   LIG A   1      -7.631   0.837 127.705  0.00  0.00    +0.292 HD
ENDBRANCH  10  15
TORSDOF 2
ENDMDL
MODEL 5
REMARK VINA RESULT:      -5.4      2.438      2.777
REMARK  Name = NuBBE_2214
REMARK  4 active torsions:
REMARK  status: ('A' for Active; 'I' for Inactive)
REMARK    1  A    between atoms: O_1  and  C_2
REMARK    2  A    between atoms: O_1  and  C_3
REMARK    3  A    between atoms: C_9  and  C_12
REMARK    4  A    between atoms: C_13  and  O_16
REMARK                            x       y       z     vdW  Elec       q    Type
REMARK                         _______ _______ _______ _____ _____    ______ ____
ROOT
ATOM      1  C   LIG A   1      -7.666  -2.448 128.648  0.00  0.00    +0.124 A 
ATOM      2  C   LIG A   1      -7.714  -1.436 127.673  0.00  0.00    +0.015 A 
ATOM      3  C   LIG A   1      -8.480  -1.622 126.509  0.00  0.00    +0.107 A 
ATOM      4  C   LIG A   1      -8.571  -0.544 125.492  0.00  0.00    +0.343 C 
ATOM      5  O   LIG A   1      -9.389  -0.626 124.580  0.00  0.00    -0.245 OA
ATOM      6  O   LIG A   1      -7.737   0.517 125.618  0.00  0.00    -0.458 OA
ATOM      7  C   LIG A   1      -6.612   0.469 126.517  0.00  0.00    +0.178 C 
ATOM      8  C   LIG A   1      -7.013  -0.119 127.866  0.00  0.00    +0.084 C 
ATOM      9  C   LIG A   1      -5.446  -0.255 125.847  0.00  0.00    +0.052 C 
ATOM     10  C   LIG A   1      -9.177  -2.821 126.320  0.00  0.00    +0.131 A 
ATOM     11  C   LIG A   1      -9.109  -3.830 127.272  0.00  0.00    +0.050 A 
ATOM     12  C   LIG A   1      -8.357  -3.644 128.434  0.00  0.00    +0.049 A 
ENDROOT
BRANCH   1  13
ATOM     13  O   LIG A   1      -6.920  -2.166 129.762  0.00  0.00    -0.495 OA
ATOM     14  C   LIG A   1      -6.407  -3.267 130.504  0.00  0.00    +0.277 C 
ENDBRANCH   1  13
BRANCH  10  15
ATOM     15  O   LIG A   1      -9.957  -3.079 125.223  0.00  0.00    -0.506 OA
ATOM     16  H   LIG A   1      -9.457  -2.822 124.416  0.00  0.00    +0.292 HD
ENDBRANCH  10  15
TORSDOF 2
ENDMDL
MODEL 6
REMARK VINA RESULT:      -5.3      3.539      4.656
REMARK  Name = NuBBE_2214
REMARK  4 active torsions:
REMARK  status: ('A' for Active; 'I' for Inactive)
REMARK    1  A    between atoms: O_1  and  C_2
REMARK    2  A    between atoms: O_1  and  C_3
REMARK    3  A    between atoms: C_9  and  C_12
REMARK    4  A    between atoms: C_13  and  O_16
REMARK                            x       y       z     vdW  Elec       q    Type
REMARK                         _______ _______ _______ _____ _____    ______ ____
ROOT
ATOM      1  C   LIG A   1      -7.264   1.989 124.043  0.00  0.00    +0.124 A 
ATOM      2  C   LIG A   1      -7.463   0.608 124.224  0.00  0.00    +0.015 A 
ATOM      3  C   LIG A   1      -8.612  -0.008 123.699  0.00  0.00    +0.107 A 
ATOM      4  C   LIG A   1      -8.812  -1.471 123.848  0.00  0.00    +0.343 C 
ATOM      5  O   LIG A   1      -9.705  -2.038 123.226  0.00  0.00    -0.245 OA
ATOM      6  O   LIG A   1      -7.974  -2.144 124.675  0.00  0.00    -0.458 OA
ATOM      7  C   LIG A   1      -7.121  -1.436 125.596  0.00  0.00    +0.178 C 
ATOM      8  C   LIG A   1      -6.441  -0.253 124.915  0.00  0.00    +0.084 C 
ATOM      9  C   LIG A   1      -7.913  -1.060 126.847  0.00  0.00    +0.052 C 
ATOM     10  C   LIG A   1      -9.561   0.759 123.013  0.00  0.00    +0.131 A 
ATOM     11  C   LIG A   1      -9.376   2.127 122.857  0.00  0.00    +0.050 A 
ATOM     12  C   LIG A   1      -8.230   2.741 123.368  0.00  0.00    +0.049 A 
ENDROOT
BRANCH   1  13
ATOM     13  O   LIG A   1      -6.102   2.496 124.561  0.00  0.00    -0.495 OA
ATOM     14  C   LIG A   1      -5.775   3.844 124.243  0.00  0.00    +0.277 C 
ENDBRANCH   1  13
BRANCH  10  15
ATOM     15  O   LIG A   1     -10.700   0.238 122.460  0.00  0.00    -0.506 OA
ATOM     16  H   LIG A   1     -11.259  -0.130 123.181  0.00  0.00    +0.292 HD
ENDBRANCH  10  15
TORSDOF 2
ENDMDL
MODEL 7
REMARK VINA RESULT:      -5.2      3.780      5.339
REMARK  Name = NuBBE_2214
REMARK  4 active torsions:
REMARK  status: ('A' for Active; 'I' for Inactive)
REMARK    1  A    between atoms: O_1  and  C_2
REMARK    2  A    between atoms: O_1  and  C_3
REMARK    3  A    between atoms: C_9  and  C_12
REMARK    4  A    between atoms: C_13  and  O_16
REMARK                            x       y       z     vdW  Elec       q    Type
REMARK                         _______ _______ _______ _____ _____    ______ ____
ROOT
ATOM      1  C   LIG A   1      -9.308  -0.347 123.807  0.00  0.00    +0.124 A 
ATOM      2  C   LIG A   1      -8.937  -0.086 125.139  0.00  0.00    +0.015 A 
ATOM      3  C   LIG A   1      -8.844   1.241 125.592  0.00  0.00    +0.107 A 
ATOM      4  C   LIG A   1      -8.494   1.528 127.006  0.00  0.00    +0.343 C 
ATOM      5  O   LIG A   1      -8.604   2.666 127.449  0.00  0.00    -0.245 OA
ATOM      6  O   LIG A   1      -8.066   0.495 127.773  0.00  0.00    -0.458 OA
ATOM      7  C   LIG A   1      -7.682  -0.759 127.176  0.00  0.00    +0.178 C 
ATOM      8  C   LIG A   1      -8.695  -1.197 126.124  0.00  0.00    +0.084 C 
ATOM      9  C   LIG A   1      -6.248  -0.666 126.656  0.00  0.00    +0.052 C 
ATOM     10  C   LIG A   1      -9.105   2.297 124.710  0.00  0.00    +0.131 A 
ATOM     11  C   LIG A   1      -9.447   2.039 123.389  0.00  0.00    +0.050 A 
ATOM     12  C   LIG A   1      -9.550   0.721 122.938  0.00  0.00    +0.049 A 
ENDROOT
BRANCH   1  13
ATOM     13  O   LIG A   1      -9.403  -1.669 123.464  0.00  0.00    -0.495 OA
ATOM     14  C   LIG A   1      -8.361  -2.216 122.664  0.00  0.00    +0.277 C 
ENDBRANCH   1  13
BRANCH  10  15
ATOM     15  O   LIG A   1      -9.050   3.617 125.072  0.00  0.00    -0.506 OA
ATOM     16  H   LIG A   1      -9.052   3.673 126.054  0.00  0.00    +0.292 HD
ENDBRANCH  10  15
TORSDOF 2
ENDMDL
MODEL 8
REMARK VINA RESULT:      -5.2      6.252      7.848
REMARK  Name = NuBBE_2214
REMARK  4 active torsions:
REMARK  status: ('A' for Active; 'I' for Inactive)
REMARK    1  A    between atoms: O_1  and  C_2
REMARK    2  A    between atoms: O_1  and  C_3
REMARK    3  A    between atoms: C_9  and  C_12
REMARK    4  A    between atoms: C_13  and  O_16
REMARK                            x       y       z     vdW  Elec       q    Type
REMARK                         _______ _______ _______ _____ _____    ______ ____
ROOT
ATOM      1  C   LIG A   1      -6.486   4.225 121.171  0.00  0.00    +0.124 A 
ATOM      2  C   LIG A   1      -6.366   3.793 122.504  0.00  0.00    +0.015 A 
ATOM      3  C   LIG A   1      -7.413   3.071 123.102  0.00  0.00    +0.107 A 
ATOM      4  C   LIG A   1      -7.281   2.574 124.494  0.00  0.00    +0.343 C 
ATOM      5  O   LIG A   1      -8.102   1.781 124.946  0.00  0.00    -0.245 OA
ATOM      6  O   LIG A   1      -6.229   3.015 125.227  0.00  0.00    -0.458 OA
ATOM      7  C   LIG A   1      -5.443   4.140 124.785  0.00  0.00    +0.178 C 
ATOM      8  C   LIG A   1      -5.112   4.028 123.301  0.00  0.00    +0.084 C 
ATOM      9  C   LIG A   1      -6.143   5.442 125.169  0.00  0.00    +0.052 C 
ATOM     10  C   LIG A   1      -8.577   2.799 122.372  0.00  0.00    +0.131 A 
ATOM     11  C   LIG A   1      -8.704   3.249 121.063  0.00  0.00    +0.050 A 
ATOM     12  C   LIG A   1      -7.662   3.958 120.463  0.00  0.00    +0.049 A 
ENDROOT
BRANCH   1  13
ATOM     13  O   LIG A   1      -5.405   4.895 120.663  0.00  0.00    -0.495 OA
ATOM     14  C   LIG A   1      -5.529   5.447 119.357  0.00  0.00    +0.277 C 
ENDBRANCH   1  13
BRANCH  10  15
ATOM     15  O   LIG A   1      -9.637   2.092 122.872  0.00  0.00    -0.506 OA
ATOM     16  H   LIG A   1      -9.342   1.171 123.054  0.00  0.00    +0.292 HD
ENDBRANCH  10  15
TORSDOF 2
ENDMDL
MODEL 9
REMARK VINA RESULT:      -5.2      3.402      4.242
REMARK  Name = NuBBE_2214
REMARK  4 active torsions:
REMARK  status: ('A' for Active; 'I' for Inactive)
REMARK    1  A    between atoms: O_1  and  C_2
REMARK    2  A    between atoms: O_1  and  C_3
REMARK    3  A    between atoms: C_9  and  C_12
REMARK    4  A    between atoms: C_13  and  O_16
REMARK                            x       y       z     vdW  Elec       q    Type
REMARK                         _______ _______ _______ _____ _____    ______ ____
ROOT
ATOM      1  C   LIG A   1      -6.770  -1.065 124.490  0.00  0.00    +0.124 A 
ATOM      2  C   LIG A   1      -7.619   0.013 124.801  0.00  0.00    +0.015 A 
ATOM      3  C   LIG A   1      -8.833   0.168 124.110  0.00  0.00    +0.107 A 
ATOM      4  C   LIG A   1      -9.756   1.277 124.457  0.00  0.00    +0.343 C 
ATOM      5  O   LIG A   1     -10.893   1.299 123.997  0.00  0.00    -0.245 OA
ATOM      6  O   LIG A   1      -9.301   2.240 125.296  0.00  0.00    -0.458 OA
ATOM      7  C   LIG A   1      -7.897   2.348 125.603  0.00  0.00    +0.178 C 
ATOM      8  C   LIG A   1      -7.295   0.981 125.906  0.00  0.00    +0.084 C 
ATOM      9  C   LIG A   1      -7.182   3.108 124.487  0.00  0.00    +0.052 C 
ATOM     10  C   LIG A   1      -9.182  -0.741 123.104  0.00  0.00    +0.131 A 
ATOM     11  C   LIG A   1      -8.331  -1.791 122.781  0.00  0.00    +0.050 A 
ATOM     12  C   LIG A   1      -7.129  -1.954 123.473  0.00  0.00    +0.049 A 
ENDROOT
BRANCH   1  13
ATOM     13  O   LIG A   1      -5.624  -1.154 125.236  0.00  0.00    -0.495 OA
ATOM     14  C   LIG A   1      -5.580  -2.148 126.254  0.00  0.00    +0.277 C 
ENDBRANCH   1  13
BRANCH  10  15
ATOM     15  O   LIG A   1     -10.350  -0.671 122.392  0.00  0.00    -0.506 OA
ATOM     16  H   LIG A   1     -11.014  -0.180 122.926  0.00  0.00    +0.292 HD
ENDBRANCH  10  15
TORSDOF 2
ENDMDL
