MODEL 1
REMARK VINA RESULT:      -7.2      0.000      0.000
REMARK  Name = NuBBE_222
REMARK  20 active torsions:
REMARK  status: ('A' for Active; 'I' for Inactive)
REMARK    1  A    between atoms: C_1  and  C_2
REMARK    2  A    between atoms: C_4  and  O_6
REMARK    3  A    between atoms: O_6  and  C_7
REMARK    4  A    between atoms: C_7  and  C_8
REMARK    5  A    between atoms: C_8  and  C_9
REMARK    6  A    between atoms: C_9  and  C_10
REMARK    7  A    between atoms: C_12  and  O_14
REMARK    8  A    between atoms: C_17  and  O_19
REMARK    9  A    between atoms: O_19  and  C_20
REMARK   10  A    between atoms: C_20  and  C_21
REMARK   11  A    between atoms: C_24  and  O_26
REMARK   12  A    between atoms: O_26  and  C_27
REMARK   13  A    between atoms: C_27  and  C_28
REMARK   14  A    between atoms: C_31  and  O_33
REMARK   15  A    between atoms: O_33  and  C_34
REMARK   16  A    between atoms: C_38  and  C_39
REMARK   17  A    between atoms: C_38  and  C_40
REMARK   18  A    between atoms: C_40  and  C_41
REMARK   19  A    between atoms: C_42  and  C_43
REMARK   20  A    between atoms: C_42  and  C_45
REMARK                            x       y       z     vdW  Elec       q    Type
REMARK                         _______ _______ _______ _____ _____    ______ ____
ROOT
ATOM      1  C   LIG A   1      -7.555   0.916 130.621  0.00  0.00    +0.012 C 
ATOM      2  C   LIG A   1      -6.655   1.911 131.371  0.00  0.00    +0.036 C 
ATOM      3  C   LIG A   1      -7.512   2.767 132.322  0.00  0.00    +0.209 C 
ATOM      4  C   LIG A   1      -8.381   3.782 131.556  0.00  0.00    +0.172 C 
ATOM      5  C   LIG A   1      -7.670   4.563 130.385  0.00  0.00    +0.093 C 
ATOM      6  C   LIG A   1      -7.977   6.037 130.596  0.00  0.00    +0.011 C 
ATOM      7  C   LIG A   1      -9.400   6.290 130.168  0.00  0.00    +0.343 C 
ATOM      8  O   LIG A   1      -9.640   5.295 129.150  0.00  0.00    -0.297 OA
ATOM      9  C   LIG A   1      -8.460   4.456 129.026  0.00  0.00    +0.327 C 
ATOM     10  C   LIG A   1      -7.078   6.973 130.921  0.00  0.00    +0.010 C 
ATOM     11  C   LIG A   1      -5.637   6.776 131.114  0.00  0.00    +0.141 C 
ATOM     12  C   LIG A   1      -5.185   5.331 130.929  0.00  0.00    +0.041 C 
ATOM     13  C   LIG A   1      -6.125   4.282 130.241  0.00  0.00    +0.017 C 
ATOM     14  C   LIG A   1      -5.644   2.763 130.493  0.00  0.00    -0.019 C 
ATOM     15  C   LIG A   1      -4.287   2.720 131.280  0.00  0.00    +0.012 C 
ENDROOT
BRANCH   4  16
ATOM     16  O   LIG A   1      -9.545   3.096 131.054  0.00  0.00    -0.387 OA
ATOM     17  H   LIG A   1      -9.979   3.653 130.381  0.00  0.00    +0.210 HD
ENDBRANCH   4  16
BRANCH  11  18
ATOM     18  O   LIG A   1      -5.037   7.710 130.212  0.00  0.00    -0.376 OA
ATOM     19  C   LIG A   1      -3.651   7.921 130.410  0.00  0.00    +0.194 C 
ENDBRANCH  11  18
BRANCH   3  20
ATOM     20  O   LIG A   1      -6.690   3.391 133.337  0.00  0.00    -0.458 OA
BRANCH  20  21
ATOM     21  C   LIG A   1      -7.383   4.245 134.155  0.00  0.00    +0.307 C 
ATOM     22  O   LIG A   1      -8.497   4.017 134.623  0.00  0.00    -0.251 OA
BRANCH  21  23
ATOM     23  C   LIG A   1      -6.642   5.516 134.446  0.00  0.00    +0.120 C 
BRANCH  23  24
ATOM     24  C   LIG A   1      -5.156   5.208 134.614  0.00  0.00    +0.008 C 
ATOM     25  C   LIG A   1      -4.320   6.472 134.538  0.00  0.00    +0.004 C 
ENDBRANCH  23  24
ENDBRANCH  21  23
ENDBRANCH  20  21
ENDBRANCH   3  20
BRANCH   7  26
ATOM     26  O   LIG A   1      -9.578   7.598 129.613  0.00  0.00    -0.431 OA
BRANCH  26  27
ATOM     27  C   LIG A   1     -10.829   7.918 129.171  0.00  0.00    +0.306 C 
ATOM     28  C   LIG A   1     -10.760   8.274 127.709  0.00  0.00    +0.136 C 
ATOM     29  O   LIG A   1     -11.826   8.058 129.858  0.00  0.00    -0.251 OA
ENDBRANCH  26  27
ENDBRANCH   7  26
BRANCH   9  30
ATOM     30  O   LIG A   1      -7.689   4.988 127.933  0.00  0.00    -0.434 OA
BRANCH  30  31
ATOM     31  C   LIG A   1      -8.123   4.660 126.681  0.00  0.00    +0.306 C 
ATOM     32  C   LIG A   1      -7.708   3.237 126.407  0.00  0.00    +0.136 C 
ATOM     33  O   LIG A   1      -8.723   5.372 125.916  0.00  0.00    -0.251 OA
ENDBRANCH  30  31
ENDBRANCH   9  30
BRANCH  14  34
ATOM     34  C   LIG A   1      -5.361   2.031 129.114  0.00  0.00    +0.034 C 
BRANCH  34  35
ATOM     35  C   LIG A   1      -3.993   2.259 128.507  0.00  0.00    -0.023 C 
ATOM     36  C   LIG A   1      -3.543   3.192 127.647  0.00  0.00    -0.055 C 
ATOM     37  C   LIG A   1      -2.082   3.161 127.251  0.00  0.00    +0.043 C 
BRANCH  36  38
ATOM     38  C   LIG A   1      -4.298   4.284 127.063  0.00  0.00    -0.005 C 
ATOM     39  C   LIG A   1      -4.199   5.581 127.376  0.00  0.00    +0.008 C 
ENDBRANCH  36  38
ENDBRANCH  34  35
ENDBRANCH  14  34
TORSDOF 13
ENDMDL
MODEL 2
REMARK VINA RESULT:      -6.8      2.050      6.145
REMARK  Name = NuBBE_222
REMARK  20 active torsions:
REMARK  status: ('A' for Active; 'I' for Inactive)
REMARK    1  A    between atoms: C_1  and  C_2
REMARK    2  A    between atoms: C_4  and  O_6
REMARK    3  A    between atoms: O_6  and  C_7
REMARK    4  A    between atoms: C_7  and  C_8
REMARK    5  A    between atoms: C_8  and  C_9
REMARK    6  A    between atoms: C_9  and  C_10
REMARK    7  A    between atoms: C_12  and  O_14
REMARK    8  A    between atoms: C_17  and  O_19
REMARK    9  A    between atoms: O_19  and  C_20
REMARK   10  A    between atoms: C_20  and  C_21
REMARK   11  A    between atoms: C_24  and  O_26
REMARK   12  A    between atoms: O_26  and  C_27
REMARK   13  A    between atoms: C_27  and  C_28
REMARK   14  A    between atoms: C_31  and  O_33
REMARK   15  A    between atoms: O_33  and  C_34
REMARK   16  A    between atoms: C_38  and  C_39
REMARK   17  A    between atoms: C_38  and  C_40
REMARK   18  A    between atoms: C_40  and  C_41
REMARK   19  A    between atoms: C_42  and  C_43
REMARK   20  A    between atoms: C_42  and  C_45
REMARK                            x       y       z     vdW  Elec       q    Type
REMARK                         _______ _______ _______ _____ _____    ______ ____
ROOT
ATOM      1  C   LIG A   1     -10.427   3.087 130.626  0.00  0.00    +0.012 C 
ATOM      2  C   LIG A   1      -9.935   4.532 130.804  0.00  0.00    +0.036 C 
ATOM      3  C   LIG A   1      -9.432   5.076 129.454  0.00  0.00    +0.209 C 
ATOM      4  C   LIG A   1      -8.096   4.433 129.036  0.00  0.00    +0.172 C 
ATOM      5  C   LIG A   1      -7.007   4.296 130.168  0.00  0.00    +0.093 C 
ATOM      6  C   LIG A   1      -5.714   4.859 129.600  0.00  0.00    +0.011 C 
ATOM      7  C   LIG A   1      -5.137   3.846 128.644  0.00  0.00    +0.343 C 
ATOM      8  O   LIG A   1      -5.604   2.579 129.155  0.00  0.00    -0.297 OA
ATOM      9  C   LIG A   1      -6.463   2.823 130.302  0.00  0.00    +0.327 C 
ATOM     10  C   LIG A   1      -5.106   5.973 130.024  0.00  0.00    +0.010 C 
ATOM     11  C   LIG A   1      -5.540   6.848 131.118  0.00  0.00    +0.141 C 
ATOM     12  C   LIG A   1      -6.835   6.397 131.787  0.00  0.00    +0.041 C 
ATOM     13  C   LIG A   1      -7.396   4.952 131.549  0.00  0.00    +0.017 C 
ATOM     14  C   LIG A   1      -8.936   4.804 132.006  0.00  0.00    -0.019 C 
ATOM     15  C   LIG A   1      -9.458   6.123 132.677  0.00  0.00    +0.012 C 
ENDROOT
BRANCH   4  16
ATOM     16  O   LIG A   1      -8.374   3.141 128.463  0.00  0.00    -0.387 OA
ATOM     17  H   LIG A   1      -8.304   2.460 129.157  0.00  0.00    +0.210 HD
ENDBRANCH   4  16
BRANCH  11  18
ATOM     18  O   LIG A   1      -4.406   6.902 131.987  0.00  0.00    -0.376 OA
ATOM     19  C   LIG A   1      -3.319   7.665 131.497  0.00  0.00    +0.194 C 
ENDBRANCH  11  18
BRANCH   3  20
ATOM     20  O   LIG A   1      -9.373   6.523 129.469  0.00  0.00    -0.458 OA
BRANCH  20  21
ATOM     21  C   LIG A   1     -10.240   7.117 128.591  0.00  0.00    +0.307 C 
ATOM     22  O   LIG A   1     -10.233   6.944 127.374  0.00  0.00    -0.251 OA
BRANCH  21  23
ATOM     23  C   LIG A   1     -11.235   8.017 129.261  0.00  0.00    +0.120 C 
BRANCH  23  24
ATOM     24  C   LIG A   1     -12.453   7.199 129.684  0.00  0.00    +0.008 C 
ATOM     25  C   LIG A   1     -12.702   7.313 131.177  0.00  0.00    +0.004 C 
ENDBRANCH  23  24
ENDBRANCH  21  23
ENDBRANCH  20  21
ENDBRANCH   3  20
BRANCH   7  26
ATOM     26  O   LIG A   1      -3.705   3.862 128.633  0.00  0.00    -0.431 OA
BRANCH  26  27
ATOM     27  C   LIG A   1      -3.095   3.812 127.413  0.00  0.00    +0.306 C 
ATOM     28  C   LIG A   1      -4.115   4.078 126.338  0.00  0.00    +0.136 C 
ATOM     29  O   LIG A   1      -1.950   3.457 127.191  0.00  0.00    -0.251 OA
ENDBRANCH  26  27
ENDBRANCH   7  26
BRANCH   9  30
ATOM     30  O   LIG A   1      -5.639   2.678 131.473  0.00  0.00    -0.434 OA
BRANCH  30  31
ATOM     31  C   LIG A   1      -5.252   1.404 131.776  0.00  0.00    +0.306 C 
ATOM     32  C   LIG A   1      -3.820   1.455 132.244  0.00  0.00    +0.136 C 
ATOM     33  O   LIG A   1      -5.921   0.405 131.683  0.00  0.00    -0.251 OA
ENDBRANCH  30  31
ENDBRANCH   9  30
BRANCH  14  34
ATOM     34  C   LIG A   1      -9.084   3.675 133.111  0.00  0.00    +0.034 C 
BRANCH  34  35
ATOM     35  C   LIG A   1      -7.799   3.201 133.754  0.00  0.00    -0.023 C 
ATOM     36  C   LIG A   1      -7.010   3.761 134.691  0.00  0.00    -0.055 C 
ATOM     37  C   LIG A   1      -5.785   2.999 135.151  0.00  0.00    +0.043 C 
BRANCH  36  38
ATOM     38  C   LIG A   1      -7.216   5.027 135.367  0.00  0.00    -0.005 C 
ATOM     39  C   LIG A   1      -6.311   5.999 135.538  0.00  0.00    +0.008 C 
ENDBRANCH  36  38
ENDBRANCH  34  35
ENDBRANCH  14  34
TORSDOF 13
ENDMDL
MODEL 3
REMARK VINA RESULT:      -6.7      2.184      6.118
REMARK  Name = NuBBE_222
REMARK  20 active torsions:
REMARK  status: ('A' for Active; 'I' for Inactive)
REMARK    1  A    between atoms: C_1  and  C_2
REMARK    2  A    between atoms: C_4  and  O_6
REMARK    3  A    between atoms: O_6  and  C_7
REMARK    4  A    between atoms: C_7  and  C_8
REMARK    5  A    between atoms: C_8  and  C_9
REMARK    6  A    between atoms: C_9  and  C_10
REMARK    7  A    between atoms: C_12  and  O_14
REMARK    8  A    between atoms: C_17  and  O_19
REMARK    9  A    between atoms: O_19  and  C_20
REMARK   10  A    between atoms: C_20  and  C_21
REMARK   11  A    between atoms: C_24  and  O_26
REMARK   12  A    between atoms: O_26  and  C_27
REMARK   13  A    between atoms: C_27  and  C_28
REMARK   14  A    between atoms: C_31  and  O_33
REMARK   15  A    between atoms: O_33  and  C_34
REMARK   16  A    between atoms: C_38  and  C_39
REMARK   17  A    between atoms: C_38  and  C_40
REMARK   18  A    between atoms: C_40  and  C_41
REMARK   19  A    between atoms: C_42  and  C_43
REMARK   20  A    between atoms: C_42  and  C_45
REMARK                            x       y       z     vdW  Elec       q    Type
REMARK                         _______ _______ _______ _____ _____    ______ ____
ROOT
ATOM      1  C   LIG A   1      -8.344   5.850 134.352  0.00  0.00    +0.012 C 
ATOM      2  C   LIG A   1      -8.501   6.050 132.836  0.00  0.00    +0.036 C 
ATOM      3  C   LIG A   1      -9.754   5.301 132.344  0.00  0.00    +0.209 C 
ATOM      4  C   LIG A   1      -9.550   3.774 132.350  0.00  0.00    +0.172 C 
ATOM      5  C   LIG A   1      -8.174   3.254 131.783  0.00  0.00    +0.093 C 
ATOM      6  C   LIG A   1      -8.502   2.157 130.783  0.00  0.00    +0.011 C 
ATOM      7  C   LIG A   1      -8.883   0.917 131.550  0.00  0.00    +0.343 C 
ATOM      8  O   LIG A   1      -8.150   1.033 132.788  0.00  0.00    -0.297 OA
ATOM      9  C   LIG A   1      -7.432   2.297 132.791  0.00  0.00    +0.327 C 
ATOM     10  C   LIG A   1      -8.299   2.232 129.462  0.00  0.00    +0.010 C 
ATOM     11  C   LIG A   1      -7.708   3.356 128.727  0.00  0.00    +0.141 C 
ATOM     12  C   LIG A   1      -7.325   4.536 129.615  0.00  0.00    +0.041 C 
ATOM     13  C   LIG A   1      -7.242   4.370 131.172  0.00  0.00    +0.017 C 
ATOM     14  C   LIG A   1      -7.217   5.787 131.943  0.00  0.00    -0.019 C 
ATOM     15  C   LIG A   1      -7.175   6.985 130.930  0.00  0.00    +0.012 C 
ENDROOT
BRANCH   4  16
ATOM     16  O   LIG A   1      -9.739   3.296 133.697  0.00  0.00    -0.387 OA
ATOM     17  H   LIG A   1     -10.207   3.976 134.215  0.00  0.00    +0.210 HD
ENDBRANCH   4  16
BRANCH  11  18
ATOM     18  O   LIG A   1      -6.618   2.767 128.014  0.00  0.00    -0.376 OA
ATOM     19  C   LIG A   1      -6.094   3.563 126.966  0.00  0.00    +0.194 C 
ENDBRANCH  11  18
BRANCH   3  20
ATOM     20  O   LIG A   1     -10.181   5.801 131.055  0.00  0.00    -0.458 OA
BRANCH  20  21
ATOM     21  C   LIG A   1     -11.321   6.558 131.110  0.00  0.00    +0.307 C 
ATOM     22  O   LIG A   1     -12.246   6.375 131.899  0.00  0.00    -0.251 OA
BRANCH  21  23
ATOM     23  C   LIG A   1     -11.344   7.667 130.101  0.00  0.00    +0.120 C 
BRANCH  23  24
ATOM     24  C   LIG A   1     -10.361   7.348 128.977  0.00  0.00    +0.008 C 
ATOM     25  C   LIG A   1     -10.641   8.190 127.746  0.00  0.00    +0.004 C 
ENDBRANCH  23  24
ENDBRANCH  21  23
ENDBRANCH  20  21
ENDBRANCH   3  20
BRANCH   7  26
ATOM     26  O   LIG A   1      -8.493  -0.283 130.872  0.00  0.00    -0.431 OA
BRANCH  26  27
ATOM     27  C   LIG A   1      -7.611  -1.101 131.517  0.00  0.00    +0.306 C 
ATOM     28  C   LIG A   1      -6.286  -1.063 130.803  0.00  0.00    +0.136 C 
ATOM     29  O   LIG A   1      -7.871  -1.870 132.427  0.00  0.00    -0.251 OA
ENDBRANCH  26  27
ENDBRANCH   7  26
BRANCH   9  30
ATOM     30  O   LIG A   1      -6.093   2.012 132.348  0.00  0.00    -0.434 OA
BRANCH  30  31
ATOM     31  C   LIG A   1      -5.139   1.963 133.324  0.00  0.00    +0.306 C 
ATOM     32  C   LIG A   1      -5.675   2.692 134.530  0.00  0.00    +0.136 C 
ATOM     33  O   LIG A   1      -4.054   1.443 133.248  0.00  0.00    -0.251 OA
ENDBRANCH  30  31
ENDBRANCH   9  30
BRANCH  14  34
ATOM     34  C   LIG A   1      -5.901   5.922 132.819  0.00  0.00    +0.034 C 
BRANCH  34  35
ATOM     35  C   LIG A   1      -4.693   6.508 132.120  0.00  0.00    -0.023 C 
ATOM     36  C   LIG A   1      -3.657   5.924 131.489  0.00  0.00    -0.055 C 
ATOM     37  C   LIG A   1      -2.606   6.811 130.855  0.00  0.00    +0.043 C 
BRANCH  36  38
ATOM     38  C   LIG A   1      -3.434   4.504 131.297  0.00  0.00    -0.005 C 
ATOM     39  C   LIG A   1      -3.740   3.786 130.209  0.00  0.00    +0.008 C 
ENDBRANCH  36  38
ENDBRANCH  34  35
ENDBRANCH  14  34
TORSDOF 13
ENDMDL
MODEL 4
REMARK VINA RESULT:      -6.4      4.028      7.982
REMARK  Name = NuBBE_222
REMARK  20 active torsions:
REMARK  status: ('A' for Active; 'I' for Inactive)
REMARK    1  A    between atoms: C_1  and  C_2
REMARK    2  A    between atoms: C_4  and  O_6
REMARK    3  A    between atoms: O_6  and  C_7
REMARK    4  A    between atoms: C_7  and  C_8
REMARK    5  A    between atoms: C_8  and  C_9
REMARK    6  A    between atoms: C_9  and  C_10
REMARK    7  A    between atoms: C_12  and  O_14
REMARK    8  A    between atoms: C_17  and  O_19
REMARK    9  A    between atoms: O_19  and  C_20
REMARK   10  A    between atoms: C_20  and  C_21
REMARK   11  A    between atoms: C_24  and  O_26
REMARK   12  A    between atoms: O_26  and  C_27
REMARK   13  A    between atoms: C_27  and  C_28
REMARK   14  A    between atoms: C_31  and  O_33
REMARK   15  A    between atoms: O_33  and  C_34
REMARK   16  A    between atoms: C_38  and  C_39
REMARK   17  A    between atoms: C_38  and  C_40
REMARK   18  A    between atoms: C_40  and  C_41
REMARK   19  A    between atoms: C_42  and  C_43
REMARK   20  A    between atoms: C_42  and  C_45
REMARK                            x       y       z     vdW  Elec       q    Type
REMARK                         _______ _______ _______ _____ _____    ______ ____
ROOT
ATOM      1  C   LIG A   1      -5.849  -0.438 124.965  0.00  0.00    +0.012 C 
ATOM      2  C   LIG A   1      -6.880   0.650 125.309  0.00  0.00    +0.036 C 
ATOM      3  C   LIG A   1      -6.151   1.970 125.625  0.00  0.00    +0.209 C 
ATOM      4  C   LIG A   1      -5.420   1.914 126.980  0.00  0.00    +0.172 C 
ATOM      5  C   LIG A   1      -6.222   1.271 128.176  0.00  0.00    +0.093 C 
ATOM      6  C   LIG A   1      -6.116   2.241 129.341  0.00  0.00    +0.011 C 
ATOM      7  C   LIG A   1      -4.737   2.117 129.937  0.00  0.00    +0.343 C 
ATOM      8  O   LIG A   1      -4.359   0.752 129.661  0.00  0.00    -0.297 OA
ATOM      9  C   LIG A   1      -5.416   0.119 128.888  0.00  0.00    +0.327 C 
ATOM     10  C   LIG A   1      -7.135   2.937 129.860  0.00  0.00    +0.010 C 
ATOM     11  C   LIG A   1      -8.538   2.889 129.434  0.00  0.00    +0.141 C 
ATOM     12  C   LIG A   1      -8.791   1.944 128.262  0.00  0.00    +0.041 C 
ATOM     13  C   LIG A   1      -7.714   0.884 127.844  0.00  0.00    +0.017 C 
ATOM     14  C   LIG A   1      -7.989   0.270 126.378  0.00  0.00    -0.019 C 
ATOM     15  C   LIG A   1      -9.333   0.814 125.777  0.00  0.00    +0.012 C 
ENDROOT
BRANCH   4  16
ATOM     16  O   LIG A   1      -4.172   1.217 126.794  0.00  0.00    -0.387 OA
ATOM     17  H   LIG A   1      -4.313   0.263 126.939  0.00  0.00    +0.210 HD
ENDBRANCH   4  16
BRANCH  11  18
ATOM     18  O   LIG A   1      -9.251   2.562 130.629  0.00  0.00    -0.376 OA
ATOM     19  C   LIG A   1     -10.459   3.278 130.814  0.00  0.00    +0.194 C 
ENDBRANCH  11  18
BRANCH   3  20
ATOM     20  O   LIG A   1      -7.055   3.095 125.526  0.00  0.00    -0.458 OA
BRANCH  20  21
ATOM     21  C   LIG A   1      -7.314   3.480 124.237  0.00  0.00    +0.307 C 
ATOM     22  O   LIG A   1      -8.434   3.532 123.733  0.00  0.00    -0.251 OA
BRANCH  21  23
ATOM     23  C   LIG A   1      -6.078   3.851 123.472  0.00  0.00    +0.120 C 
BRANCH  23  24
ATOM     24  C   LIG A   1      -6.205   3.351 122.034  0.00  0.00    +0.008 C 
ATOM     25  C   LIG A   1      -5.188   4.020 121.127  0.00  0.00    +0.004 C 
ENDBRANCH  23  24
ENDBRANCH  21  23
ENDBRANCH  20  21
ENDBRANCH   3  20
BRANCH   7  26
ATOM     26  O   LIG A   1      -4.732   2.341 131.351  0.00  0.00    -0.431 OA
BRANCH  26  27
ATOM     27  C   LIG A   1      -3.666   3.018 131.868  0.00  0.00    +0.306 C 
ATOM     28  C   LIG A   1      -3.376   4.217 131.005  0.00  0.00    +0.136 C 
ATOM     29  O   LIG A   1      -2.948   2.649 132.782  0.00  0.00    -0.251 OA
ENDBRANCH  26  27
ENDBRANCH   7  26
BRANCH   9  30
ATOM     30  O   LIG A   1      -6.244  -0.591 129.826  0.00  0.00    -0.434 OA
BRANCH  30  31
ATOM     31  C   LIG A   1      -6.156  -1.953 129.788  0.00  0.00    +0.306 C 
ATOM     32  C   LIG A   1      -5.388  -2.331 128.547  0.00  0.00    +0.136 C 
ATOM     33  O   LIG A   1      -6.613  -2.729 130.590  0.00  0.00    -0.251 OA
ENDBRANCH  30  31
ENDBRANCH   9  30
BRANCH  14  34
ATOM     34  C   LIG A   1      -8.162  -1.305 126.456  0.00  0.00    +0.034 C 
BRANCH  34  35
ATOM     35  C   LIG A   1      -8.928  -1.947 125.319  0.00  0.00    -0.023 C 
ATOM     36  C   LIG A   1      -8.652  -3.019 124.552  0.00  0.00    -0.055 C 
ATOM     37  C   LIG A   1      -9.659  -3.429 123.498  0.00  0.00    +0.043 C 
BRANCH  36  38
ATOM     38  C   LIG A   1      -7.491  -3.884 124.638  0.00  0.00    -0.005 C 
ATOM     39  C   LIG A   1      -6.304  -3.691 124.050  0.00  0.00    +0.008 C 
ENDBRANCH  36  38
ENDBRANCH  34  35
ENDBRANCH  14  34
TORSDOF 13
ENDMDL
MODEL 5
REMARK VINA RESULT:      -6.3      2.673      5.908
REMARK  Name = NuBBE_222
REMARK  20 active torsions:
REMARK  status: ('A' for Active; 'I' for Inactive)
REMARK    1  A    between atoms: C_1  and  C_2
REMARK    2  A    between atoms: C_4  and  O_6
REMARK    3  A    between atoms: O_6  and  C_7
REMARK    4  A    between atoms: C_7  and  C_8
REMARK    5  A    between atoms: C_8  and  C_9
REMARK    6  A    between atoms: C_9  and  C_10
REMARK    7  A    between atoms: C_12  and  O_14
REMARK    8  A    between atoms: C_17  and  O_19
REMARK    9  A    between atoms: O_19  and  C_20
REMARK   10  A    between atoms: C_20  and  C_21
REMARK   11  A    between atoms: C_24  and  O_26
REMARK   12  A    between atoms: O_26  and  C_27
REMARK   13  A    between atoms: C_27  and  C_28
REMARK   14  A    between atoms: C_31  and  O_33
REMARK   15  A    between atoms: O_33  and  C_34
REMARK   16  A    between atoms: C_38  and  C_39
REMARK   17  A    between atoms: C_38  and  C_40
REMARK   18  A    between atoms: C_40  and  C_41
REMARK   19  A    between atoms: C_42  and  C_43
REMARK   20  A    between atoms: C_42  and  C_45
REMARK                            x       y       z     vdW  Elec       q    Type
REMARK                         _______ _______ _______ _____ _____    ______ ____
ROOT
ATOM      1  C   LIG A   1      -5.375   2.103 126.419  0.00  0.00    +0.012 C 
ATOM      2  C   LIG A   1      -6.126   1.082 127.289  0.00  0.00    +0.036 C 
ATOM      3  C   LIG A   1      -7.640   1.192 127.024  0.00  0.00    +0.209 C 
ATOM      4  C   LIG A   1      -8.236   2.481 127.622  0.00  0.00    +0.172 C 
ATOM      5  C   LIG A   1      -7.767   2.851 129.082  0.00  0.00    +0.093 C 
ATOM      6  C   LIG A   1      -9.026   3.140 129.883  0.00  0.00    +0.011 C 
ATOM      7  C   LIG A   1      -9.537   4.501 129.486  0.00  0.00    +0.343 C 
ATOM      8  O   LIG A   1      -8.349   5.219 129.090  0.00  0.00    -0.297 OA
ATOM      9  C   LIG A   1      -7.208   4.321 129.177  0.00  0.00    +0.327 C 
ATOM     10  C   LIG A   1      -9.482   2.395 130.897  0.00  0.00    +0.010 C 
ATOM     11  C   LIG A   1      -8.860   1.186 131.447  0.00  0.00    +0.141 C 
ATOM     12  C   LIG A   1      -7.576   0.777 130.733  0.00  0.00    +0.041 C 
ATOM     13  C   LIG A   1      -6.841   1.779 129.775  0.00  0.00    +0.017 C 
ATOM     14  C   LIG A   1      -5.756   1.047 128.832  0.00  0.00    -0.019 C 
ATOM     15  C   LIG A   1      -5.632  -0.476 129.185  0.00  0.00    +0.012 C 
ENDROOT
BRANCH   4  16
ATOM     16  O   LIG A   1      -7.954   3.572 126.724  0.00  0.00    -0.387 OA
ATOM     17  H   LIG A   1      -7.620   3.214 125.880  0.00  0.00    +0.210 HD
ENDBRANCH   4  16
BRANCH  11  18
ATOM     18  O   LIG A   1      -8.704   1.479 132.837  0.00  0.00    -0.376 OA
ATOM     19  C   LIG A   1      -7.706   2.440 133.133  0.00  0.00    +0.194 C 
ENDBRANCH  11  18
BRANCH   3  20
ATOM     20  O   LIG A   1      -8.330   0.000 127.469  0.00  0.00    -0.458 OA
BRANCH  20  21
ATOM     21  C   LIG A   1      -8.648  -0.861 126.452  0.00  0.00    +0.307 C 
ATOM     22  O   LIG A   1      -9.507  -0.649 125.597  0.00  0.00    -0.251 OA
BRANCH  21  23
ATOM     23  C   LIG A   1      -7.831  -2.119 126.466  0.00  0.00    +0.120 C 
BRANCH  23  24
ATOM     24  C   LIG A   1      -8.729  -3.301 126.824  0.00  0.00    +0.008 C 
ATOM     25  C   LIG A   1      -8.661  -3.613 128.308  0.00  0.00    +0.004 C 
ENDBRANCH  23  24
ENDBRANCH  21  23
ENDBRANCH  20  21
ENDBRANCH   3  20
BRANCH   7  26
ATOM     26  O   LIG A   1     -10.170   5.184 130.575  0.00  0.00    -0.431 OA
BRANCH  26  27
ATOM     27  C   LIG A   1     -11.385   5.755 130.326  0.00  0.00    +0.306 C 
ATOM     28  C   LIG A   1     -11.835   6.512 131.547  0.00  0.00    +0.136 C 
ATOM     29  O   LIG A   1     -12.085   5.567 129.346  0.00  0.00    -0.251 OA
ENDBRANCH  26  27
ENDBRANCH   7  26
BRANCH   9  30
ATOM     30  O   LIG A   1      -6.592   4.561 130.455  0.00  0.00    -0.434 OA
BRANCH  30  31
ATOM     31  C   LIG A   1      -6.163   5.838 130.681  0.00  0.00    +0.306 C 
ATOM     32  C   LIG A   1      -6.772   6.306 131.978  0.00  0.00    +0.136 C 
ATOM     33  O   LIG A   1      -5.437   6.491 129.974  0.00  0.00    -0.251 OA
ENDBRANCH  30  31
ENDBRANCH   9  30
BRANCH  14  34
ATOM     34  C   LIG A   1      -4.312   1.660 129.065  0.00  0.00    +0.034 C 
BRANCH  34  35
ATOM     35  C   LIG A   1      -4.143   2.516 130.302  0.00  0.00    -0.023 C 
ATOM     36  C   LIG A   1      -3.941   2.187 131.592  0.00  0.00    -0.055 C 
ATOM     37  C   LIG A   1      -3.780   3.303 132.603  0.00  0.00    +0.043 C 
BRANCH  36  38
ATOM     38  C   LIG A   1      -3.812   0.854 132.149  0.00  0.00    -0.005 C 
ATOM     39  C   LIG A   1      -4.684   0.237 132.956  0.00  0.00    +0.008 C 
ENDBRANCH  36  38
ENDBRANCH  34  35
ENDBRANCH  14  34
TORSDOF 13
ENDMDL
MODEL 6
REMARK VINA RESULT:      -6.2      2.099      6.162
REMARK  Name = NuBBE_222
REMARK  20 active torsions:
REMARK  status: ('A' for Active; 'I' for Inactive)
REMARK    1  A    between atoms: C_1  and  C_2
REMARK    2  A    between atoms: C_4  and  O_6
REMARK    3  A    between atoms: O_6  and  C_7
REMARK    4  A    between atoms: C_7  and  C_8
REMARK    5  A    between atoms: C_8  and  C_9
REMARK    6  A    between atoms: C_9  and  C_10
REMARK    7  A    between atoms: C_12  and  O_14
REMARK    8  A    between atoms: C_17  and  O_19
REMARK    9  A    between atoms: O_19  and  C_20
REMARK   10  A    between atoms: C_20  and  C_21
REMARK   11  A    between atoms: C_24  and  O_26
REMARK   12  A    between atoms: O_26  and  C_27
REMARK   13  A    between atoms: C_27  and  C_28
REMARK   14  A    between atoms: C_31  and  O_33
REMARK   15  A    between atoms: O_33  and  C_34
REMARK   16  A    between atoms: C_38  and  C_39
REMARK   17  A    between atoms: C_38  and  C_40
REMARK   18  A    between atoms: C_40  and  C_41
REMARK   19  A    between atoms: C_42  and  C_43
REMARK   20  A    between atoms: C_42  and  C_45
REMARK                            x       y       z     vdW  Elec       q    Type
REMARK                         _______ _______ _______ _____ _____    ______ ____
ROOT
ATOM      1  C   LIG A   1      -9.342   5.690 132.988  0.00  0.00    +0.012 C 
ATOM      2  C   LIG A   1      -8.735   6.111 131.640  0.00  0.00    +0.036 C 
ATOM      3  C   LIG A   1      -9.561   5.505 130.490  0.00  0.00    +0.209 C 
ATOM      4  C   LIG A   1      -9.347   3.984 130.368  0.00  0.00    +0.172 C 
ATOM      5  C   LIG A   1      -7.858   3.480 130.481  0.00  0.00    +0.093 C 
ATOM      6  C   LIG A   1      -7.620   2.554 129.298  0.00  0.00    +0.011 C 
ATOM      7  C   LIG A   1      -8.299   1.239 129.584  0.00  0.00    +0.343 C 
ATOM      8  O   LIG A   1      -8.277   1.140 131.024  0.00  0.00    -0.297 OA
ATOM      9  C   LIG A   1      -7.687   2.353 131.568  0.00  0.00    +0.327 C 
ATOM     10  C   LIG A   1      -6.793   2.805 128.277  0.00  0.00    +0.010 C 
ATOM     11  C   LIG A   1      -5.946   3.990 128.104  0.00  0.00    +0.141 C 
ATOM     12  C   LIG A   1      -6.082   5.011 129.230  0.00  0.00    +0.041 C 
ATOM     13  C   LIG A   1      -6.775   4.622 130.582  0.00  0.00    +0.017 C 
ATOM     14  C   LIG A   1      -7.170   5.912 131.466  0.00  0.00    -0.019 C 
ATOM     15  C   LIG A   1      -6.664   7.237 130.796  0.00  0.00    +0.012 C 
ENDROOT
BRANCH   4  16
ATOM     16  O   LIG A   1     -10.164   3.330 131.359  0.00  0.00    -0.387 OA
ATOM     17  H   LIG A   1     -11.067   3.698 131.324  0.00  0.00    +0.210 HD
ENDBRANCH   4  16
BRANCH  11  18
ATOM     18  O   LIG A   1      -4.631   3.453 127.941  0.00  0.00    -0.376 OA
ATOM     19  C   LIG A   1      -4.195   3.346 126.598  0.00  0.00    +0.194 C 
ENDBRANCH  11  18
BRANCH   3  20
ATOM     20  O   LIG A   1      -9.308   6.204 129.248  0.00  0.00    -0.458 OA
BRANCH  20  21
ATOM     21  C   LIG A   1     -10.168   7.245 129.019  0.00  0.00    +0.307 C 
ATOM     22  O   LIG A   1      -9.824   8.379 128.689  0.00  0.00    -0.251 OA
BRANCH  21  23
ATOM     23  C   LIG A   1     -11.609   6.873 129.205  0.00  0.00    +0.120 C 
BRANCH  23  24
ATOM     24  C   LIG A   1     -12.310   7.956 130.022  0.00  0.00    +0.008 C 
ATOM     25  C   LIG A   1     -12.831   7.404 131.336  0.00  0.00    +0.004 C 
ENDBRANCH  23  24
ENDBRANCH  21  23
ENDBRANCH  20  21
ENDBRANCH   3  20
BRANCH   7  26
ATOM     26  O   LIG A   1      -7.594   0.129 129.016  0.00  0.00    -0.431 OA
BRANCH  26  27
ATOM     27  C   LIG A   1      -7.388  -0.952 129.822  0.00  0.00    +0.306 C 
ATOM     28  C   LIG A   1      -5.918  -1.066 130.133  0.00  0.00    +0.136 C 
ATOM     29  O   LIG A   1      -8.213  -1.797 130.126  0.00  0.00    -0.251 OA
ENDBRANCH  26  27
ENDBRANCH   7  26
BRANCH   9  30
ATOM     30  O   LIG A   1      -6.297   2.064 131.805  0.00  0.00    -0.434 OA
BRANCH  30  31
ATOM     31  C   LIG A   1      -6.002   1.493 133.010  0.00  0.00    +0.306 C 
ATOM     32  C   LIG A   1      -6.755   2.249 134.074  0.00  0.00    +0.136 C 
ATOM     33  O   LIG A   1      -5.266   0.559 133.205  0.00  0.00    -0.251 OA
ENDBRANCH  30  31
ENDBRANCH   9  30
BRANCH  14  34
ATOM     34  C   LIG A   1      -6.463   5.853 132.885  0.00  0.00    +0.034 C 
BRANCH  34  35
ATOM     35  C   LIG A   1      -5.096   5.203 132.921  0.00  0.00    -0.023 C 
ATOM     36  C   LIG A   1      -3.858   5.726 132.834  0.00  0.00    -0.055 C 
ATOM     37  C   LIG A   1      -2.672   4.790 132.937  0.00  0.00    +0.043 C 
BRANCH  36  38
ATOM     38  C   LIG A   1      -3.504   7.125 132.690  0.00  0.00    -0.005 C 
ATOM     39  C   LIG A   1      -2.578   7.636 131.869  0.00  0.00    +0.008 C 
ENDBRANCH  36  38
ENDBRANCH  34  35
ENDBRANCH  14  34
TORSDOF 13
ENDMDL
MODEL 7
REMARK VINA RESULT:      -6.2      2.214      4.409
REMARK  Name = NuBBE_222
REMARK  20 active torsions:
REMARK  status: ('A' for Active; 'I' for Inactive)
REMARK    1  A    between atoms: C_1  and  C_2
REMARK    2  A    between atoms: C_4  and  O_6
REMARK    3  A    between atoms: O_6  and  C_7
REMARK    4  A    between atoms: C_7  and  C_8
REMARK    5  A    between atoms: C_8  and  C_9
REMARK    6  A    between atoms: C_9  and  C_10
REMARK    7  A    between atoms: C_12  and  O_14
REMARK    8  A    between atoms: C_17  and  O_19
REMARK    9  A    between atoms: O_19  and  C_20
REMARK   10  A    between atoms: C_20  and  C_21
REMARK   11  A    between atoms: C_24  and  O_26
REMARK   12  A    between atoms: O_26  and  C_27
REMARK   13  A    between atoms: C_27  and  C_28
REMARK   14  A    between atoms: C_31  and  O_33
REMARK   15  A    between atoms: O_33  and  C_34
REMARK   16  A    between atoms: C_38  and  C_39
REMARK   17  A    between atoms: C_38  and  C_40
REMARK   18  A    between atoms: C_40  and  C_41
REMARK   19  A    between atoms: C_42  and  C_43
REMARK   20  A    between atoms: C_42  and  C_45
REMARK                            x       y       z     vdW  Elec       q    Type
REMARK                         _______ _______ _______ _____ _____    ______ ____
ROOT
ATOM      1  C   LIG A   1      -2.195   3.783 132.566  0.00  0.00    +0.012 C 
ATOM      2  C   LIG A   1      -2.838   5.178 132.502  0.00  0.00    +0.036 C 
ATOM      3  C   LIG A   1      -3.773   5.371 133.712  0.00  0.00    +0.209 C 
ATOM      4  C   LIG A   1      -5.055   4.525 133.588  0.00  0.00    +0.172 C 
ATOM      5  C   LIG A   1      -5.754   4.525 132.175  0.00  0.00    +0.093 C 
ATOM      6  C   LIG A   1      -7.225   4.825 132.417  0.00  0.00    +0.011 C 
ATOM      7  C   LIG A   1      -7.877   3.580 132.963  0.00  0.00    +0.343 C 
ATOM      8  O   LIG A   1      -7.096   2.502 132.404  0.00  0.00    -0.297 OA
ATOM      9  C   LIG A   1      -6.003   3.068 131.630  0.00  0.00    +0.327 C 
ATOM     10  C   LIG A   1      -7.859   5.937 132.030  0.00  0.00    +0.010 C 
ATOM     11  C   LIG A   1      -7.282   7.063 131.287  0.00  0.00    +0.141 C 
ATOM     12  C   LIG A   1      -5.799   6.894 130.972  0.00  0.00    +0.041 C 
ATOM     13  C   LIG A   1      -5.107   5.494 131.112  0.00  0.00    +0.017 C 
ATOM     14  C   LIG A   1      -3.497   5.599 131.122  0.00  0.00    -0.019 C 
ATOM     15  C   LIG A   1      -3.023   7.075 130.880  0.00  0.00    +0.012 C 
ENDROOT
BRANCH   4  16
ATOM     16  O   LIG A   1      -4.748   3.175 133.985  0.00  0.00    -0.387 OA
ATOM     17  H   LIG A   1      -3.831   2.965 133.727  0.00  0.00    +0.210 HD
ENDBRANCH   4  16
BRANCH  11  18
ATOM     18  O   LIG A   1      -8.126   7.189 130.140  0.00  0.00    -0.376 OA
ATOM     19  C   LIG A   1      -9.507   7.003 130.396  0.00  0.00    +0.194 C 
ENDBRANCH  11  18
BRANCH   3  20
ATOM     20  O   LIG A   1      -4.051   6.775 133.931  0.00  0.00    -0.458 OA
BRANCH  20  21
ATOM     21  C   LIG A   1      -3.244   7.353 134.875  0.00  0.00    +0.307 C 
ATOM     22  O   LIG A   1      -3.335   7.162 136.086  0.00  0.00    -0.251 OA
BRANCH  21  23
ATOM     23  C   LIG A   1      -2.203   8.260 134.287  0.00  0.00    +0.120 C 
BRANCH  23  24
ATOM     24  C   LIG A   1      -0.826   7.621 134.450  0.00  0.00    +0.008 C 
ATOM     25  C   LIG A   1      -0.080   7.577 133.129  0.00  0.00    +0.004 C 
ENDBRANCH  23  24
ENDBRANCH  21  23
ENDBRANCH  20  21
ENDBRANCH   3  20
BRANCH   7  26
ATOM     26  O   LIG A   1      -9.241   3.452 132.545  0.00  0.00    -0.431 OA
BRANCH  26  27
ATOM     27  C   LIG A   1      -9.535   2.426 131.695  0.00  0.00    +0.306 C 
ATOM     28  C   LIG A   1      -9.777   2.980 130.315  0.00  0.00    +0.136 C 
ATOM     29  O   LIG A   1      -9.733   1.264 132.004  0.00  0.00    -0.251 OA
ENDBRANCH  26  27
ENDBRANCH   7  26
BRANCH   9  30
ATOM     30  O   LIG A   1      -6.440   3.094 130.258  0.00  0.00    -0.434 OA
BRANCH  30  31
ATOM     31  C   LIG A   1      -6.110   2.002 129.507  0.00  0.00    +0.306 C 
ATOM     32  C   LIG A   1      -4.765   1.509 129.974  0.00  0.00    +0.136 C 
ATOM     33  O   LIG A   1      -6.763   1.514 128.619  0.00  0.00    -0.251 OA
ENDBRANCH  30  31
ENDBRANCH   9  30
BRANCH  14  34
ATOM     34  C   LIG A   1      -2.876   4.750 129.934  0.00  0.00    +0.034 C 
BRANCH  34  35
ATOM     35  C   LIG A   1      -3.641   4.772 128.628  0.00  0.00    -0.023 C 
ATOM     36  C   LIG A   1      -3.521   4.030 127.512  0.00  0.00    -0.055 C 
ATOM     37  C   LIG A   1      -4.481   4.287 126.369  0.00  0.00    +0.043 C 
BRANCH  36  38
ATOM     38  C   LIG A   1      -2.583   2.950 127.272  0.00  0.00    -0.005 C 
ATOM     39  C   LIG A   1      -1.494   2.995 126.495  0.00  0.00    +0.008 C 
ENDBRANCH  36  38
ENDBRANCH  34  35
ENDBRANCH  14  34
TORSDOF 13
ENDMDL
MODEL 8
REMARK VINA RESULT:      -6.2      2.168      5.874
REMARK  Name = NuBBE_222
REMARK  20 active torsions:
REMARK  status: ('A' for Active; 'I' for Inactive)
REMARK    1  A    between atoms: C_1  and  C_2
REMARK    2  A    between atoms: C_4  and  O_6
REMARK    3  A    between atoms: O_6  and  C_7
REMARK    4  A    between atoms: C_7  and  C_8
REMARK    5  A    between atoms: C_8  and  C_9
REMARK    6  A    between atoms: C_9  and  C_10
REMARK    7  A    between atoms: C_12  and  O_14
REMARK    8  A    between atoms: C_17  and  O_19
REMARK    9  A    between atoms: O_19  and  C_20
REMARK   10  A    between atoms: C_20  and  C_21
REMARK   11  A    between atoms: C_24  and  O_26
REMARK   12  A    between atoms: O_26  and  C_27
REMARK   13  A    between atoms: C_27  and  C_28
REMARK   14  A    between atoms: C_31  and  O_33
REMARK   15  A    between atoms: O_33  and  C_34
REMARK   16  A    between atoms: C_38  and  C_39
REMARK   17  A    between atoms: C_38  and  C_40
REMARK   18  A    between atoms: C_40  and  C_41
REMARK   19  A    between atoms: C_42  and  C_43
REMARK   20  A    between atoms: C_42  and  C_45
REMARK                            x       y       z     vdW  Elec       q    Type
REMARK                         _______ _______ _______ _____ _____    ______ ____
ROOT
ATOM      1  C   LIG A   1      -8.613   2.266 128.510  0.00  0.00    +0.012 C 
ATOM      2  C   LIG A   1      -9.205   2.673 129.870  0.00  0.00    +0.036 C 
ATOM      3  C   LIG A   1      -9.260   4.209 129.969  0.00  0.00    +0.209 C 
ATOM      4  C   LIG A   1      -7.858   4.825 130.140  0.00  0.00    +0.172 C 
ATOM      5  C   LIG A   1      -6.903   4.106 131.168  0.00  0.00    +0.093 C 
ATOM      6  C   LIG A   1      -6.347   5.190 132.077  0.00  0.00    +0.011 C 
ATOM      7  C   LIG A   1      -5.288   5.947 131.317  0.00  0.00    +0.343 C 
ATOM      8  O   LIG A   1      -4.763   4.975 130.388  0.00  0.00    -0.297 OA
ATOM      9  C   LIG A   1      -5.509   3.736 130.534  0.00  0.00    +0.327 C 
ATOM     10  C   LIG A   1      -6.618   5.317 133.381  0.00  0.00    +0.010 C 
ATOM     11  C   LIG A   1      -7.473   4.439 134.189  0.00  0.00    +0.141 C 
ATOM     12  C   LIG A   1      -8.101   3.296 133.397  0.00  0.00    +0.041 C 
ATOM     13  C   LIG A   1      -7.563   2.922 131.973  0.00  0.00    +0.017 C 
ATOM     14  C   LIG A   1      -8.587   1.979 131.156  0.00  0.00    -0.019 C 
ATOM     15  C   LIG A   1      -9.823   1.584 132.038  0.00  0.00    +0.012 C 
ENDROOT
BRANCH   4  16
ATOM     16  O   LIG A   1      -7.229   4.887 128.845  0.00  0.00    -0.387 OA
ATOM     17  H   LIG A   1      -7.891   4.689 128.157  0.00  0.00    +0.210 HD
ENDBRANCH   4  16
BRANCH  11  18
ATOM     18  O   LIG A   1      -6.625   4.027 135.264  0.00  0.00    -0.376 OA
ATOM     19  C   LIG A   1      -5.879   5.069 135.866  0.00  0.00    +0.194 C 
ENDBRANCH  11  18
BRANCH   3  20
ATOM     20  O   LIG A   1     -10.181   4.627 131.004  0.00  0.00    -0.458 OA
BRANCH  20  21
ATOM     21  C   LIG A   1     -10.231   5.985 131.179  0.00  0.00    +0.307 C 
ATOM     22  O   LIG A   1      -9.741   6.587 132.133  0.00  0.00    -0.251 OA
BRANCH  21  23
ATOM     23  C   LIG A   1     -10.949   6.698 130.072  0.00  0.00    +0.120 C 
BRANCH  23  24
ATOM     24  C   LIG A   1     -10.021   7.742 129.457  0.00  0.00    +0.008 C 
ATOM     25  C   LIG A   1     -10.648   8.385 128.234  0.00  0.00    +0.004 C 
ENDBRANCH  23  24
ENDBRANCH  21  23
ENDBRANCH  20  21
ENDBRANCH   3  20
BRANCH   7  26
ATOM     26  O   LIG A   1      -4.236   6.414 132.169  0.00  0.00    -0.431 OA
BRANCH  26  27
ATOM     27  C   LIG A   1      -3.539   7.510 131.749  0.00  0.00    +0.306 C 
ATOM     28  C   LIG A   1      -2.661   7.998 132.871  0.00  0.00    +0.136 C 
ATOM     29  O   LIG A   1      -3.699   8.111 130.701  0.00  0.00    -0.251 OA
ENDBRANCH  26  27
ENDBRANCH   7  26
BRANCH   9  30
ATOM     30  O   LIG A   1      -4.743   2.895 131.416  0.00  0.00    -0.434 OA
BRANCH  30  31
ATOM     31  C   LIG A   1      -4.305   1.716 130.886  0.00  0.00    +0.306 C 
ATOM     32  C   LIG A   1      -4.280   0.693 131.993  0.00  0.00    +0.136 C 
ATOM     33  O   LIG A   1      -3.983   1.514 129.742  0.00  0.00    -0.251 OA
ENDBRANCH  30  31
ENDBRANCH   9  30
BRANCH  14  34
ATOM     34  C   LIG A   1      -7.889   0.610 130.760  0.00  0.00    +0.034 C 
BRANCH  34  35
ATOM     35  C   LIG A   1      -7.871  -0.461 131.829  0.00  0.00    -0.023 C 
ATOM     36  C   LIG A   1      -7.571  -1.773 131.772  0.00  0.00    -0.055 C 
ATOM     37  C   LIG A   1      -7.621  -2.579 133.053  0.00  0.00    +0.043 C 
BRANCH  36  38
ATOM     38  C   LIG A   1      -7.153  -2.527 130.607  0.00  0.00    -0.005 C 
ATOM     39  C   LIG A   1      -6.528  -3.711 130.603  0.00  0.00    +0.008 C 
ENDBRANCH  36  38
ENDBRANCH  34  35
ENDBRANCH  14  34
TORSDOF 13
ENDMDL
MODEL 9
REMARK VINA RESULT:      -6.2      3.311      7.601
REMARK  Name = NuBBE_222
REMARK  20 active torsions:
REMARK  status: ('A' for Active; 'I' for Inactive)
REMARK    1  A    between atoms: C_1  and  C_2
REMARK    2  A    between atoms: C_4  and  O_6
REMARK    3  A    between atoms: O_6  and  C_7
REMARK    4  A    between atoms: C_7  and  C_8
REMARK    5  A    between atoms: C_8  and  C_9
REMARK    6  A    between atoms: C_9  and  C_10
REMARK    7  A    between atoms: C_12  and  O_14
REMARK    8  A    between atoms: C_17  and  O_19
REMARK    9  A    between atoms: O_19  and  C_20
REMARK   10  A    between atoms: C_20  and  C_21
REMARK   11  A    between atoms: C_24  and  O_26
REMARK   12  A    between atoms: O_26  and  C_27
REMARK   13  A    between atoms: C_27  and  C_28
REMARK   14  A    between atoms: C_31  and  O_33
REMARK   15  A    between atoms: O_33  and  C_34
REMARK   16  A    between atoms: C_38  and  C_39
REMARK   17  A    between atoms: C_38  and  C_40
REMARK   18  A    between atoms: C_40  and  C_41
REMARK   19  A    between atoms: C_42  and  C_43
REMARK   20  A    between atoms: C_42  and  C_45
REMARK                            x       y       z     vdW  Elec       q    Type
REMARK                         _______ _______ _______ _____ _____    ______ ____
ROOT
ATOM      1  C   LIG A   1      -5.160  -0.586 125.893  0.00  0.00    +0.012 C 
ATOM      2  C   LIG A   1      -6.400   0.324 125.886  0.00  0.00    +0.036 C 
ATOM      3  C   LIG A   1      -6.015   1.714 125.345  0.00  0.00    +0.209 C 
ATOM      4  C   LIG A   1      -5.159   2.506 126.351  0.00  0.00    +0.172 C 
ATOM      5  C   LIG A   1      -5.634   2.464 127.854  0.00  0.00    +0.093 C 
ATOM      6  C   LIG A   1      -5.668   3.903 128.341  0.00  0.00    +0.011 C 
ATOM      7  C   LIG A   1      -4.250   4.350 128.593  0.00  0.00    +0.343 C 
ATOM      8  O   LIG A   1      -3.557   3.132 128.941  0.00  0.00    -0.297 OA
ATOM      9  C   LIG A   1      -4.485   2.018 128.835  0.00  0.00    +0.327 C 
ATOM     10  C   LIG A   1      -6.774   4.581 128.669  0.00  0.00    +0.010 C 
ATOM     11  C   LIG A   1      -8.151   4.076 128.649  0.00  0.00    +0.141 C 
ATOM     12  C   LIG A   1      -8.267   2.629 128.177  0.00  0.00    +0.041 C 
ATOM     13  C   LIG A   1      -6.998   1.711 128.099  0.00  0.00    +0.017 C 
ATOM     14  C   LIG A   1      -7.253   0.381 127.222  0.00  0.00    -0.019 C 
ATOM     15  C   LIG A   1      -8.748   0.287 126.753  0.00  0.00    +0.012 C 
ENDROOT
BRANCH   4  16
ATOM     16  O   LIG A   1      -3.798   2.043 126.253  0.00  0.00    -0.387 OA
ATOM     17  H   LIG A   1      -3.461   2.224 125.356  0.00  0.00    +0.210 HD
ENDBRANCH   4  16
BRANCH  11  18
ATOM     18  O   LIG A   1      -8.625   4.311 129.977  0.00  0.00    -0.376 OA
ATOM     19  C   LIG A   1      -9.647   5.286 130.079  0.00  0.00    +0.194 C 
ENDBRANCH  11  18
BRANCH   3  20
ATOM     20  O   LIG A   1      -7.189   2.445 124.917  0.00  0.00    -0.458 OA
BRANCH  20  21
ATOM     21  C   LIG A   1      -7.494   2.266 123.593  0.00  0.00    +0.307 C 
ATOM     22  O   LIG A   1      -6.730   1.788 122.757  0.00  0.00    -0.251 OA
BRANCH  21  23
ATOM     23  C   LIG A   1      -8.883   2.709 123.242  0.00  0.00    +0.120 C 
BRANCH  23  24
ATOM     24  C   LIG A   1      -9.880   1.633 123.666  0.00  0.00    +0.008 C 
ATOM     25  C   LIG A   1     -10.156   0.660 122.534  0.00  0.00    +0.004 C 
ENDBRANCH  23  24
ENDBRANCH  21  23
ENDBRANCH  20  21
ENDBRANCH   3  20
BRANCH   7  26
ATOM     26  O   LIG A   1      -4.158   5.282 129.677  0.00  0.00    -0.431 OA
BRANCH  26  27
ATOM     27  C   LIG A   1      -3.645   6.514 129.392  0.00  0.00    +0.306 C 
ATOM     28  C   LIG A   1      -2.173   6.524 129.710  0.00  0.00    +0.136 C 
ATOM     29  O   LIG A   1      -4.280   7.508 129.083  0.00  0.00    -0.251 OA
ENDBRANCH  26  27
ENDBRANCH   7  26
BRANCH   9  30
ATOM     30  O   LIG A   1      -4.994   1.778 130.159  0.00  0.00    -0.434 OA
BRANCH  30  31
ATOM     31  C   LIG A   1      -4.256   0.935 130.939  0.00  0.00    +0.306 C 
ATOM     32  C   LIG A   1      -4.150  -0.385 130.220  0.00  0.00    +0.136 C 
ATOM     33  O   LIG A   1      -3.776   1.184 132.017  0.00  0.00    -0.251 OA
ENDBRANCH  30  31
ENDBRANCH   9  30
BRANCH  14  34
ATOM     34  C   LIG A   1      -6.996  -0.919 128.094  0.00  0.00    +0.034 C 
BRANCH  34  35
ATOM     35  C   LIG A   1      -7.951  -2.073 127.867  0.00  0.00    -0.023 C 
ATOM     36  C   LIG A   1      -8.226  -3.162 128.610  0.00  0.00    -0.055 C 
ATOM     37  C   LIG A   1      -9.275  -4.130 128.107  0.00  0.00    +0.043 C 
BRANCH  36  38
ATOM     38  C   LIG A   1      -7.653  -3.515 129.895  0.00  0.00    -0.005 C 
ATOM     39  C   LIG A   1      -6.422  -3.992 130.118  0.00  0.00    +0.008 C 
ENDBRANCH  36  38
ENDBRANCH  34  35
ENDBRANCH  14  34
TORSDOF 13
ENDMDL
