MODEL 1
REMARK VINA RESULT:      -8.2      0.000      0.000
REMARK  Name = NuBBE_1723
REMARK  10 active torsions:
REMARK  status: ('A' for Active; 'I' for Inactive)
REMARK    1  A    between atoms: O_1  and  C_2
REMARK    2  A    between atoms: O_1  and  C_3
REMARK    3  A    between atoms: C_10  and  C_13
REMARK    4  A    between atoms: C_10  and  C_14
REMARK    5  A    between atoms: C_21  and  O_28
REMARK    6  A    between atoms: C_22  and  O_24
REMARK    7  A    between atoms: O_24  and  C_25
REMARK    8  A    between atoms: C_25  and  C_27
REMARK    9  A    between atoms: O_28  and  C_29
REMARK   10  A    between atoms: C_29  and  C_31
REMARK                            x       y       z     vdW  Elec       q    Type
REMARK                         _______ _______ _______ _____ _____    ______ ____
ROOT
ATOM      1  C   LIG A   1      -4.513   2.230 129.909  0.00  0.00    +0.138 A 
ATOM      2  C   LIG A   1      -4.496   2.556 128.542  0.00  0.00    +0.107 A 
ATOM      3  C   LIG A   1      -3.878   3.736 128.098  0.00  0.00    +0.153 A 
ATOM      4  C   LIG A   1      -3.220   4.580 129.002  0.00  0.00    +0.060 A 
ATOM      5  C   LIG A   1      -3.254   4.258 130.355  0.00  0.00    +0.136 A 
ATOM      6  C   LIG A   1      -3.897   3.104 130.804  0.00  0.00    +0.092 A 
ATOM      7  O   LIG A   1      -2.663   5.005 131.332  0.00  0.00    -0.481 OA
ATOM      8  C   LIG A   1      -2.212   6.330 130.995  0.00  0.00    +0.123 C 
ATOM      9  C   LIG A   1      -2.011   6.583 129.520  0.00  0.00    +0.020 C 
ATOM     10  C   LIG A   1      -2.488   5.767 128.575  0.00  0.00    +0.015 C 
ATOM     11  C   LIG A   1      -0.880   6.496 131.732  0.00  0.00    +0.060 C 
ATOM     12  C   LIG A   1      -3.252   7.311 131.546  0.00  0.00    +0.060 C 
ATOM     13  O   LIG A   1      -3.879   4.136 126.779  0.00  0.00    -0.454 OA
ATOM     14  C   LIG A   1      -4.809   3.573 125.949  0.00  0.00    +0.143 A 
ATOM     15  C   LIG A   1      -5.446   2.375 126.235  0.00  0.00    +0.068 A 
ATOM     16  C   LIG A   1      -5.131   1.709 127.507  0.00  0.00    +0.204 A 
ATOM     17  O   LIG A   1      -5.388   0.523 127.650  0.00  0.00    -0.286 OA
ATOM     18  C   LIG A   1      -6.359   1.825 125.339  0.00  0.00    +0.065 A 
ATOM     19  C   LIG A   1      -6.651   2.510 124.159  0.00  0.00    +0.175 A 
ATOM     20  C   LIG A   1      -5.989   3.713 123.854  0.00  0.00    +0.177 A 
ATOM     21  C   LIG A   1      -5.067   4.243 124.754  0.00  0.00    +0.097 A 
ENDROOT
BRANCH   1  22
ATOM     22  O   LIG A   1      -5.151   1.085 130.298  0.00  0.00    -0.494 OA
ATOM     23  C   LIG A   1      -4.420   0.144 131.076  0.00  0.00    +0.277 C 
ENDBRANCH   1  22
BRANCH  20  24
ATOM     24  O   LIG A   1      -6.219   4.278 122.570  0.00  0.00    -0.422 OA
BRANCH  24  25
ATOM     25  C   LIG A   1      -5.234   4.485 121.595  0.00  0.00    +0.309 C 
ATOM     26  O   LIG A   1      -4.538   5.479 121.448  0.00  0.00    -0.251 OA
ATOM     27  C   LIG A   1      -5.156   3.284 120.702  0.00  0.00    +0.136 C 
ENDBRANCH  24  25
ENDBRANCH  20  24
BRANCH  19  28
ATOM     28  O   LIG A   1      -7.507   1.962 123.176  0.00  0.00    -0.422 OA
BRANCH  28  29
ATOM     29  C   LIG A   1      -8.447   0.960 123.466  0.00  0.00    +0.309 C 
ATOM     30  O   LIG A   1      -8.277  -0.245 123.418  0.00  0.00    -0.251 OA
ATOM     31  C   LIG A   1      -9.751   1.615 123.823  0.00  0.00    +0.136 C 
ENDBRANCH  28  29
ENDBRANCH  19  28
TORSDOF 5
ENDMDL
MODEL 2
REMARK VINA RESULT:      -8.1      3.586      8.692
REMARK  Name = NuBBE_1723
REMARK  10 active torsions:
REMARK  status: ('A' for Active; 'I' for Inactive)
REMARK    1  A    between atoms: O_1  and  C_2
REMARK    2  A    between atoms: O_1  and  C_3
REMARK    3  A    between atoms: C_10  and  C_13
REMARK    4  A    between atoms: C_10  and  C_14
REMARK    5  A    between atoms: C_21  and  O_28
REMARK    6  A    between atoms: C_22  and  O_24
REMARK    7  A    between atoms: O_24  and  C_25
REMARK    8  A    between atoms: C_25  and  C_27
REMARK    9  A    between atoms: O_28  and  C_29
REMARK   10  A    between atoms: C_29  and  C_31
REMARK                            x       y       z     vdW  Elec       q    Type
REMARK                         _______ _______ _______ _____ _____    ______ ____
ROOT
ATOM      1  C   LIG A   1      -7.865   2.102 124.164  0.00  0.00    +0.138 A 
ATOM      2  C   LIG A   1      -7.451   2.297 125.493  0.00  0.00    +0.107 A 
ATOM      3  C   LIG A   1      -6.776   1.279 126.186  0.00  0.00    +0.153 A 
ATOM      4  C   LIG A   1      -6.453   0.075 125.548  0.00  0.00    +0.060 A 
ATOM      5  C   LIG A   1      -6.880  -0.117 124.237  0.00  0.00    +0.136 A 
ATOM      6  C   LIG A   1      -7.580   0.880 123.556  0.00  0.00    +0.092 A 
ATOM      7  O   LIG A   1      -6.638  -1.248 123.515  0.00  0.00    -0.481 OA
ATOM      8  C   LIG A   1      -6.161  -2.413 124.214  0.00  0.00    +0.123 C 
ATOM      9  C   LIG A   1      -5.537  -2.139 125.562  0.00  0.00    +0.020 C 
ATOM     10  C   LIG A   1      -5.676  -0.974 126.200  0.00  0.00    +0.015 C 
ATOM     11  C   LIG A   1      -5.119  -3.037 123.281  0.00  0.00    +0.060 C 
ATOM     12  C   LIG A   1      -7.357  -3.355 124.384  0.00  0.00    +0.060 C 
ATOM     13  O   LIG A   1      -6.398   1.391 127.507  0.00  0.00    -0.454 OA
ATOM     14  C   LIG A   1      -7.013   2.352 128.261  0.00  0.00    +0.143 A 
ATOM     15  C   LIG A   1      -7.657   3.447 127.705  0.00  0.00    +0.068 A 
ATOM     16  C   LIG A   1      -7.712   3.548 126.240  0.00  0.00    +0.204 A 
ATOM     17  O   LIG A   1      -7.953   4.626 125.715  0.00  0.00    -0.286 OA
ATOM     18  C   LIG A   1      -8.237   4.418 128.518  0.00  0.00    +0.065 A 
ATOM     19  C   LIG A   1      -8.189   4.261 129.904  0.00  0.00    +0.175 A 
ATOM     20  C   LIG A   1      -7.515   3.166 130.472  0.00  0.00    +0.177 A 
ATOM     21  C   LIG A   1      -6.927   2.210 129.645  0.00  0.00    +0.097 A 
ENDROOT
BRANCH   1  22
ATOM     22  O   LIG A   1      -8.543   3.111 123.538  0.00  0.00    -0.494 OA
ATOM     23  C   LIG A   1      -8.541   3.135 122.115  0.00  0.00    +0.277 C 
ENDBRANCH   1  22
BRANCH  20  24
ATOM     24  O   LIG A   1      -7.372   3.148 131.886  0.00  0.00    -0.422 OA
BRANCH  24  25
ATOM     25  C   LIG A   1      -8.096   2.322 132.757  0.00  0.00    +0.309 C 
ATOM     26  O   LIG A   1      -7.892   1.141 132.994  0.00  0.00    -0.251 OA
ATOM     27  C   LIG A   1      -9.218   3.105 133.370  0.00  0.00    +0.136 C 
ENDBRANCH  24  25
ENDBRANCH  20  24
BRANCH  19  28
ATOM     28  O   LIG A   1      -8.688   5.253 130.779  0.00  0.00    -0.422 OA
BRANCH  28  29
ATOM     29  C   LIG A   1      -8.280   6.596 130.710  0.00  0.00    +0.309 C 
ATOM     30  O   LIG A   1      -8.870   7.517 130.174  0.00  0.00    -0.251 OA
ATOM     31  C   LIG A   1      -6.947   6.728 131.388  0.00  0.00    +0.136 C 
ENDBRANCH  28  29
ENDBRANCH  19  28
TORSDOF 5
ENDMDL
MODEL 3
REMARK VINA RESULT:      -8.1      2.345      2.676
REMARK  Name = NuBBE_1723
REMARK  10 active torsions:
REMARK  status: ('A' for Active; 'I' for Inactive)
REMARK    1  A    between atoms: O_1  and  C_2
REMARK    2  A    between atoms: O_1  and  C_3
REMARK    3  A    between atoms: C_10  and  C_13
REMARK    4  A    between atoms: C_10  and  C_14
REMARK    5  A    between atoms: C_21  and  O_28
REMARK    6  A    between atoms: C_22  and  O_24
REMARK    7  A    between atoms: O_24  and  C_25
REMARK    8  A    between atoms: C_25  and  C_27
REMARK    9  A    between atoms: O_28  and  C_29
REMARK   10  A    between atoms: C_29  and  C_31
REMARK                            x       y       z     vdW  Elec       q    Type
REMARK                         _______ _______ _______ _____ _____    ______ ____
ROOT
ATOM      1  C   LIG A   1      -7.317   4.041 129.358  0.00  0.00    +0.138 A 
ATOM      2  C   LIG A   1      -6.987   3.606 128.063  0.00  0.00    +0.107 A 
ATOM      3  C   LIG A   1      -5.771   3.986 127.472  0.00  0.00    +0.153 A 
ATOM      4  C   LIG A   1      -4.843   4.757 128.183  0.00  0.00    +0.060 A 
ATOM      5  C   LIG A   1      -5.183   5.196 129.459  0.00  0.00    +0.136 A 
ATOM      6  C   LIG A   1      -6.405   4.848 130.037  0.00  0.00    +0.092 A 
ATOM      7  O   LIG A   1      -4.371   5.960 130.244  0.00  0.00    -0.481 OA
ATOM      8  C   LIG A   1      -3.221   6.576 129.636  0.00  0.00    +0.123 C 
ATOM      9  C   LIG A   1      -2.771   5.951 128.337  0.00  0.00    +0.020 C 
ATOM     10  C   LIG A   1      -3.531   5.099 127.643  0.00  0.00    +0.015 C 
ATOM     11  C   LIG A   1      -2.107   6.454 130.679  0.00  0.00    +0.060 C 
ATOM     12  C   LIG A   1      -3.573   8.048 129.401  0.00  0.00    +0.060 C 
ATOM     13  O   LIG A   1      -5.419   3.640 126.185  0.00  0.00    -0.454 OA
ATOM     14  C   LIG A   1      -6.419   3.237 125.343  0.00  0.00    +0.143 A 
ATOM     15  C   LIG A   1      -7.645   2.775 125.797  0.00  0.00    +0.068 A 
ATOM     16  C   LIG A   1      -7.886   2.759 127.247  0.00  0.00    +0.204 A 
ATOM     17  O   LIG A   1      -8.780   2.064 127.706  0.00  0.00    -0.286 OA
ATOM     18  C   LIG A   1      -8.618   2.343 124.899  0.00  0.00    +0.065 A 
ATOM     19  C   LIG A   1      -8.357   2.409 123.530  0.00  0.00    +0.175 A 
ATOM     20  C   LIG A   1      -7.105   2.853 123.066  0.00  0.00    +0.177 A 
ATOM     21  C   LIG A   1      -6.137   3.269 123.978  0.00  0.00    +0.097 A 
ENDROOT
BRANCH   1  22
ATOM     22  O   LIG A   1      -8.525   3.669 129.883  0.00  0.00    -0.494 OA
ATOM     23  C   LIG A   1      -9.464   4.693 130.188  0.00  0.00    +0.277 C 
ENDBRANCH   1  22
BRANCH  20  24
ATOM     24  O   LIG A   1      -6.851   2.750 121.672  0.00  0.00    -0.422 OA
BRANCH  24  25
ATOM     25  C   LIG A   1      -6.980   3.800 120.752  0.00  0.00    +0.309 C 
ATOM     26  O   LIG A   1      -7.996   4.152 120.172  0.00  0.00    -0.251 OA
ATOM     27  C   LIG A   1      -5.644   4.449 120.544  0.00  0.00    +0.136 C 
ENDBRANCH  24  25
ENDBRANCH  20  24
BRANCH  19  28
ATOM     28  O   LIG A   1      -9.272   1.909 122.576  0.00  0.00    -0.422 OA
BRANCH  28  29
ATOM     29  C   LIG A   1     -10.027   0.744 122.791  0.00  0.00    +0.309 C 
ATOM     30  O   LIG A   1     -11.238   0.658 122.885  0.00  0.00    -0.251 OA
ATOM     31  C   LIG A   1      -9.086  -0.418 122.929  0.00  0.00    +0.136 C 
ENDBRANCH  28  29
ENDBRANCH  19  28
TORSDOF 5
ENDMDL
MODEL 4
REMARK VINA RESULT:      -7.9      2.876      5.094
REMARK  Name = NuBBE_1723
REMARK  10 active torsions:
REMARK  status: ('A' for Active; 'I' for Inactive)
REMARK    1  A    between atoms: O_1  and  C_2
REMARK    2  A    between atoms: O_1  and  C_3
REMARK    3  A    between atoms: C_10  and  C_13
REMARK    4  A    between atoms: C_10  and  C_14
REMARK    5  A    between atoms: C_21  and  O_28
REMARK    6  A    between atoms: C_22  and  O_24
REMARK    7  A    between atoms: O_24  and  C_25
REMARK    8  A    between atoms: C_25  and  C_27
REMARK    9  A    between atoms: O_28  and  C_29
REMARK   10  A    between atoms: C_29  and  C_31
REMARK                            x       y       z     vdW  Elec       q    Type
REMARK                         _______ _______ _______ _____ _____    ______ ____
ROOT
ATOM      1  C   LIG A   1      -5.408   4.439 129.010  0.00  0.00    +0.138 A 
ATOM      2  C   LIG A   1      -6.291   4.178 127.948  0.00  0.00    +0.107 A 
ATOM      3  C   LIG A   1      -7.560   3.630 128.194  0.00  0.00    +0.153 A 
ATOM      4  C   LIG A   1      -7.989   3.385 129.505  0.00  0.00    +0.060 A 
ATOM      5  C   LIG A   1      -7.103   3.632 130.550  0.00  0.00    +0.136 A 
ATOM      6  C   LIG A   1      -5.829   4.146 130.307  0.00  0.00    +0.092 A 
ATOM      7  O   LIG A   1      -7.400   3.424 131.865  0.00  0.00    -0.481 OA
ATOM      8  C   LIG A   1      -8.576   2.658 132.184  0.00  0.00    +0.123 C 
ATOM      9  C   LIG A   1      -9.601   2.568 131.078  0.00  0.00    +0.020 C 
ATOM     10  C   LIG A   1      -9.330   2.901 129.813  0.00  0.00    +0.015 C 
ATOM     11  C   LIG A   1      -9.190   3.362 133.398  0.00  0.00    +0.060 C 
ATOM     12  C   LIG A   1      -8.106   1.251 132.565  0.00  0.00    +0.060 C 
ATOM     13  O   LIG A   1      -8.444   3.299 127.190  0.00  0.00    -0.454 OA
ATOM     14  C   LIG A   1      -7.941   3.155 125.927  0.00  0.00    +0.143 A 
ATOM     15  C   LIG A   1      -6.731   3.705 125.531  0.00  0.00    +0.068 A 
ATOM     16  C   LIG A   1      -5.943   4.437 126.532  0.00  0.00    +0.204 A 
ATOM     17  O   LIG A   1      -5.069   5.211 126.169  0.00  0.00    -0.286 OA
ATOM     18  C   LIG A   1      -6.280   3.560 124.222  0.00  0.00    +0.065 A 
ATOM     19  C   LIG A   1      -7.047   2.828 123.315  0.00  0.00    +0.175 A 
ATOM     20  C   LIG A   1      -8.286   2.290 123.705  0.00  0.00    +0.177 A 
ATOM     21  C   LIG A   1      -8.731   2.455 125.016  0.00  0.00    +0.097 A 
ENDROOT
BRANCH   1  22
ATOM     22  O   LIG A   1      -4.172   4.948 128.720  0.00  0.00    -0.494 OA
ATOM     23  C   LIG A   1      -3.044   4.095 128.878  0.00  0.00    +0.277 C 
ENDBRANCH   1  22
BRANCH  20  24
ATOM     24  O   LIG A   1      -9.085   1.689 122.695  0.00  0.00    -0.422 OA
BRANCH  24  25
ATOM     25  C   LIG A   1      -9.747   0.459 122.819  0.00  0.00    +0.309 C 
ATOM     26  O   LIG A   1     -10.934   0.238 122.631  0.00  0.00    -0.251 OA
ATOM     27  C   LIG A   1      -8.771  -0.592 123.254  0.00  0.00    +0.136 C 
ENDBRANCH  24  25
ENDBRANCH  20  24
BRANCH  19  28
ATOM     28  O   LIG A   1      -6.680   2.717 121.954  0.00  0.00    -0.422 OA
BRANCH  28  29
ATOM     29  C   LIG A   1      -6.889   3.753 121.029  0.00  0.00    +0.309 C 
ATOM     30  O   LIG A   1      -7.938   4.056 120.488  0.00  0.00    -0.251 OA
ATOM     31  C   LIG A   1      -5.576   4.433 120.767  0.00  0.00    +0.136 C 
ENDBRANCH  28  29
ENDBRANCH  19  28
TORSDOF 5
ENDMDL
MODEL 5
REMARK VINA RESULT:      -7.9      3.087      6.781
REMARK  Name = NuBBE_1723
REMARK  10 active torsions:
REMARK  status: ('A' for Active; 'I' for Inactive)
REMARK    1  A    between atoms: O_1  and  C_2
REMARK    2  A    between atoms: O_1  and  C_3
REMARK    3  A    between atoms: C_10  and  C_13
REMARK    4  A    between atoms: C_10  and  C_14
REMARK    5  A    between atoms: C_21  and  O_28
REMARK    6  A    between atoms: C_22  and  O_24
REMARK    7  A    between atoms: O_24  and  C_25
REMARK    8  A    between atoms: C_25  and  C_27
REMARK    9  A    between atoms: O_28  and  C_29
REMARK   10  A    between atoms: C_29  and  C_31
REMARK                            x       y       z     vdW  Elec       q    Type
REMARK                         _______ _______ _______ _____ _____    ______ ____
ROOT
ATOM      1  C   LIG A   1      -8.399  -2.288 126.597  0.00  0.00    +0.138 A 
ATOM      2  C   LIG A   1      -7.381  -1.347 126.365  0.00  0.00    +0.107 A 
ATOM      3  C   LIG A   1      -6.272  -1.270 127.223  0.00  0.00    +0.153 A 
ATOM      4  C   LIG A   1      -6.132  -2.166 128.290  0.00  0.00    +0.060 A 
ATOM      5  C   LIG A   1      -7.151  -3.085 128.523  0.00  0.00    +0.136 A 
ATOM      6  C   LIG A   1      -8.272  -3.143 127.692  0.00  0.00    +0.092 A 
ATOM      7  O   LIG A   1      -7.137  -4.000 129.535  0.00  0.00    -0.481 OA
ATOM      8  C   LIG A   1      -6.162  -3.840 130.582  0.00  0.00    +0.123 C 
ATOM      9  C   LIG A   1      -4.974  -2.978 130.225  0.00  0.00    +0.020 C 
ATOM     10  C   LIG A   1      -4.956  -2.182 129.152  0.00  0.00    +0.015 C 
ATOM     11  C   LIG A   1      -5.689  -5.260 130.904  0.00  0.00    +0.060 C 
ATOM     12  C   LIG A   1      -6.891  -3.235 131.785  0.00  0.00    +0.060 C 
ATOM     13  O   LIG A   1      -5.274  -0.331 127.080  0.00  0.00    -0.454 OA
ATOM     14  C   LIG A   1      -5.550   0.774 126.322  0.00  0.00    +0.143 A 
ATOM     15  C   LIG A   1      -6.574   0.809 125.388  0.00  0.00    +0.068 A 
ATOM     16  C   LIG A   1      -7.421  -0.383 125.242  0.00  0.00    +0.204 A 
ATOM     17  O   LIG A   1      -8.092  -0.531 124.232  0.00  0.00    -0.286 OA
ATOM     18  C   LIG A   1      -6.792   1.948 124.616  0.00  0.00    +0.065 A 
ATOM     19  C   LIG A   1      -5.983   3.068 124.813  0.00  0.00    +0.175 A 
ATOM     20  C   LIG A   1      -4.927   3.028 125.741  0.00  0.00    +0.177 A 
ATOM     21  C   LIG A   1      -4.714   1.876 126.497  0.00  0.00    +0.097 A 
ENDROOT
BRANCH   1  22
ATOM     22  O   LIG A   1      -9.474  -2.309 125.752  0.00  0.00    -0.494 OA
ATOM     23  C   LIG A   1      -9.536  -3.341 124.774  0.00  0.00    +0.277 C 
ENDBRANCH   1  22
BRANCH  20  24
ATOM     24  O   LIG A   1      -4.050   4.145 125.783  0.00  0.00    -0.422 OA
BRANCH  24  25
ATOM     25  C   LIG A   1      -3.216   4.472 126.861  0.00  0.00    +0.309 C 
ATOM     26  O   LIG A   1      -2.155   3.944 127.159  0.00  0.00    -0.251 OA
ATOM     27  C   LIG A   1      -3.832   5.588 127.649  0.00  0.00    +0.136 C 
ENDBRANCH  24  25
ENDBRANCH  20  24
BRANCH  19  28
ATOM     28  O   LIG A   1      -6.104   4.220 124.003  0.00  0.00    -0.422 OA
BRANCH  28  29
ATOM     29  C   LIG A   1      -5.598   4.280 122.694  0.00  0.00    +0.309 C 
ATOM     30  O   LIG A   1      -4.588   4.848 122.320  0.00  0.00    -0.251 OA
ATOM     31  C   LIG A   1      -6.538   3.543 121.783  0.00  0.00    +0.136 C 
ENDBRANCH  28  29
ENDBRANCH  19  28
TORSDOF 5
ENDMDL
MODEL 6
REMARK VINA RESULT:      -7.7      5.759      7.177
REMARK  Name = NuBBE_1723
REMARK  10 active torsions:
REMARK  status: ('A' for Active; 'I' for Inactive)
REMARK    1  A    between atoms: O_1  and  C_2
REMARK    2  A    between atoms: O_1  and  C_3
REMARK    3  A    between atoms: C_10  and  C_13
REMARK    4  A    between atoms: C_10  and  C_14
REMARK    5  A    between atoms: C_21  and  O_28
REMARK    6  A    between atoms: C_22  and  O_24
REMARK    7  A    between atoms: O_24  and  C_25
REMARK    8  A    between atoms: C_25  and  C_27
REMARK    9  A    between atoms: O_28  and  C_29
REMARK   10  A    between atoms: C_29  and  C_31
REMARK                            x       y       z     vdW  Elec       q    Type
REMARK                         _______ _______ _______ _____ _____    ______ ____
ROOT
ATOM      1  C   LIG A   1      -5.957   6.020 134.988  0.00  0.00    +0.138 A 
ATOM      2  C   LIG A   1      -6.608   5.760 133.769  0.00  0.00    +0.107 A 
ATOM      3  C   LIG A   1      -5.921   5.897 132.551  0.00  0.00    +0.153 A 
ATOM      4  C   LIG A   1      -4.564   6.241 132.533  0.00  0.00    +0.060 A 
ATOM      5  C   LIG A   1      -3.931   6.511 133.743  0.00  0.00    +0.136 A 
ATOM      6  C   LIG A   1      -4.618   6.408 134.953  0.00  0.00    +0.092 A 
ATOM      7  O   LIG A   1      -2.618   6.866 133.854  0.00  0.00    -0.481 OA
ATOM      8  C   LIG A   1      -1.914   7.248 132.658  0.00  0.00    +0.123 C 
ATOM      9  C   LIG A   1      -2.539   6.776 131.367  0.00  0.00    +0.020 C 
ATOM     10  C   LIG A   1      -3.789   6.307 131.299  0.00  0.00    +0.015 C 
ATOM     11  C   LIG A   1      -0.518   6.637 132.808  0.00  0.00    +0.060 C 
ATOM     12  C   LIG A   1      -1.829   8.778 132.657  0.00  0.00    +0.060 C 
ATOM     13  O   LIG A   1      -6.522   5.713 131.325  0.00  0.00    -0.454 OA
ATOM     14  C   LIG A   1      -7.888   5.762 131.276  0.00  0.00    +0.143 A 
ATOM     15  C   LIG A   1      -8.688   5.574 132.393  0.00  0.00    +0.068 A 
ATOM     16  C   LIG A   1      -8.029   5.356 133.688  0.00  0.00    +0.204 A 
ATOM     17  O   LIG A   1      -8.657   4.858 134.611  0.00  0.00    -0.286 OA
ATOM     18  C   LIG A   1     -10.076   5.598 132.283  0.00  0.00    +0.065 A 
ATOM     19  C   LIG A   1     -10.656   5.842 131.038  0.00  0.00    +0.175 A 
ATOM     20  C   LIG A   1      -9.848   6.008 129.898  0.00  0.00    +0.177 A 
ATOM     21  C   LIG A   1      -8.461   5.967 130.022  0.00  0.00    +0.097 A 
ENDROOT
BRANCH   1  22
ATOM     22  O   LIG A   1      -6.673   5.900 136.147  0.00  0.00    -0.494 OA
ATOM     23  C   LIG A   1      -5.952   5.766 137.367  0.00  0.00    +0.277 C 
ENDBRANCH   1  22
BRANCH  20  24
ATOM     24  O   LIG A   1     -10.503   6.100 128.641  0.00  0.00    -0.422 OA
BRANCH  24  25
ATOM     25  C   LIG A   1     -10.254   7.085 127.675  0.00  0.00    +0.309 C 
ATOM     26  O   LIG A   1      -9.969   6.910 126.499  0.00  0.00    -0.251 OA
ATOM     27  C   LIG A   1     -10.365   8.441 128.304  0.00  0.00    +0.136 C 
ENDBRANCH  24  25
ENDBRANCH  20  24
BRANCH  19  28
ATOM     28  O   LIG A   1     -12.057   5.796 130.851  0.00  0.00    -0.422 OA
BRANCH  28  29
ATOM     29  C   LIG A   1     -12.864   6.944 130.905  0.00  0.00    +0.309 C 
ATOM     30  O   LIG A   1     -13.087   7.642 131.878  0.00  0.00    -0.251 OA
ATOM     31  C   LIG A   1     -13.463   7.174 129.547  0.00  0.00    +0.136 C 
ENDBRANCH  28  29
ENDBRANCH  19  28
TORSDOF 5
ENDMDL
MODEL 7
REMARK VINA RESULT:      -7.7      5.308      6.330
REMARK  Name = NuBBE_1723
REMARK  10 active torsions:
REMARK  status: ('A' for Active; 'I' for Inactive)
REMARK    1  A    between atoms: O_1  and  C_2
REMARK    2  A    between atoms: O_1  and  C_3
REMARK    3  A    between atoms: C_10  and  C_13
REMARK    4  A    between atoms: C_10  and  C_14
REMARK    5  A    between atoms: C_21  and  O_28
REMARK    6  A    between atoms: C_22  and  O_24
REMARK    7  A    between atoms: O_24  and  C_25
REMARK    8  A    between atoms: C_25  and  C_27
REMARK    9  A    between atoms: O_28  and  C_29
REMARK   10  A    between atoms: C_29  and  C_31
REMARK                            x       y       z     vdW  Elec       q    Type
REMARK                         _______ _______ _______ _____ _____    ______ ____
ROOT
ATOM      1  C   LIG A   1      -9.902   4.640 131.010  0.00  0.00    +0.138 A 
ATOM      2  C   LIG A   1      -9.063   4.556 129.885  0.00  0.00    +0.107 A 
ATOM      3  C   LIG A   1      -9.269   5.396 128.778  0.00  0.00    +0.153 A 
ATOM      4  C   LIG A   1     -10.277   6.368 128.798  0.00  0.00    +0.060 A 
ATOM      5  C   LIG A   1     -11.113   6.435 129.909  0.00  0.00    +0.136 A 
ATOM      6  C   LIG A   1     -10.933   5.580 130.997  0.00  0.00    +0.092 A 
ATOM      7  O   LIG A   1     -12.135   7.329 130.041  0.00  0.00    -0.481 OA
ATOM      8  C   LIG A   1     -12.554   8.060 128.874  0.00  0.00    +0.123 C 
ATOM      9  C   LIG A   1     -11.540   8.119 127.757  0.00  0.00    +0.020 C 
ATOM     10  C   LIG A   1     -10.470   7.321 127.710  0.00  0.00    +0.015 C 
ATOM     11  C   LIG A   1     -12.847   9.476 129.378  0.00  0.00    +0.060 C 
ATOM     12  C   LIG A   1     -13.839   7.398 128.367  0.00  0.00    +0.060 C 
ATOM     13  O   LIG A   1      -8.517   5.320 127.626  0.00  0.00    -0.454 OA
ATOM     14  C   LIG A   1      -7.806   4.172 127.409  0.00  0.00    +0.143 A 
ATOM     15  C   LIG A   1      -7.476   3.288 128.427  0.00  0.00    +0.068 A 
ATOM     16  C   LIG A   1      -7.949   3.587 129.785  0.00  0.00    +0.204 A 
ATOM     17  O   LIG A   1      -7.416   3.050 130.745  0.00  0.00    -0.286 OA
ATOM     18  C   LIG A   1      -6.720   2.150 128.160  0.00  0.00    +0.065 A 
ATOM     19  C   LIG A   1      -6.321   1.890 126.848  0.00  0.00    +0.175 A 
ATOM     20  C   LIG A   1      -6.633   2.796 125.818  0.00  0.00    +0.177 A 
ATOM     21  C   LIG A   1      -7.378   3.939 126.103  0.00  0.00    +0.097 A 
ENDROOT
BRANCH   1  22
ATOM     22  O   LIG A   1      -9.682   3.783 132.053  0.00  0.00    -0.494 OA
ATOM     23  C   LIG A   1      -9.265   4.337 133.296  0.00  0.00    +0.277 C 
ENDBRANCH   1  22
BRANCH  20  24
ATOM     24  O   LIG A   1      -6.068   2.550 124.538  0.00  0.00    -0.422 OA
BRANCH  24  25
ATOM     25  C   LIG A   1      -6.802   2.302 123.369  0.00  0.00    +0.309 C 
ATOM     26  O   LIG A   1      -7.668   1.455 123.208  0.00  0.00    -0.251 OA
ATOM     27  C   LIG A   1      -6.350   3.236 122.288  0.00  0.00    +0.136 C 
ENDBRANCH  24  25
ENDBRANCH  20  24
BRANCH  19  28
ATOM     28  O   LIG A   1      -5.484   0.796 126.530  0.00  0.00    -0.422 OA
BRANCH  28  29
ATOM     29  C   LIG A   1      -5.983  -0.500 126.319  0.00  0.00    +0.309 C 
ATOM     30  O   LIG A   1      -6.773  -0.855 125.462  0.00  0.00    -0.251 OA
ATOM     31  C   LIG A   1      -5.406  -1.412 127.364  0.00  0.00    +0.136 C 
ENDBRANCH  28  29
ENDBRANCH  19  28
TORSDOF 5
ENDMDL
MODEL 8
REMARK VINA RESULT:      -7.5      4.521      6.728
REMARK  Name = NuBBE_1723
REMARK  10 active torsions:
REMARK  status: ('A' for Active; 'I' for Inactive)
REMARK    1  A    between atoms: O_1  and  C_2
REMARK    2  A    between atoms: O_1  and  C_3
REMARK    3  A    between atoms: C_10  and  C_13
REMARK    4  A    between atoms: C_10  and  C_14
REMARK    5  A    between atoms: C_21  and  O_28
REMARK    6  A    between atoms: C_22  and  O_24
REMARK    7  A    between atoms: O_24  and  C_25
REMARK    8  A    between atoms: C_25  and  C_27
REMARK    9  A    between atoms: O_28  and  C_29
REMARK   10  A    between atoms: C_29  and  C_31
REMARK                            x       y       z     vdW  Elec       q    Type
REMARK                         _______ _______ _______ _____ _____    ______ ____
ROOT
ATOM      1  C   LIG A   1      -7.049   0.309 131.297  0.00  0.00    +0.138 A 
ATOM      2  C   LIG A   1      -7.479  -0.106 130.025  0.00  0.00    +0.107 A 
ATOM      3  C   LIG A   1      -7.289  -1.433 129.606  0.00  0.00    +0.153 A 
ATOM      4  C   LIG A   1      -6.719  -2.378 130.467  0.00  0.00    +0.060 A 
ATOM      5  C   LIG A   1      -6.281  -1.956 131.720  0.00  0.00    +0.136 A 
ATOM      6  C   LIG A   1      -6.438  -0.631 132.128  0.00  0.00    +0.092 A 
ATOM      7  O   LIG A   1      -5.701  -2.778 132.641  0.00  0.00    -0.481 OA
ATOM      8  C   LIG A   1      -5.266  -4.081 132.211  0.00  0.00    +0.123 C 
ATOM      9  C   LIG A   1      -5.904  -4.582 130.938  0.00  0.00    +0.020 C 
ATOM     10  C   LIG A   1      -6.583  -3.785 130.108  0.00  0.00    +0.015 C 
ATOM     11  C   LIG A   1      -5.620  -5.019 133.369  0.00  0.00    +0.060 C 
ATOM     12  C   LIG A   1      -3.746  -4.009 132.029  0.00  0.00    +0.060 C 
ATOM     13  O   LIG A   1      -7.636  -1.882 128.350  0.00  0.00    -0.454 OA
ATOM     14  C   LIG A   1      -7.826  -0.944 127.373  0.00  0.00    +0.143 A 
ATOM     15  C   LIG A   1      -8.090   0.389 127.651  0.00  0.00    +0.068 A 
ATOM     16  C   LIG A   1      -8.125   0.810 129.058  0.00  0.00    +0.204 A 
ATOM     17  O   LIG A   1      -8.676   1.857 129.365  0.00  0.00    -0.286 OA
ATOM     18  C   LIG A   1      -8.311   1.299 126.620  0.00  0.00    +0.065 A 
ATOM     19  C   LIG A   1      -8.234   0.859 125.297  0.00  0.00    +0.175 A 
ATOM     20  C   LIG A   1      -7.992  -0.496 125.012  0.00  0.00    +0.177 A 
ATOM     21  C   LIG A   1      -7.787  -1.397 126.055  0.00  0.00    +0.097 A 
ENDROOT
BRANCH   1  22
ATOM     22  O   LIG A   1      -7.230   1.617 131.653  0.00  0.00    -0.494 OA
ATOM     23  C   LIG A   1      -8.010   1.893 132.810  0.00  0.00    +0.277 C 
ENDBRANCH   1  22
BRANCH  20  24
ATOM     24  O   LIG A   1      -8.078  -0.904 123.654  0.00  0.00    -0.422 OA
BRANCH  24  25
ATOM     25  C   LIG A   1      -9.227  -1.429 123.044  0.00  0.00    +0.309 C 
ATOM     26  O   LIG A   1     -10.140  -0.801 122.529  0.00  0.00    -0.251 OA
ATOM     27  C   LIG A   1      -9.198  -2.925 123.129  0.00  0.00    +0.136 C 
ENDBRANCH  24  25
ENDBRANCH  20  24
BRANCH  19  28
ATOM     28  O   LIG A   1      -8.530   1.717 124.213  0.00  0.00    -0.422 OA
BRANCH  28  29
ATOM     29  C   LIG A   1      -7.547   2.484 123.566  0.00  0.00    +0.309 C 
ATOM     30  O   LIG A   1      -6.400   2.671 123.933  0.00  0.00    -0.251 OA
ATOM     31  C   LIG A   1      -8.147   3.090 122.330  0.00  0.00    +0.136 C 
ENDBRANCH  28  29
ENDBRANCH  19  28
TORSDOF 5
ENDMDL
MODEL 9
REMARK VINA RESULT:      -7.4      4.745      8.433
REMARK  Name = NuBBE_1723
REMARK  10 active torsions:
REMARK  status: ('A' for Active; 'I' for Inactive)
REMARK    1  A    between atoms: O_1  and  C_2
REMARK    2  A    between atoms: O_1  and  C_3
REMARK    3  A    between atoms: C_10  and  C_13
REMARK    4  A    between atoms: C_10  and  C_14
REMARK    5  A    between atoms: C_21  and  O_28
REMARK    6  A    between atoms: C_22  and  O_24
REMARK    7  A    between atoms: O_24  and  C_25
REMARK    8  A    between atoms: C_25  and  C_27
REMARK    9  A    between atoms: O_28  and  C_29
REMARK   10  A    between atoms: C_29  and  C_31
REMARK                            x       y       z     vdW  Elec       q    Type
REMARK                         _______ _______ _______ _____ _____    ______ ____
ROOT
ATOM      1  C   LIG A   1      -7.177  -0.946 128.828  0.00  0.00    +0.138 A 
ATOM      2  C   LIG A   1      -7.765   0.319 128.996  0.00  0.00    +0.107 A 
ATOM      3  C   LIG A   1      -8.371   0.973 127.910  0.00  0.00    +0.153 A 
ATOM      4  C   LIG A   1      -8.450   0.352 126.658  0.00  0.00    +0.060 A 
ATOM      5  C   LIG A   1      -7.852  -0.895 126.496  0.00  0.00    +0.136 A 
ATOM      6  C   LIG A   1      -7.219  -1.533 127.564  0.00  0.00    +0.092 A 
ATOM      7  O   LIG A   1      -7.851  -1.594 125.324  0.00  0.00    -0.481 OA
ATOM      8  C   LIG A   1      -8.243  -0.906 124.122  0.00  0.00    +0.123 C 
ATOM      9  C   LIG A   1      -9.051   0.351 124.338  0.00  0.00    +0.020 C 
ATOM     10  C   LIG A   1      -9.148   0.953 125.527  0.00  0.00    +0.015 C 
ATOM     11  C   LIG A   1      -9.074  -1.924 123.336  0.00  0.00    +0.060 C 
ATOM     12  C   LIG A   1      -6.958  -0.565 123.361  0.00  0.00    +0.060 C 
ATOM     13  O   LIG A   1      -8.912   2.237 128.000  0.00  0.00    -0.454 OA
ATOM     14  C   LIG A   1      -8.526   3.016 129.056  0.00  0.00    +0.143 A 
ATOM     15  C   LIG A   1      -7.976   2.492 130.217  0.00  0.00    +0.068 A 
ATOM     16  C   LIG A   1      -7.765   1.040 130.289  0.00  0.00    +0.204 A 
ATOM     17  O   LIG A   1      -7.614   0.502 131.376  0.00  0.00    -0.286 OA
ATOM     18  C   LIG A   1      -7.632   3.325 131.278  0.00  0.00    +0.065 A 
ATOM     19  C   LIG A   1      -7.820   4.702 131.150  0.00  0.00    +0.175 A 
ATOM     20  C   LIG A   1      -8.400   5.235 129.985  0.00  0.00    +0.177 A 
ATOM     21  C   LIG A   1      -8.752   4.387 128.937  0.00  0.00    +0.097 A 
ENDROOT
BRANCH   1  22
ATOM     22  O   LIG A   1      -6.573  -1.533 129.907  0.00  0.00    -0.494 OA
ATOM     23  C   LIG A   1      -7.025  -2.822 130.306  0.00  0.00    +0.277 C 
ENDBRANCH   1  22
BRANCH  20  24
ATOM     24  O   LIG A   1      -8.703   6.623 129.982  0.00  0.00    -0.422 OA
BRANCH  24  25
ATOM     25  C   LIG A   1      -9.995   7.164 129.929  0.00  0.00    +0.309 C 
ATOM     26  O   LIG A   1     -10.934   6.904 130.667  0.00  0.00    -0.251 OA
ATOM     27  C   LIG A   1     -10.087   8.128 128.785  0.00  0.00    +0.136 C 
ENDBRANCH  24  25
ENDBRANCH  20  24
BRANCH  19  28
ATOM     28  O   LIG A   1      -7.567   5.587 132.223  0.00  0.00    -0.422 OA
BRANCH  28  29
ATOM     29  C   LIG A   1      -8.430   5.706 133.324  0.00  0.00    +0.309 C 
ATOM     30  O   LIG A   1      -9.459   6.356 133.386  0.00  0.00    -0.251 OA
ATOM     31  C   LIG A   1      -7.862   4.916 134.468  0.00  0.00    +0.136 C 
ENDBRANCH  28  29
ENDBRANCH  19  28
TORSDOF 5
ENDMDL
