MODEL 1
REMARK VINA RESULT:      -7.4      0.000      0.000
REMARK  Name = NuBBE_1398
REMARK  17 active torsions:
REMARK  status: ('A' for Active; 'I' for Inactive)
REMARK    1  A    between atoms: C_7  and  C_11
REMARK    2  A    between atoms: C_8  and  O_9
REMARK    3  A    between atoms: O_9  and  C_10
REMARK    4  A    between atoms: C_11  and  C_12
REMARK    5  A    between atoms: C_12  and  C_13
REMARK    6  A    between atoms: C_13  and  C_14
REMARK    7  A    between atoms: C_14  and  C_15
REMARK    8  A    between atoms: C_15  and  C_16
REMARK    9  A    between atoms: C_16  and  C_17
REMARK   10  A    between atoms: C_17  and  C_18
REMARK   11  A    between atoms: C_18  and  C_19
REMARK   12  A    between atoms: C_19  and  C_20
REMARK   13  A    between atoms: C_20  and  C_21
REMARK   14  A    between atoms: C_21  and  C_22
REMARK   15  A    between atoms: C_22  and  C_23
REMARK   16  A    between atoms: C_22  and  C_24
REMARK   17  A    between atoms: C_22  and  O_25
REMARK                            x       y       z     vdW  Elec       q    Type
REMARK                         _______ _______ _______ _____ _____    ______ ____
ROOT
ATOM      1  C   LIG A   1      -9.271   1.981 123.732  0.00  0.00    +0.057 C 
ENDROOT
BRANCH   1   8
ATOM      2  O   LIG A   1      -4.879   4.307 123.320  0.00  0.00    -0.283 OA
ATOM      3  C   LIG A   1      -5.877   3.904 122.827  0.00  0.00    +0.231 A 
ATOM      4  C   LIG A   1      -6.190   4.163 121.419  0.00  0.00    +0.049 A 
ATOM      5  C   LIG A   1      -7.451   3.816 120.931  0.00  0.00    +0.051 A 
ATOM      6  N   LIG A   1      -8.381   3.166 121.755  0.00  0.00    -0.355 N 
ATOM      7  H   LIG A   1      -9.257   2.877 121.337  0.00  0.00    +0.166 HD
ATOM      8  C   LIG A   1      -8.096   2.770 123.067  0.00  0.00    +0.062 A 
ATOM      9  C   LIG A   1      -6.867   3.060 123.589  0.00  0.00    +0.186 A 
ATOM     10  C   LIG A   1      -7.765   4.182 119.622  0.00  0.00    +0.026 A 
ATOM     11  C   LIG A   1      -6.811   4.828 118.826  0.00  0.00    +0.002 A 
ATOM     12  C   LIG A   1      -5.531   5.098 119.311  0.00  0.00    +0.001 A 
ATOM     13  C   LIG A   1      -5.216   4.763 120.625  0.00  0.00    +0.014 A 
BRANCH   9  14
ATOM     14  O   LIG A   1      -6.243   2.658 124.728  0.00  0.00    -0.490 OA
ATOM     15  C   LIG A   1      -6.694   3.204 125.919  0.00  0.00    +0.277 C 
ENDBRANCH   9  14
ENDBRANCH   1   8
BRANCH   1  16
ATOM     16  C   LIG A   1      -9.245   0.415 124.062  0.00  0.00    +0.006 C 
BRANCH  16  17
ATOM     17  C   LIG A   1      -8.176  -0.467 123.428  0.00  0.00    +0.000 C 
BRANCH  17  18
ATOM     18  C   LIG A   1      -8.217  -1.845 122.809  0.00  0.00    +0.000 C 
BRANCH  18  19
ATOM     19  C   LIG A   1      -9.168  -2.822 123.620  0.00  0.00    -0.000 C 
BRANCH  19  20
ATOM     20  C   LIG A   1      -8.690  -3.567 124.912  0.00  0.00    -0.000 C 
BRANCH  20  21
ATOM     21  C   LIG A   1      -9.009  -2.874 126.236  0.00  0.00    -0.000 C 
BRANCH  21  22
ATOM     22  C   LIG A   1      -9.057  -3.821 127.435  0.00  0.00    -0.000 C 
BRANCH  22  23
ATOM     23  C   LIG A   1      -8.331  -3.388 128.694  0.00  0.00    +0.000 C 
BRANCH  23  24
ATOM     24  C   LIG A   1      -6.904  -2.902 128.388  0.00  0.00    +0.003 C 
BRANCH  24  25
ATOM     25  C   LIG A   1      -5.908  -3.234 129.511  0.00  0.00    +0.034 C 
BRANCH  25  26
ATOM     26  C   LIG A   1      -4.514  -2.570 129.366  0.00  0.00    +0.060 C 
ATOM     27  C   LIG A   1      -4.068  -1.842 130.638  0.00  0.00    +0.041 C 
ATOM     28  C   LIG A   1      -3.434  -3.594 128.982  0.00  0.00    +0.041 C 
BRANCH  26  29
ATOM     29  O   LIG A   1      -4.586  -1.611 128.306  0.00  0.00    -0.389 OA
ATOM     30  H   LIG A   1      -4.179  -0.785 128.620  0.00  0.00    +0.210 HD
ENDBRANCH  26  29
ENDBRANCH  25  26
ENDBRANCH  24  25
ENDBRANCH  23  24
ENDBRANCH  22  23
ENDBRANCH  21  22
ENDBRANCH  20  21
ENDBRANCH  19  20
ENDBRANCH  18  19
ENDBRANCH  17  18
ENDBRANCH  16  17
ENDBRANCH   1  16
TORSDOF 14
ENDMDL
MODEL 2
REMARK VINA RESULT:      -7.1      6.810     10.047
REMARK  Name = NuBBE_1398
REMARK  17 active torsions:
REMARK  status: ('A' for Active; 'I' for Inactive)
REMARK    1  A    between atoms: C_7  and  C_11
REMARK    2  A    between atoms: C_8  and  O_9
REMARK    3  A    between atoms: O_9  and  C_10
REMARK    4  A    between atoms: C_11  and  C_12
REMARK    5  A    between atoms: C_12  and  C_13
REMARK    6  A    between atoms: C_13  and  C_14
REMARK    7  A    between atoms: C_14  and  C_15
REMARK    8  A    between atoms: C_15  and  C_16
REMARK    9  A    between atoms: C_16  and  C_17
REMARK   10  A    between atoms: C_17  and  C_18
REMARK   11  A    between atoms: C_18  and  C_19
REMARK   12  A    between atoms: C_19  and  C_20
REMARK   13  A    between atoms: C_20  and  C_21
REMARK   14  A    between atoms: C_21  and  C_22
REMARK   15  A    between atoms: C_22  and  C_23
REMARK   16  A    between atoms: C_22  and  C_24
REMARK   17  A    between atoms: C_22  and  O_25
REMARK                            x       y       z     vdW  Elec       q    Type
REMARK                         _______ _______ _______ _____ _____    ______ ____
ROOT
ATOM      1  C   LIG A   1      -8.228   4.198 129.972  0.00  0.00    +0.057 C 
ENDROOT
BRANCH   1   8
ATOM      2  O   LIG A   1     -11.963   6.536 132.309  0.00  0.00    -0.283 OA
ATOM      3  C   LIG A   1     -11.266   6.407 131.361  0.00  0.00    +0.231 A 
ATOM      4  C   LIG A   1     -11.481   7.197 130.144  0.00  0.00    +0.049 A 
ATOM      5  C   LIG A   1     -10.745   6.890 128.999  0.00  0.00    +0.051 A 
ATOM      6  N   LIG A   1      -9.764   5.889 129.028  0.00  0.00    -0.355 N 
ATOM      7  H   LIG A   1      -9.212   5.747 128.191  0.00  0.00    +0.166 HD
ATOM      8  C   LIG A   1      -9.415   5.191 130.191  0.00  0.00    +0.062 A 
ATOM      9  C   LIG A   1     -10.085   5.469 131.350  0.00  0.00    +0.186 A 
ATOM     10  C   LIG A   1     -11.055   7.575 127.824  0.00  0.00    +0.026 A 
ATOM     11  C   LIG A   1     -12.039   8.572 127.831  0.00  0.00    +0.002 A 
ATOM     12  C   LIG A   1     -12.710   8.913 129.006  0.00  0.00    +0.001 A 
ATOM     13  C   LIG A   1     -12.430   8.216 130.178  0.00  0.00    +0.014 A 
BRANCH   9  14
ATOM     14  O   LIG A   1      -9.861   5.109 132.641  0.00  0.00    -0.490 OA
ATOM     15  C   LIG A   1      -8.746   5.651 133.260  0.00  0.00    +0.277 C 
ENDBRANCH   9  14
ENDBRANCH   1   8
BRANCH   1  16
ATOM     16  C   LIG A   1      -6.746   4.629 129.550  0.00  0.00    +0.006 C 
BRANCH  16  17
ATOM     17  C   LIG A   1      -5.832   5.281 130.581  0.00  0.00    +0.000 C 
BRANCH  17  18
ATOM     18  C   LIG A   1      -5.598   6.719 130.982  0.00  0.00    +0.000 C 
BRANCH  18  19
ATOM     19  C   LIG A   1      -4.413   6.849 132.028  0.00  0.00    -0.000 C 
BRANCH  19  20
ATOM     20  C   LIG A   1      -3.150   7.731 131.750  0.00  0.00    -0.000 C 
BRANCH  20  21
ATOM     21  C   LIG A   1      -1.843   6.973 131.526  0.00  0.00    -0.000 C 
BRANCH  21  22
ATOM     22  C   LIG A   1      -1.866   6.042 130.313  0.00  0.00    -0.000 C 
BRANCH  22  23
ATOM     23  C   LIG A   1      -2.126   6.671 128.958  0.00  0.00    +0.000 C 
BRANCH  23  24
ATOM     24  C   LIG A   1      -2.973   5.755 128.060  0.00  0.00    +0.003 C 
BRANCH  24  25
ATOM     25  C   LIG A   1      -2.944   4.285 128.512  0.00  0.00    +0.034 C 
BRANCH  25  26
ATOM     26  C   LIG A   1      -3.040   3.246 127.364  0.00  0.00    +0.060 C 
ATOM     27  C   LIG A   1      -4.073   3.631 126.301  0.00  0.00    +0.041 C 
ATOM     28  C   LIG A   1      -1.682   3.034 126.675  0.00  0.00    +0.041 C 
BRANCH  26  29
ATOM     29  O   LIG A   1      -3.429   1.991 127.931  0.00  0.00    -0.389 OA
ATOM     30  H   LIG A   1      -2.849   1.812 128.691  0.00  0.00    +0.210 HD
ENDBRANCH  26  29
ENDBRANCH  25  26
ENDBRANCH  24  25
ENDBRANCH  23  24
ENDBRANCH  22  23
ENDBRANCH  21  22
ENDBRANCH  20  21
ENDBRANCH  19  20
ENDBRANCH  18  19
ENDBRANCH  17  18
ENDBRANCH  16  17
ENDBRANCH   1  16
TORSDOF 14
ENDMDL
MODEL 3
REMARK VINA RESULT:      -7.1      5.974      8.608
REMARK  Name = NuBBE_1398
REMARK  17 active torsions:
REMARK  status: ('A' for Active; 'I' for Inactive)
REMARK    1  A    between atoms: C_7  and  C_11
REMARK    2  A    between atoms: C_8  and  O_9
REMARK    3  A    between atoms: O_9  and  C_10
REMARK    4  A    between atoms: C_11  and  C_12
REMARK    5  A    between atoms: C_12  and  C_13
REMARK    6  A    between atoms: C_13  and  C_14
REMARK    7  A    between atoms: C_14  and  C_15
REMARK    8  A    between atoms: C_15  and  C_16
REMARK    9  A    between atoms: C_16  and  C_17
REMARK   10  A    between atoms: C_17  and  C_18
REMARK   11  A    between atoms: C_18  and  C_19
REMARK   12  A    between atoms: C_19  and  C_20
REMARK   13  A    between atoms: C_20  and  C_21
REMARK   14  A    between atoms: C_21  and  C_22
REMARK   15  A    between atoms: C_22  and  C_23
REMARK   16  A    between atoms: C_22  and  C_24
REMARK   17  A    between atoms: C_22  and  O_25
REMARK                            x       y       z     vdW  Elec       q    Type
REMARK                         _______ _______ _______ _____ _____    ______ ____
ROOT
ATOM      1  C   LIG A   1      -9.262   3.940 133.501  0.00  0.00    +0.057 C 
ENDROOT
BRANCH   1   8
ATOM      2  O   LIG A   1      -7.810   7.480 130.301  0.00  0.00    -0.283 OA
ATOM      3  C   LIG A   1      -8.668   6.821 130.784  0.00  0.00    +0.231 A 
ATOM      4  C   LIG A   1     -10.077   7.037 130.444  0.00  0.00    +0.049 A 
ATOM      5  C   LIG A   1     -11.060   6.355 131.163  0.00  0.00    +0.051 A 
ATOM      6  N   LIG A   1     -10.704   5.423 132.149  0.00  0.00    -0.355 N 
ATOM      7  H   LIG A   1     -11.450   4.906 132.598  0.00  0.00    +0.166 HD
ATOM      8  C   LIG A   1      -9.378   5.070 132.428  0.00  0.00    +0.062 A 
ATOM      9  C   LIG A   1      -8.374   5.688 131.735  0.00  0.00    +0.186 A 
ATOM     10  C   LIG A   1     -12.393   6.669 130.902  0.00  0.00    +0.026 A 
ATOM     11  C   LIG A   1     -12.713   7.603 129.909  0.00  0.00    +0.002 A 
ATOM     12  C   LIG A   1     -11.716   8.218 129.151  0.00  0.00    +0.001 A 
ATOM     13  C   LIG A   1     -10.380   7.934 129.423  0.00  0.00    +0.014 A 
BRANCH   9  14
ATOM     14  O   LIG A   1      -7.041   5.439 131.647  0.00  0.00    -0.490 OA
ATOM     15  C   LIG A   1      -6.266   5.764 132.748  0.00  0.00    +0.277 C 
ENDBRANCH   9  14
ENDBRANCH   1   8
BRANCH   1  16
ATOM     16  C   LIG A   1      -8.669   2.480 133.226  0.00  0.00    +0.006 C 
BRANCH  16  17
ATOM     17  C   LIG A   1      -9.289   1.610 132.139  0.00  0.00    +0.000 C 
BRANCH  17  18
ATOM     18  C   LIG A   1      -8.952   0.238 131.605  0.00  0.00    +0.000 C 
BRANCH  18  19
ATOM     19  C   LIG A   1      -7.385   0.016 131.510  0.00  0.00    -0.000 C 
BRANCH  19  20
ATOM     20  C   LIG A   1      -6.763  -1.307 130.951  0.00  0.00    -0.000 C 
BRANCH  20  21
ATOM     21  C   LIG A   1      -7.759  -2.397 130.557  0.00  0.00    -0.000 C 
BRANCH  21  22
ATOM     22  C   LIG A   1      -7.461  -3.050 129.207  0.00  0.00    -0.000 C 
BRANCH  22  23
ATOM     23  C   LIG A   1      -8.159  -2.480 127.988  0.00  0.00    +0.000 C 
BRANCH  23  24
ATOM     24  C   LIG A   1      -8.764  -3.588 127.110  0.00  0.00    +0.003 C 
BRANCH  24  25
ATOM     25  C   LIG A   1      -9.533  -3.035 125.899  0.00  0.00    +0.034 C 
BRANCH  25  26
ATOM     26  C   LIG A   1      -8.704  -2.928 124.592  0.00  0.00    +0.060 C 
ATOM     27  C   LIG A   1      -7.541  -3.923 124.545  0.00  0.00    +0.041 C 
ATOM     28  C   LIG A   1      -9.579  -3.138 123.345  0.00  0.00    +0.041 C 
BRANCH  26  29
ATOM     29  O   LIG A   1      -8.163  -1.606 124.514  0.00  0.00    -0.389 OA
ATOM     30  H   LIG A   1      -7.438  -1.616 123.865  0.00  0.00    +0.210 HD
ENDBRANCH  26  29
ENDBRANCH  25  26
ENDBRANCH  24  25
ENDBRANCH  23  24
ENDBRANCH  22  23
ENDBRANCH  21  22
ENDBRANCH  20  21
ENDBRANCH  19  20
ENDBRANCH  18  19
ENDBRANCH  17  18
ENDBRANCH  16  17
ENDBRANCH   1  16
TORSDOF 14
ENDMDL
MODEL 4
REMARK VINA RESULT:      -7.1      2.020      3.164
REMARK  Name = NuBBE_1398
REMARK  17 active torsions:
REMARK  status: ('A' for Active; 'I' for Inactive)
REMARK    1  A    between atoms: C_7  and  C_11
REMARK    2  A    between atoms: C_8  and  O_9
REMARK    3  A    between atoms: O_9  and  C_10
REMARK    4  A    between atoms: C_11  and  C_12
REMARK    5  A    between atoms: C_12  and  C_13
REMARK    6  A    between atoms: C_13  and  C_14
REMARK    7  A    between atoms: C_14  and  C_15
REMARK    8  A    between atoms: C_15  and  C_16
REMARK    9  A    between atoms: C_16  and  C_17
REMARK   10  A    between atoms: C_17  and  C_18
REMARK   11  A    between atoms: C_18  and  C_19
REMARK   12  A    between atoms: C_19  and  C_20
REMARK   13  A    between atoms: C_20  and  C_21
REMARK   14  A    between atoms: C_21  and  C_22
REMARK   15  A    between atoms: C_22  and  C_23
REMARK   16  A    between atoms: C_22  and  C_24
REMARK   17  A    between atoms: C_22  and  O_25
REMARK                            x       y       z     vdW  Elec       q    Type
REMARK                         _______ _______ _______ _____ _____    ______ ____
ROOT
ATOM      1  C   LIG A   1      -6.165   2.912 126.015  0.00  0.00    +0.057 C 
ENDROOT
BRANCH   1   8
ATOM      2  O   LIG A   1      -9.406   2.523 122.243  0.00  0.00    -0.283 OA
ATOM      3  C   LIG A   1      -8.366   2.897 122.669  0.00  0.00    +0.231 A 
ATOM      4  C   LIG A   1      -7.375   3.541 121.802  0.00  0.00    +0.049 A 
ATOM      5  C   LIG A   1      -6.103   3.809 122.310  0.00  0.00    +0.051 A 
ATOM      6  N   LIG A   1      -5.798   3.532 123.651  0.00  0.00    -0.355 N 
ATOM      7  H   LIG A   1      -4.883   3.804 123.990  0.00  0.00    +0.166 HD
ATOM      8  C   LIG A   1      -6.738   3.043 124.566  0.00  0.00    +0.062 A 
ATOM      9  C   LIG A   1      -8.008   2.787 124.130  0.00  0.00    +0.186 A 
ATOM     10  C   LIG A   1      -5.144   4.311 121.431  0.00  0.00    +0.026 A 
ATOM     11  C   LIG A   1      -5.484   4.578 120.099  0.00  0.00    +0.002 A 
ATOM     12  C   LIG A   1      -6.782   4.373 119.632  0.00  0.00    +0.001 A 
ATOM     13  C   LIG A   1      -7.741   3.845 120.493  0.00  0.00    +0.014 A 
BRANCH   9  14
ATOM     14  O   LIG A   1      -9.157   2.495 124.793  0.00  0.00    -0.490 OA
ATOM     15  C   LIG A   1      -9.305   1.196 125.255  0.00  0.00    +0.277 C 
ENDBRANCH   9  14
ENDBRANCH   1   8
BRANCH   1  16
ATOM     16  C   LIG A   1      -5.233   1.714 126.520  0.00  0.00    +0.006 C 
BRANCH  16  17
ATOM     17  C   LIG A   1      -5.310   0.359 125.827  0.00  0.00    +0.000 C 
BRANCH  17  18
ATOM     18  C   LIG A   1      -6.469  -0.519 125.417  0.00  0.00    +0.000 C 
BRANCH  18  19
ATOM     19  C   LIG A   1      -6.250  -1.143 123.976  0.00  0.00    -0.000 C 
BRANCH  19  20
ATOM     20  C   LIG A   1      -5.879  -2.650 123.768  0.00  0.00    -0.000 C 
BRANCH  20  21
ATOM     21  C   LIG A   1      -6.773  -3.661 124.484  0.00  0.00    -0.000 C 
BRANCH  21  22
ATOM     22  C   LIG A   1      -8.252  -3.554 124.113  0.00  0.00    -0.000 C 
BRANCH  22  23
ATOM     23  C   LIG A   1      -9.209  -3.090 125.194  0.00  0.00    +0.000 C 
BRANCH  23  24
ATOM     24  C   LIG A   1      -8.680  -3.419 126.600  0.00  0.00    +0.003 C 
BRANCH  24  25
ATOM     25  C   LIG A   1      -8.463  -2.166 127.463  0.00  0.00    +0.034 C 
BRANCH  25  26
ATOM     26  C   LIG A   1      -7.443  -2.336 128.619  0.00  0.00    +0.060 C 
ATOM     27  C   LIG A   1      -7.387  -1.117 129.545  0.00  0.00    +0.041 C 
ATOM     28  C   LIG A   1      -7.747  -3.583 129.466  0.00  0.00    +0.041 C 
BRANCH  26  29
ATOM     29  O   LIG A   1      -6.145  -2.519 128.044  0.00  0.00    -0.389 OA
ATOM     30  H   LIG A   1      -6.263  -2.810 127.123  0.00  0.00    +0.210 HD
ENDBRANCH  26  29
ENDBRANCH  25  26
ENDBRANCH  24  25
ENDBRANCH  23  24
ENDBRANCH  22  23
ENDBRANCH  21  22
ENDBRANCH  20  21
ENDBRANCH  19  20
ENDBRANCH  18  19
ENDBRANCH  17  18
ENDBRANCH  16  17
ENDBRANCH   1  16
TORSDOF 14
ENDMDL
MODEL 5
REMARK VINA RESULT:      -7.1      5.488      8.246
REMARK  Name = NuBBE_1398
REMARK  17 active torsions:
REMARK  status: ('A' for Active; 'I' for Inactive)
REMARK    1  A    between atoms: C_7  and  C_11
REMARK    2  A    between atoms: C_8  and  O_9
REMARK    3  A    between atoms: O_9  and  C_10
REMARK    4  A    between atoms: C_11  and  C_12
REMARK    5  A    between atoms: C_12  and  C_13
REMARK    6  A    between atoms: C_13  and  C_14
REMARK    7  A    between atoms: C_14  and  C_15
REMARK    8  A    between atoms: C_15  and  C_16
REMARK    9  A    between atoms: C_16  and  C_17
REMARK   10  A    between atoms: C_17  and  C_18
REMARK   11  A    between atoms: C_18  and  C_19
REMARK   12  A    between atoms: C_19  and  C_20
REMARK   13  A    between atoms: C_20  and  C_21
REMARK   14  A    between atoms: C_21  and  C_22
REMARK   15  A    between atoms: C_22  and  C_23
REMARK   16  A    between atoms: C_22  and  C_24
REMARK   17  A    between atoms: C_22  and  O_25
REMARK                            x       y       z     vdW  Elec       q    Type
REMARK                         _______ _______ _______ _____ _____    ______ ____
ROOT
ATOM      1  C   LIG A   1      -9.256   3.428 132.279  0.00  0.00    +0.057 C 
ENDROOT
BRANCH   1   8
ATOM      2  O   LIG A   1      -9.301   6.161 128.107  0.00  0.00    -0.283 OA
ATOM      3  C   LIG A   1      -9.787   5.864 129.145  0.00  0.00    +0.231 A 
ATOM      4  C   LIG A   1     -10.958   6.574 129.669  0.00  0.00    +0.049 A 
ATOM      5  C   LIG A   1     -11.388   6.303 130.969  0.00  0.00    +0.051 A 
ATOM      6  N   LIG A   1     -10.755   5.317 131.739  0.00  0.00    -0.355 N 
ATOM      7  H   LIG A   1     -11.144   5.112 132.651  0.00  0.00    +0.166 HD
ATOM      8  C   LIG A   1      -9.720   4.511 131.250  0.00  0.00    +0.062 A 
ATOM      9  C   LIG A   1      -9.275   4.713 129.974  0.00  0.00    +0.186 A 
ATOM     10  C   LIG A   1     -12.428   7.077 131.484  0.00  0.00    +0.026 A 
ATOM     11  C   LIG A   1     -13.039   8.052 130.687  0.00  0.00    +0.002 A 
ATOM     12  C   LIG A   1     -12.642   8.254 129.364  0.00  0.00    +0.001 A 
ATOM     13  C   LIG A   1     -11.586   7.507 128.848  0.00  0.00    +0.014 A 
BRANCH   9  14
ATOM     14  O   LIG A   1      -8.442   3.996 129.175  0.00  0.00    -0.490 OA
ATOM     15  C   LIG A   1      -8.857   2.724 128.815  0.00  0.00    +0.277 C 
ENDBRANCH   9  14
ENDBRANCH   1   8
BRANCH   1  16
ATOM     16  C   LIG A   1      -9.747   1.905 132.281  0.00  0.00    +0.006 C 
BRANCH  16  17
ATOM     17  C   LIG A   1      -8.721   0.786 132.145  0.00  0.00    +0.000 C 
BRANCH  17  18
ATOM     18  C   LIG A   1      -8.322  -0.106 130.992  0.00  0.00    +0.000 C 
BRANCH  18  19
ATOM     19  C   LIG A   1      -7.639  -1.445 131.499  0.00  0.00    -0.000 C 
BRANCH  19  20
ATOM     20  C   LIG A   1      -7.458  -2.691 130.568  0.00  0.00    -0.000 C 
BRANCH  20  21
ATOM     21  C   LIG A   1      -7.940  -2.523 129.128  0.00  0.00    -0.000 C 
BRANCH  21  22
ATOM     22  C   LIG A   1      -8.660  -3.750 128.568  0.00  0.00    -0.000 C 
BRANCH  22  23
ATOM     23  C   LIG A   1      -9.000  -3.743 127.090  0.00  0.00    +0.000 C 
BRANCH  23  24
ATOM     24  C   LIG A   1      -8.766  -2.359 126.461  0.00  0.00    +0.003 C 
BRANCH  24  25
ATOM     25  C   LIG A   1      -7.868  -2.416 125.214  0.00  0.00    +0.034 C 
BRANCH  25  26
ATOM     26  C   LIG A   1      -8.597  -2.152 123.870  0.00  0.00    +0.060 C 
ATOM     27  C   LIG A   1      -7.629  -1.888 122.713  0.00  0.00    +0.041 C 
ATOM     28  C   LIG A   1      -9.517  -3.321 123.484  0.00  0.00    +0.041 C 
BRANCH  26  29
ATOM     29  O   LIG A   1      -9.424  -0.995 124.032  0.00  0.00    -0.389 OA
ATOM     30  H   LIG A   1      -9.710  -0.958 124.962  0.00  0.00    +0.210 HD
ENDBRANCH  26  29
ENDBRANCH  25  26
ENDBRANCH  24  25
ENDBRANCH  23  24
ENDBRANCH  22  23
ENDBRANCH  21  22
ENDBRANCH  20  21
ENDBRANCH  19  20
ENDBRANCH  18  19
ENDBRANCH  17  18
ENDBRANCH  16  17
ENDBRANCH   1  16
TORSDOF 14
ENDMDL
MODEL 6
REMARK VINA RESULT:      -7.0      5.999      9.865
REMARK  Name = NuBBE_1398
REMARK  17 active torsions:
REMARK  status: ('A' for Active; 'I' for Inactive)
REMARK    1  A    between atoms: C_7  and  C_11
REMARK    2  A    between atoms: C_8  and  O_9
REMARK    3  A    between atoms: O_9  and  C_10
REMARK    4  A    between atoms: C_11  and  C_12
REMARK    5  A    between atoms: C_12  and  C_13
REMARK    6  A    between atoms: C_13  and  C_14
REMARK    7  A    between atoms: C_14  and  C_15
REMARK    8  A    between atoms: C_15  and  C_16
REMARK    9  A    between atoms: C_16  and  C_17
REMARK   10  A    between atoms: C_17  and  C_18
REMARK   11  A    between atoms: C_18  and  C_19
REMARK   12  A    between atoms: C_19  and  C_20
REMARK   13  A    between atoms: C_20  and  C_21
REMARK   14  A    between atoms: C_21  and  C_22
REMARK   15  A    between atoms: C_22  and  C_23
REMARK   16  A    between atoms: C_22  and  C_24
REMARK   17  A    between atoms: C_22  and  O_25
REMARK                            x       y       z     vdW  Elec       q    Type
REMARK                         _______ _______ _______ _____ _____    ______ ____
ROOT
ATOM      1  C   LIG A   1      -7.476   6.699 131.455  0.00  0.00    +0.057 C 
ENDROOT
BRANCH   1   8
ATOM      2  O   LIG A   1     -11.527   4.115 130.118  0.00  0.00    -0.283 OA
ATOM      3  C   LIG A   1     -10.937   5.139 130.178  0.00  0.00    +0.231 A 
ATOM      4  C   LIG A   1     -11.465   6.361 129.565  0.00  0.00    +0.049 A 
ATOM      5  C   LIG A   1     -10.658   7.498 129.514  0.00  0.00    +0.051 A 
ATOM      6  N   LIG A   1      -9.385   7.496 130.103  0.00  0.00    -0.355 N 
ATOM      7  H   LIG A   1      -8.864   8.364 130.097  0.00  0.00    +0.166 HD
ATOM      8  C   LIG A   1      -8.875   6.407 130.821  0.00  0.00    +0.062 A 
ATOM      9  C   LIG A   1      -9.634   5.276 130.926  0.00  0.00    +0.186 A 
ATOM     10  C   LIG A   1     -11.140   8.607 128.819  0.00  0.00    +0.026 A 
ATOM     11  C   LIG A   1     -12.416   8.577 128.245  0.00  0.00    +0.002 A 
ATOM     12  C   LIG A   1     -13.236   7.455 128.372  0.00  0.00    +0.001 A 
ATOM     13  C   LIG A   1     -12.755   6.331 129.039  0.00  0.00    +0.014 A 
BRANCH   9  14
ATOM     14  O   LIG A   1      -9.502   4.157 131.687  0.00  0.00    -0.490 OA
ATOM     15  C   LIG A   1      -8.492   3.274 131.338  0.00  0.00    +0.277 C 
ENDBRANCH   9  14
ENDBRANCH   1   8
BRANCH   1  16
ATOM     16  C   LIG A   1      -6.076   6.281 130.803  0.00  0.00    +0.006 C 
BRANCH  16  17
ATOM     17  C   LIG A   1      -4.807   7.018 131.215  0.00  0.00    +0.000 C 
BRANCH  17  18
ATOM     18  C   LIG A   1      -3.843   7.903 130.460  0.00  0.00    +0.000 C 
BRANCH  18  19
ATOM     19  C   LIG A   1      -3.731   7.479 128.936  0.00  0.00    -0.000 C 
BRANCH  19  20
ATOM     20  C   LIG A   1      -2.445   6.803 128.352  0.00  0.00    -0.000 C 
BRANCH  20  21
ATOM     21  C   LIG A   1      -2.616   5.372 127.845  0.00  0.00    -0.000 C 
BRANCH  21  22
ATOM     22  C   LIG A   1      -3.919   4.708 128.290  0.00  0.00    -0.000 C 
BRANCH  22  23
ATOM     23  C   LIG A   1      -5.015   4.561 127.253  0.00  0.00    +0.000 C 
BRANCH  23  24
ATOM     24  C   LIG A   1      -4.498   3.884 125.972  0.00  0.00    +0.003 C 
BRANCH  24  25
ATOM     25  C   LIG A   1      -5.551   2.982 125.309  0.00  0.00    +0.034 C 
BRANCH  25  26
ATOM     26  C   LIG A   1      -6.243   3.593 124.062  0.00  0.00    +0.060 C 
ATOM     27  C   LIG A   1      -5.282   4.404 123.188  0.00  0.00    +0.041 C 
ATOM     28  C   LIG A   1      -6.904   2.511 123.191  0.00  0.00    +0.041 C 
BRANCH  26  29
ATOM     29  O   LIG A   1      -7.282   4.468 124.513  0.00  0.00    -0.389 OA
ATOM     30  H   LIG A   1      -7.556   5.022 123.762  0.00  0.00    +0.210 HD
ENDBRANCH  26  29
ENDBRANCH  25  26
ENDBRANCH  24  25
ENDBRANCH  23  24
ENDBRANCH  22  23
ENDBRANCH  21  22
ENDBRANCH  20  21
ENDBRANCH  19  20
ENDBRANCH  18  19
ENDBRANCH  17  18
ENDBRANCH  16  17
ENDBRANCH   1  16
TORSDOF 14
ENDMDL
MODEL 7
REMARK VINA RESULT:      -6.8      7.916     10.679
REMARK  Name = NuBBE_1398
REMARK  17 active torsions:
REMARK  status: ('A' for Active; 'I' for Inactive)
REMARK    1  A    between atoms: C_7  and  C_11
REMARK    2  A    between atoms: C_8  and  O_9
REMARK    3  A    between atoms: O_9  and  C_10
REMARK    4  A    between atoms: C_11  and  C_12
REMARK    5  A    between atoms: C_12  and  C_13
REMARK    6  A    between atoms: C_13  and  C_14
REMARK    7  A    between atoms: C_14  and  C_15
REMARK    8  A    between atoms: C_15  and  C_16
REMARK    9  A    between atoms: C_16  and  C_17
REMARK   10  A    between atoms: C_17  and  C_18
REMARK   11  A    between atoms: C_18  and  C_19
REMARK   12  A    between atoms: C_19  and  C_20
REMARK   13  A    between atoms: C_20  and  C_21
REMARK   14  A    between atoms: C_21  and  C_22
REMARK   15  A    between atoms: C_22  and  C_23
REMARK   16  A    between atoms: C_22  and  C_24
REMARK   17  A    between atoms: C_22  and  O_25
REMARK                            x       y       z     vdW  Elec       q    Type
REMARK                         _______ _______ _______ _____ _____    ______ ____
ROOT
ATOM      1  C   LIG A   1      -9.438   3.876 133.524  0.00  0.00    +0.057 C 
ENDROOT
BRANCH   1   8
ATOM      2  O   LIG A   1      -8.826   5.579 128.876  0.00  0.00    -0.283 OA
ATOM      3  C   LIG A   1      -9.460   5.525 129.874  0.00  0.00    +0.231 A 
ATOM      4  C   LIG A   1     -10.675   6.327 130.051  0.00  0.00    +0.049 A 
ATOM      5  C   LIG A   1     -11.290   6.359 131.303  0.00  0.00    +0.051 A 
ATOM      6  N   LIG A   1     -10.797   5.580 132.359  0.00  0.00    -0.355 N 
ATOM      7  H   LIG A   1     -11.316   5.587 133.230  0.00  0.00    +0.166 HD
ATOM      8  C   LIG A   1      -9.724   4.691 132.221  0.00  0.00    +0.062 A 
ATOM      9  C   LIG A   1      -9.100   4.599 131.009  0.00  0.00    +0.186 A 
ATOM     10  C   LIG A   1     -12.371   7.222 131.474  0.00  0.00    +0.026 A 
ATOM     11  C   LIG A   1     -12.840   7.984 130.396  0.00  0.00    +0.002 A 
ATOM     12  C   LIG A   1     -12.256   7.880 129.133  0.00  0.00    +0.001 A 
ATOM     13  C   LIG A   1     -11.157   7.043 128.957  0.00  0.00    +0.014 A 
BRANCH   9  14
ATOM     14  O   LIG A   1      -8.181   3.723 130.522  0.00  0.00    -0.490 OA
ATOM     15  C   LIG A   1      -8.617   2.434 130.261  0.00  0.00    +0.277 C 
ENDBRANCH   9  14
ENDBRANCH   1   8
BRANCH   1  16
ATOM     16  C   LIG A   1      -8.199   4.132 134.504  0.00  0.00    +0.006 C 
BRANCH  16  17
ATOM     17  C   LIG A   1      -6.790   3.779 134.040  0.00  0.00    +0.000 C 
BRANCH  17  18
ATOM     18  C   LIG A   1      -5.838   4.429 133.063  0.00  0.00    +0.000 C 
BRANCH  18  19
ATOM     19  C   LIG A   1      -6.142   5.976 132.893  0.00  0.00    -0.000 C 
BRANCH  19  20
ATOM     20  C   LIG A   1      -6.200   6.663 131.487  0.00  0.00    -0.000 C 
BRANCH  20  21
ATOM     21  C   LIG A   1      -5.396   5.984 130.380  0.00  0.00    -0.000 C 
BRANCH  21  22
ATOM     22  C   LIG A   1      -4.105   6.717 130.013  0.00  0.00    -0.000 C 
BRANCH  22  23
ATOM     23  C   LIG A   1      -3.648   7.827 130.938  0.00  0.00    +0.000 C 
BRANCH  23  24
ATOM     24  C   LIG A   1      -2.423   7.406 131.768  0.00  0.00    +0.003 C 
BRANCH  24  25
ATOM     25  C   LIG A   1      -2.690   7.432 133.282  0.00  0.00    +0.034 C 
BRANCH  25  26
ATOM     26  C   LIG A   1      -2.262   6.151 134.044  0.00  0.00    +0.060 C 
ATOM     27  C   LIG A   1      -3.203   5.809 135.203  0.00  0.00    +0.041 C 
ATOM     28  C   LIG A   1      -2.176   4.935 133.107  0.00  0.00    +0.041 C 
BRANCH  26  29
ATOM     29  O   LIG A   1      -0.953   6.368 134.580  0.00  0.00    -0.389 OA
ATOM     30  H   LIG A   1      -1.049   6.847 135.422  0.00  0.00    +0.210 HD
ENDBRANCH  26  29
ENDBRANCH  25  26
ENDBRANCH  24  25
ENDBRANCH  23  24
ENDBRANCH  22  23
ENDBRANCH  21  22
ENDBRANCH  20  21
ENDBRANCH  19  20
ENDBRANCH  18  19
ENDBRANCH  17  18
ENDBRANCH  16  17
ENDBRANCH   1  16
TORSDOF 14
ENDMDL
MODEL 8
REMARK VINA RESULT:      -6.8      5.760      7.892
REMARK  Name = NuBBE_1398
REMARK  17 active torsions:
REMARK  status: ('A' for Active; 'I' for Inactive)
REMARK    1  A    between atoms: C_7  and  C_11
REMARK    2  A    between atoms: C_8  and  O_9
REMARK    3  A    between atoms: O_9  and  C_10
REMARK    4  A    between atoms: C_11  and  C_12
REMARK    5  A    between atoms: C_12  and  C_13
REMARK    6  A    between atoms: C_13  and  C_14
REMARK    7  A    between atoms: C_14  and  C_15
REMARK    8  A    between atoms: C_15  and  C_16
REMARK    9  A    between atoms: C_16  and  C_17
REMARK   10  A    between atoms: C_17  and  C_18
REMARK   11  A    between atoms: C_18  and  C_19
REMARK   12  A    between atoms: C_19  and  C_20
REMARK   13  A    between atoms: C_20  and  C_21
REMARK   14  A    between atoms: C_21  and  C_22
REMARK   15  A    between atoms: C_22  and  C_23
REMARK   16  A    between atoms: C_22  and  C_24
REMARK   17  A    between atoms: C_22  and  O_25
REMARK                            x       y       z     vdW  Elec       q    Type
REMARK                         _______ _______ _______ _____ _____    ______ ____
ROOT
ATOM      1  C   LIG A   1      -7.909   4.105 130.369  0.00  0.00    +0.057 C 
ENDROOT
BRANCH   1   8
ATOM      2  O   LIG A   1     -11.860   6.535 132.202  0.00  0.00    -0.283 OA
ATOM      3  C   LIG A   1     -11.082   6.352 131.329  0.00  0.00    +0.231 A 
ATOM      4  C   LIG A   1     -11.200   7.048 130.044  0.00  0.00    +0.049 A 
ATOM      5  C   LIG A   1     -10.365   6.674 128.991  0.00  0.00    +0.051 A 
ATOM      6  N   LIG A   1      -9.377   5.696 129.177  0.00  0.00    -0.355 N 
ATOM      7  H   LIG A   1      -8.753   5.505 128.403  0.00  0.00    +0.166 HD
ATOM      8  C   LIG A   1      -9.123   5.090 130.413  0.00  0.00    +0.062 A 
ATOM      9  C   LIG A   1      -9.894   5.437 131.487  0.00  0.00    +0.186 A 
ATOM     10  C   LIG A   1     -10.580   7.268 127.748  0.00  0.00    +0.026 A 
ATOM     11  C   LIG A   1     -11.573   8.244 127.597  0.00  0.00    +0.002 A 
ATOM     12  C   LIG A   1     -12.347   8.656 128.682  0.00  0.00    +0.001 A 
ATOM     13  C   LIG A   1     -12.161   8.050 129.922  0.00  0.00    +0.014 A 
BRANCH   9  14
ATOM     14  O   LIG A   1      -9.777   5.174 132.815  0.00  0.00    -0.490 OA
ATOM     15  C   LIG A   1      -8.683   5.717 133.470  0.00  0.00    +0.277 C 
ENDBRANCH   9  14
ENDBRANCH   1   8
BRANCH   1  16
ATOM     16  C   LIG A   1      -7.842   2.706 131.142  0.00  0.00    +0.006 C 
BRANCH  16  17
ATOM     17  C   LIG A   1      -8.573   1.497 130.569  0.00  0.00    +0.000 C 
BRANCH  17  18
ATOM     18  C   LIG A   1      -8.602   0.037 130.956  0.00  0.00    +0.000 C 
BRANCH  18  19
ATOM     19  C   LIG A   1      -7.877  -0.869 129.875  0.00  0.00    -0.000 C 
BRANCH  19  20
ATOM     20  C   LIG A   1      -7.175  -2.216 130.253  0.00  0.00    -0.000 C 
BRANCH  20  21
ATOM     21  C   LIG A   1      -7.279  -3.335 129.218  0.00  0.00    -0.000 C 
BRANCH  21  22
ATOM     22  C   LIG A   1      -8.664  -3.466 128.584  0.00  0.00    -0.000 C 
BRANCH  22  23
ATOM     23  C   LIG A   1      -8.725  -3.694 127.086  0.00  0.00    +0.000 C 
BRANCH  23  24
ATOM     24  C   LIG A   1      -7.779  -2.747 126.329  0.00  0.00    +0.003 C 
BRANCH  24  25
ATOM     25  C   LIG A   1      -7.499  -3.210 124.890  0.00  0.00    +0.034 C 
BRANCH  25  26
ATOM     26  C   LIG A   1      -6.216  -2.616 124.250  0.00  0.00    +0.060 C 
ATOM     27  C   LIG A   1      -5.557  -1.548 125.127  0.00  0.00    +0.041 C 
ATOM     28  C   LIG A   1      -5.178  -3.707 123.941  0.00  0.00    +0.041 C 
BRANCH  26  29
ATOM     29  O   LIG A   1      -6.579  -2.010 123.005  0.00  0.00    -0.389 OA
ATOM     30  H   LIG A   1      -7.505  -1.719 123.072  0.00  0.00    +0.210 HD
ENDBRANCH  26  29
ENDBRANCH  25  26
ENDBRANCH  24  25
ENDBRANCH  23  24
ENDBRANCH  22  23
ENDBRANCH  21  22
ENDBRANCH  20  21
ENDBRANCH  19  20
ENDBRANCH  18  19
ENDBRANCH  17  18
ENDBRANCH  16  17
ENDBRANCH   1  16
TORSDOF 14
ENDMDL
MODEL 9
REMARK VINA RESULT:      -6.7      7.587     10.999
REMARK  Name = NuBBE_1398
REMARK  17 active torsions:
REMARK  status: ('A' for Active; 'I' for Inactive)
REMARK    1  A    between atoms: C_7  and  C_11
REMARK    2  A    between atoms: C_8  and  O_9
REMARK    3  A    between atoms: O_9  and  C_10
REMARK    4  A    between atoms: C_11  and  C_12
REMARK    5  A    between atoms: C_12  and  C_13
REMARK    6  A    between atoms: C_13  and  C_14
REMARK    7  A    between atoms: C_14  and  C_15
REMARK    8  A    between atoms: C_15  and  C_16
REMARK    9  A    between atoms: C_16  and  C_17
REMARK   10  A    between atoms: C_17  and  C_18
REMARK   11  A    between atoms: C_18  and  C_19
REMARK   12  A    between atoms: C_19  and  C_20
REMARK   13  A    between atoms: C_20  and  C_21
REMARK   14  A    between atoms: C_21  and  C_22
REMARK   15  A    between atoms: C_22  and  C_23
REMARK   16  A    between atoms: C_22  and  C_24
REMARK   17  A    between atoms: C_22  and  O_25
REMARK                            x       y       z     vdW  Elec       q    Type
REMARK                         _______ _______ _______ _____ _____    ______ ____
ROOT
ATOM      1  C   LIG A   1      -9.255   4.114 133.834  0.00  0.00    +0.057 C 
ENDROOT
BRANCH   1   8
ATOM      2  O   LIG A   1      -8.522   6.008 129.278  0.00  0.00    -0.283 OA
ATOM      3  C   LIG A   1      -9.211   5.860 130.230  0.00  0.00    +0.231 A 
ATOM      4  C   LIG A   1     -10.510   6.529 130.342  0.00  0.00    +0.049 A 
ATOM      5  C   LIG A   1     -11.206   6.461 131.550  0.00  0.00    +0.051 A 
ATOM      6  N   LIG A   1     -10.704   5.706 132.620  0.00  0.00    -0.355 N 
ATOM      7  H   LIG A   1     -11.276   5.634 133.452  0.00  0.00    +0.166 HD
ATOM      8  C   LIG A   1      -9.539   4.934 132.533  0.00  0.00    +0.062 A 
ATOM      9  C   LIG A   1      -8.831   4.942 131.365  0.00  0.00    +0.186 A 
ATOM     10  C   LIG A   1     -12.379   7.206 131.667  0.00  0.00    +0.026 A 
ATOM     11  C   LIG A   1     -12.852   7.948 130.578  0.00  0.00    +0.002 A 
ATOM     12  C   LIG A   1     -12.180   7.941 129.356  0.00  0.00    +0.001 A 
ATOM     13  C   LIG A   1     -10.992   7.225 129.235  0.00  0.00    +0.014 A 
BRANCH   9  14
ATOM     14  O   LIG A   1      -7.798   4.179 130.921  0.00  0.00    -0.490 OA
ATOM     15  C   LIG A   1      -8.091   2.876 130.550  0.00  0.00    +0.277 C 
ENDBRANCH   9  14
ENDBRANCH   1   8
BRANCH   1  16
ATOM     16  C   LIG A   1      -7.800   3.846 134.442  0.00  0.00    +0.006 C 
BRANCH  16  17
ATOM     17  C   LIG A   1      -6.827   5.009 134.601  0.00  0.00    +0.000 C 
BRANCH  17  18
ATOM     18  C   LIG A   1      -5.952   5.755 133.621  0.00  0.00    +0.000 C 
BRANCH  18  19
ATOM     19  C   LIG A   1      -4.413   5.460 133.869  0.00  0.00    -0.000 C 
BRANCH  19  20
ATOM     20  C   LIG A   1      -3.551   6.312 134.859  0.00  0.00    -0.000 C 
BRANCH  20  21
ATOM     21  C   LIG A   1      -2.933   7.584 134.280  0.00  0.00    -0.000 C 
BRANCH  21  22
ATOM     22  C   LIG A   1      -2.435   7.433 132.842  0.00  0.00    -0.000 C 
BRANCH  22  23
ATOM     23  C   LIG A   1      -2.962   8.417 131.816  0.00  0.00    +0.000 C 
BRANCH  23  24
ATOM     24  C   LIG A   1      -3.768   7.710 130.713  0.00  0.00    +0.003 C 
BRANCH  24  25
ATOM     25  C   LIG A   1      -3.388   6.228 130.555  0.00  0.00    +0.034 C 
BRANCH  25  26
ATOM     26  C   LIG A   1      -4.268   5.431 129.557  0.00  0.00    +0.060 C 
ATOM     27  C   LIG A   1      -3.888   5.688 128.096  0.00  0.00    +0.041 C 
ATOM     28  C   LIG A   1      -4.201   3.918 129.823  0.00  0.00    +0.041 C 
BRANCH  26  29
ATOM     29  O   LIG A   1      -5.629   5.835 129.741  0.00  0.00    -0.389 OA
ATOM     30  H   LIG A   1      -6.012   6.010 128.863  0.00  0.00    +0.210 HD
ENDBRANCH  26  29
ENDBRANCH  25  26
ENDBRANCH  24  25
ENDBRANCH  23  24
ENDBRANCH  22  23
ENDBRANCH  21  22
ENDBRANCH  20  21
ENDBRANCH  19  20
ENDBRANCH  18  19
ENDBRANCH  17  18
ENDBRANCH  16  17
ENDBRANCH   1  16
TORSDOF 14
ENDMDL
