MODEL 1
REMARK VINA RESULT:      -7.4      0.000      0.000
REMARK  Name = NuBBE_2056
REMARK  5 active torsions:
REMARK  status: ('A' for Active; 'I' for Inactive)
REMARK    1  A    between atoms: C_6  and  O_7
REMARK    2  A    between atoms: O_7  and  C_8
REMARK    3  A    between atoms: C_8  and  C_9
REMARK    4  A    between atoms: C_11  and  C_12
REMARK    5  A    between atoms: C_11  and  C_13
REMARK                            x       y       z     vdW  Elec       q    Type
REMARK                         _______ _______ _______ _____ _____    ______ ____
ROOT
ATOM      1  O   LIG A   1      -7.132   4.388 118.683  0.00  0.00    -0.245 OA
ATOM      2  C   LIG A   1      -6.959   4.175 119.883  0.00  0.00    +0.337 A 
ATOM      3  O   LIG A   1      -7.945   3.644 120.695  0.00  0.00    -0.422 OA
ATOM      4  C   LIG A   1      -7.693   3.331 122.052  0.00  0.00    +0.146 A 
ATOM      5  C   LIG A   1      -8.720   2.707 122.776  0.00  0.00    +0.096 A 
ATOM      6  C   LIG A   1      -8.517   2.327 124.111  0.00  0.00    +0.169 A 
ATOM      7  C   LIG A   1      -7.278   2.605 124.668  0.00  0.00    +0.208 A 
ATOM      8  O   LIG A   1      -6.855   2.313 125.931  0.00  0.00    -0.449 OA
ATOM      9  C   LIG A   1      -5.527   2.867 125.935  0.00  0.00    +0.467 C 
ATOM     10  O   LIG A   1      -5.144   3.425 124.668  0.00  0.00    -0.452 OA
ATOM     11  C   LIG A   1      -6.284   3.241 123.942  0.00  0.00    +0.180 A 
ATOM     12  C   LIG A   1      -6.458   3.616 122.621  0.00  0.00    +0.063 A 
ATOM     13  C   LIG A   1      -5.427   4.245 121.817  0.00  0.00    +0.022 A 
ATOM     14  C   LIG A   1      -5.669   4.495 120.527  0.00  0.00    +0.093 A 
ENDROOT
BRANCH   6  15
ATOM     15  O   LIG A   1      -9.590   1.718 124.694  0.00  0.00    -0.485 OA
BRANCH  15  16
ATOM     16  C   LIG A   1      -9.386   0.476 125.375  0.00  0.00    +0.263 C 
BRANCH  16  17
ATOM     17  C   LIG A   1      -8.997  -0.539 124.344  0.00  0.00    +0.188 C 
ATOM     18  O   LIG A   1      -7.792  -1.273 124.623  0.00  0.00    -0.362 OA
ATOM     19  C   LIG A   1      -9.000  -2.048 124.567  0.00  0.00    +0.094 C 
ATOM     20  C   LIG A   1      -9.347  -2.678 125.880  0.00  0.00    +0.044 C 
ATOM     21  C   LIG A   1      -9.129  -2.923 123.358  0.00  0.00    +0.044 C 
ENDBRANCH  16  17
ENDBRANCH  15  16
ENDBRANCH   6  15
TORSDOF 3
ENDMDL
MODEL 2
REMARK VINA RESULT:      -7.4      2.231      5.090
REMARK  Name = NuBBE_2056
REMARK  5 active torsions:
REMARK  status: ('A' for Active; 'I' for Inactive)
REMARK    1  A    between atoms: C_6  and  O_7
REMARK    2  A    between atoms: O_7  and  C_8
REMARK    3  A    between atoms: C_8  and  C_9
REMARK    4  A    between atoms: C_11  and  C_12
REMARK    5  A    between atoms: C_11  and  C_13
REMARK                            x       y       z     vdW  Elec       q    Type
REMARK                         _______ _______ _______ _____ _____    ______ ____
ROOT
ATOM      1  O   LIG A   1      -4.871   5.636 119.612  0.00  0.00    -0.245 OA
ATOM      2  C   LIG A   1      -5.598   4.939 120.319  0.00  0.00    +0.337 A 
ATOM      3  O   LIG A   1      -5.284   4.626 121.630  0.00  0.00    -0.422 OA
ATOM      4  C   LIG A   1      -6.178   3.894 122.448  0.00  0.00    +0.146 A 
ATOM      5  C   LIG A   1      -5.822   3.704 123.791  0.00  0.00    +0.096 A 
ATOM      6  C   LIG A   1      -6.686   3.030 124.666  0.00  0.00    +0.169 A 
ATOM      7  C   LIG A   1      -7.880   2.561 124.140  0.00  0.00    +0.208 A 
ATOM      8  O   LIG A   1      -8.871   1.899 124.803  0.00  0.00    -0.449 OA
ATOM      9  C   LIG A   1      -9.815   1.645 123.747  0.00  0.00    +0.467 C 
ATOM     10  O   LIG A   1      -9.417   2.205 122.486  0.00  0.00    -0.452 OA
ATOM     11  C   LIG A   1      -8.204   2.740 122.805  0.00  0.00    +0.180 A 
ATOM     12  C   LIG A   1      -7.372   3.412 121.926  0.00  0.00    +0.063 A 
ATOM     13  C   LIG A   1      -7.696   3.656 120.533  0.00  0.00    +0.022 A 
ATOM     14  C   LIG A   1      -6.859   4.384 119.788  0.00  0.00    +0.093 A 
ENDROOT
BRANCH   6  15
ATOM     15  O   LIG A   1      -6.225   2.925 125.946  0.00  0.00    -0.485 OA
BRANCH  15  16
ATOM     16  C   LIG A   1      -4.857   2.560 126.153  0.00  0.00    +0.263 C 
BRANCH  16  17
ATOM     17  C   LIG A   1      -4.304   3.477 127.201  0.00  0.00    +0.188 C 
ATOM     18  O   LIG A   1      -3.538   2.839 128.238  0.00  0.00    -0.362 OA
ATOM     19  C   LIG A   1      -2.820   3.764 127.407  0.00  0.00    +0.094 C 
ATOM     20  C   LIG A   1      -1.742   3.106 126.604  0.00  0.00    +0.044 C 
ATOM     21  C   LIG A   1      -2.454   5.054 128.074  0.00  0.00    +0.044 C 
ENDBRANCH  16  17
ENDBRANCH  15  16
ENDBRANCH   6  15
TORSDOF 3
ENDMDL
MODEL 3
REMARK VINA RESULT:      -7.1      9.000     10.117
REMARK  Name = NuBBE_2056
REMARK  5 active torsions:
REMARK  status: ('A' for Active; 'I' for Inactive)
REMARK    1  A    between atoms: C_6  and  O_7
REMARK    2  A    between atoms: O_7  and  C_8
REMARK    3  A    between atoms: C_8  and  C_9
REMARK    4  A    between atoms: C_11  and  C_12
REMARK    5  A    between atoms: C_11  and  C_13
REMARK                            x       y       z     vdW  Elec       q    Type
REMARK                         _______ _______ _______ _____ _____    ______ ____
ROOT
ATOM      1  O   LIG A   1      -4.169   8.273 129.887  0.00  0.00    -0.245 OA
ATOM      2  C   LIG A   1      -4.953   7.647 130.600  0.00  0.00    +0.337 A 
ATOM      3  O   LIG A   1      -6.313   7.599 130.349  0.00  0.00    -0.422 OA
ATOM      4  C   LIG A   1      -7.180   6.803 131.135  0.00  0.00    +0.146 A 
ATOM      5  C   LIG A   1      -8.528   6.739 130.753  0.00  0.00    +0.096 A 
ATOM      6  C   LIG A   1      -9.429   5.929 131.460  0.00  0.00    +0.169 A 
ATOM      7  C   LIG A   1      -8.928   5.221 132.542  0.00  0.00    +0.208 A 
ATOM      8  O   LIG A   1      -9.611   4.366 133.356  0.00  0.00    -0.449 OA
ATOM      9  C   LIG A   1      -8.593   3.976 134.296  0.00  0.00    +0.467 C 
ATOM     10  O   LIG A   1      -7.307   4.544 134.004  0.00  0.00    -0.452 OA
ATOM     11  C   LIG A   1      -7.598   5.314 132.917  0.00  0.00    +0.180 A 
ATOM     12  C   LIG A   1      -6.689   6.098 132.228  0.00  0.00    +0.063 A 
ATOM     13  C   LIG A   1      -5.281   6.188 132.564  0.00  0.00    +0.022 A 
ATOM     14  C   LIG A   1      -4.470   6.911 131.786  0.00  0.00    +0.093 A 
ENDROOT
BRANCH   6  15
ATOM     15  O   LIG A   1     -10.705   5.947 130.976  0.00  0.00    -0.485 OA
BRANCH  15  16
ATOM     16  C   LIG A   1     -11.433   7.179 131.012  0.00  0.00    +0.263 C 
BRANCH  16  17
ATOM     17  C   LIG A   1     -12.375   7.175 129.847  0.00  0.00    +0.188 C 
ATOM     18  O   LIG A   1     -12.824   8.470 129.412  0.00  0.00    -0.362 OA
ATOM     19  C   LIG A   1     -12.045   7.725 128.463  0.00  0.00    +0.094 C 
ATOM     20  C   LIG A   1     -10.742   8.386 128.136  0.00  0.00    +0.044 C 
ATOM     21  C   LIG A   1     -12.821   7.181 127.303  0.00  0.00    +0.044 C 
ENDBRANCH  16  17
ENDBRANCH  15  16
ENDBRANCH   6  15
TORSDOF 3
ENDMDL
MODEL 4
REMARK VINA RESULT:      -7.0      2.424      7.689
REMARK  Name = NuBBE_2056
REMARK  5 active torsions:
REMARK  status: ('A' for Active; 'I' for Inactive)
REMARK    1  A    between atoms: C_6  and  O_7
REMARK    2  A    between atoms: O_7  and  C_8
REMARK    3  A    between atoms: C_8  and  C_9
REMARK    4  A    between atoms: C_11  and  C_12
REMARK    5  A    between atoms: C_11  and  C_13
REMARK                            x       y       z     vdW  Elec       q    Type
REMARK                         _______ _______ _______ _____ _____    ______ ____
ROOT
ATOM      1  O   LIG A   1      -7.447  -2.839 130.497  0.00  0.00    -0.245 OA
ATOM      2  C   LIG A   1      -7.759  -2.739 129.311  0.00  0.00    +0.337 A 
ATOM      3  O   LIG A   1      -7.320  -1.699 128.510  0.00  0.00    -0.422 OA
ATOM      4  C   LIG A   1      -7.627  -1.652 127.129  0.00  0.00    +0.146 A 
ATOM      5  C   LIG A   1      -7.062  -0.615 126.373  0.00  0.00    +0.096 A 
ATOM      6  C   LIG A   1      -7.285  -0.540 124.990  0.00  0.00    +0.169 A 
ATOM      7  C   LIG A   1      -8.088  -1.520 124.425  0.00  0.00    +0.208 A 
ATOM      8  O   LIG A   1      -8.424  -1.655 123.110  0.00  0.00    -0.449 OA
ATOM      9  C   LIG A   1      -9.286  -2.807 123.142  0.00  0.00    +0.467 C 
ATOM     10  O   LIG A   1      -9.409  -3.386 124.451  0.00  0.00    -0.452 OA
ATOM     11  C   LIG A   1      -8.654  -2.525 125.192  0.00  0.00    +0.180 A 
ATOM     12  C   LIG A   1      -8.438  -2.624 126.556  0.00  0.00    +0.063 A 
ATOM     13  C   LIG A   1      -8.979  -3.685 127.385  0.00  0.00    +0.022 A 
ATOM     14  C   LIG A   1      -8.646  -3.736 128.678  0.00  0.00    +0.093 A 
ENDROOT
BRANCH   6  15
ATOM     15  O   LIG A   1      -6.668   0.509 124.374  0.00  0.00    -0.485 OA
BRANCH  15  16
ATOM     16  C   LIG A   1      -7.439   1.677 124.075  0.00  0.00    +0.263 C 
BRANCH  16  17
ATOM     17  C   LIG A   1      -7.095   2.094 122.677  0.00  0.00    +0.188 C 
ATOM     18  O   LIG A   1      -7.668   3.340 122.245  0.00  0.00    -0.362 OA
ATOM     19  C   LIG A   1      -6.235   3.301 122.320  0.00  0.00    +0.094 C 
ATOM     20  C   LIG A   1      -5.681   4.242 123.344  0.00  0.00    +0.044 C 
ATOM     21  C   LIG A   1      -5.538   3.282 120.994  0.00  0.00    +0.044 C 
ENDBRANCH  16  17
ENDBRANCH  15  16
ENDBRANCH   6  15
TORSDOF 3
ENDMDL
MODEL 5
REMARK VINA RESULT:      -6.9      7.762      8.280
REMARK  Name = NuBBE_2056
REMARK  5 active torsions:
REMARK  status: ('A' for Active; 'I' for Inactive)
REMARK    1  A    between atoms: C_6  and  O_7
REMARK    2  A    between atoms: O_7  and  C_8
REMARK    3  A    between atoms: C_8  and  C_9
REMARK    4  A    between atoms: C_11  and  C_12
REMARK    5  A    between atoms: C_11  and  C_13
REMARK                            x       y       z     vdW  Elec       q    Type
REMARK                         _______ _______ _______ _____ _____    ______ ____
ROOT
ATOM      1  O   LIG A   1     -13.475   7.436 127.243  0.00  0.00    -0.245 OA
ATOM      2  C   LIG A   1     -12.484   7.328 127.964  0.00  0.00    +0.337 A 
ATOM      3  O   LIG A   1     -12.314   6.272 128.842  0.00  0.00    -0.422 OA
ATOM      4  C   LIG A   1     -11.126   6.127 129.599  0.00  0.00    +0.146 A 
ATOM      5  C   LIG A   1     -10.998   4.978 130.393  0.00  0.00    +0.096 A 
ATOM      6  C   LIG A   1      -9.826   4.750 131.129  0.00  0.00    +0.169 A 
ATOM      7  C   LIG A   1      -8.827   5.708 131.040  0.00  0.00    +0.208 A 
ATOM      8  O   LIG A   1      -7.607   5.686 131.649  0.00  0.00    -0.449 OA
ATOM      9  C   LIG A   1      -7.040   6.938 131.219  0.00  0.00    +0.467 C 
ATOM     10  O   LIG A   1      -7.889   7.662 130.315  0.00  0.00    -0.452 OA
ATOM     11  C   LIG A   1      -8.981   6.847 130.267  0.00  0.00    +0.180 A 
ATOM     12  C   LIG A   1     -10.124   7.087 129.525  0.00  0.00    +0.063 A 
ATOM     13  C   LIG A   1     -10.305   8.246 128.672  0.00  0.00    +0.022 A 
ATOM     14  C   LIG A   1     -11.414   8.346 127.933  0.00  0.00    +0.093 A 
ENDROOT
BRANCH   6  15
ATOM     15  O   LIG A   1      -9.826   3.590 131.846  0.00  0.00    -0.485 OA
BRANCH  15  16
ATOM     16  C   LIG A   1      -9.753   2.347 131.139  0.00  0.00    +0.263 C 
BRANCH  16  17
ATOM     17  C   LIG A   1      -9.152   1.338 132.069  0.00  0.00    +0.188 C 
ATOM     18  O   LIG A   1      -9.635  -0.008 131.916  0.00  0.00    -0.362 OA
ATOM     19  C   LIG A   1      -8.241   0.194 131.636  0.00  0.00    +0.094 C 
ATOM     20  C   LIG A   1      -7.892  -0.075 130.206  0.00  0.00    +0.044 C 
ATOM     21  C   LIG A   1      -7.306  -0.368 132.663  0.00  0.00    +0.044 C 
ENDBRANCH  16  17
ENDBRANCH  15  16
ENDBRANCH   6  15
TORSDOF 3
ENDMDL
MODEL 6
REMARK VINA RESULT:      -6.7      6.925      9.337
REMARK  Name = NuBBE_2056
REMARK  5 active torsions:
REMARK  status: ('A' for Active; 'I' for Inactive)
REMARK    1  A    between atoms: C_6  and  O_7
REMARK    2  A    between atoms: O_7  and  C_8
REMARK    3  A    between atoms: C_8  and  C_9
REMARK    4  A    between atoms: C_11  and  C_12
REMARK    5  A    between atoms: C_11  and  C_13
REMARK                            x       y       z     vdW  Elec       q    Type
REMARK                         _______ _______ _______ _____ _____    ______ ____
ROOT
ATOM      1  O   LIG A   1     -13.419   7.107 128.400  0.00  0.00    -0.245 OA
ATOM      2  C   LIG A   1     -12.559   6.794 129.222  0.00  0.00    +0.337 A 
ATOM      3  O   LIG A   1     -11.400   6.124 128.870  0.00  0.00    -0.422 OA
ATOM      4  C   LIG A   1     -10.389   5.850 129.821  0.00  0.00    +0.146 A 
ATOM      5  C   LIG A   1      -9.207   5.253 129.358  0.00  0.00    +0.096 A 
ATOM      6  C   LIG A   1      -8.146   5.000 130.240  0.00  0.00    +0.169 A 
ATOM      7  C   LIG A   1      -8.330   5.354 131.569  0.00  0.00    +0.208 A 
ATOM      8  O   LIG A   1      -7.437   5.219 132.590  0.00  0.00    -0.449 OA
ATOM      9  C   LIG A   1      -8.192   5.713 133.711  0.00  0.00    +0.467 C 
ATOM     10  O   LIG A   1      -9.495   6.195 133.347  0.00  0.00    -0.452 OA
ATOM     11  C   LIG A   1      -9.513   5.924 132.010  0.00  0.00    +0.180 A 
ATOM     12  C   LIG A   1     -10.568   6.192 131.156  0.00  0.00    +0.063 A 
ATOM     13  C   LIG A   1     -11.805   6.825 131.572  0.00  0.00    +0.022 A 
ATOM     14  C   LIG A   1     -12.731   7.114 130.654  0.00  0.00    +0.093 A 
ENDROOT
BRANCH   6  15
ATOM     15  O   LIG A   1      -7.052   4.429 129.659  0.00  0.00    -0.485 OA
BRANCH  15  16
ATOM     16  C   LIG A   1      -5.828   5.171 129.629  0.00  0.00    +0.263 C 
BRANCH  16  17
ATOM     17  C   LIG A   1      -4.981   4.590 128.538  0.00  0.00    +0.188 C 
ATOM     18  O   LIG A   1      -4.959   5.337 127.309  0.00  0.00    -0.362 OA
ATOM     19  C   LIG A   1      -3.704   5.228 127.999  0.00  0.00    +0.094 C 
ATOM     20  C   LIG A   1      -3.187   6.549 128.475  0.00  0.00    +0.044 C 
ATOM     21  C   LIG A   1      -2.705   4.322 127.346  0.00  0.00    +0.044 C 
ENDBRANCH  16  17
ENDBRANCH  15  16
ENDBRANCH   6  15
TORSDOF 3
ENDMDL
MODEL 7
REMARK VINA RESULT:      -6.7      8.160      9.692
REMARK  Name = NuBBE_2056
REMARK  5 active torsions:
REMARK  status: ('A' for Active; 'I' for Inactive)
REMARK    1  A    between atoms: C_6  and  O_7
REMARK    2  A    between atoms: O_7  and  C_8
REMARK    3  A    between atoms: C_8  and  C_9
REMARK    4  A    between atoms: C_11  and  C_12
REMARK    5  A    between atoms: C_11  and  C_13
REMARK                            x       y       z     vdW  Elec       q    Type
REMARK                         _______ _______ _______ _____ _____    ______ ____
ROOT
ATOM      1  O   LIG A   1     -13.596   9.658 128.336  0.00  0.00    -0.245 OA
ATOM      2  C   LIG A   1     -12.940   8.669 128.660  0.00  0.00    +0.337 A 
ATOM      3  O   LIG A   1     -11.597   8.740 128.988  0.00  0.00    -0.422 OA
ATOM      4  C   LIG A   1     -10.887   7.601 129.438  0.00  0.00    +0.146 A 
ATOM      5  C   LIG A   1      -9.556   7.783 129.839  0.00  0.00    +0.096 A 
ATOM      6  C   LIG A   1      -8.812   6.705 130.342  0.00  0.00    +0.169 A 
ATOM      7  C   LIG A   1      -9.447   5.474 130.408  0.00  0.00    +0.208 A 
ATOM      8  O   LIG A   1      -8.929   4.302 130.874  0.00  0.00    -0.449 OA
ATOM      9  C   LIG A   1     -10.021   3.389 130.660  0.00  0.00    +0.467 C 
ATOM     10  O   LIG A   1     -11.194   4.027 130.131  0.00  0.00    -0.452 OA
ATOM     11  C   LIG A   1     -10.756   5.310 129.987  0.00  0.00    +0.180 A 
ATOM     12  C   LIG A   1     -11.512   6.361 129.498  0.00  0.00    +0.063 A 
ATOM     13  C   LIG A   1     -12.898   6.238 129.087  0.00  0.00    +0.022 A 
ATOM     14  C   LIG A   1     -13.564   7.331 128.704  0.00  0.00    +0.093 A 
ENDROOT
BRANCH   6  15
ATOM     15  O   LIG A   1      -7.536   7.021 130.708  0.00  0.00    -0.485 OA
BRANCH  15  16
ATOM     16  C   LIG A   1      -6.788   6.070 131.473  0.00  0.00    +0.263 C 
BRANCH  16  17
ATOM     17  C   LIG A   1      -5.630   5.631 130.630  0.00  0.00    +0.188 C 
ATOM     18  O   LIG A   1      -5.103   6.627 129.736  0.00  0.00    -0.362 OA
ATOM     19  C   LIG A   1      -4.209   6.168 130.761  0.00  0.00    +0.094 C 
ATOM     20  C   LIG A   1      -3.829   7.247 131.727  0.00  0.00    +0.044 C 
ATOM     21  C   LIG A   1      -3.094   5.293 130.276  0.00  0.00    +0.044 C 
ENDBRANCH  16  17
ENDBRANCH  15  16
ENDBRANCH   6  15
TORSDOF 3
ENDMDL
MODEL 8
REMARK VINA RESULT:      -6.7      2.140      5.748
REMARK  Name = NuBBE_2056
REMARK  5 active torsions:
REMARK  status: ('A' for Active; 'I' for Inactive)
REMARK    1  A    between atoms: C_6  and  O_7
REMARK    2  A    between atoms: O_7  and  C_8
REMARK    3  A    between atoms: C_8  and  C_9
REMARK    4  A    between atoms: C_11  and  C_12
REMARK    5  A    between atoms: C_11  and  C_13
REMARK                            x       y       z     vdW  Elec       q    Type
REMARK                         _______ _______ _______ _____ _____    ______ ____
ROOT
ATOM      1  O   LIG A   1     -10.666   0.617 125.411  0.00  0.00    -0.245 OA
ATOM      2  C   LIG A   1      -9.859   1.291 124.772  0.00  0.00    +0.337 A 
ATOM      3  O   LIG A   1      -8.985   2.178 125.376  0.00  0.00    -0.422 OA
ATOM      4  C   LIG A   1      -8.010   2.879 124.627  0.00  0.00    +0.146 A 
ATOM      5  C   LIG A   1      -7.104   3.683 125.332  0.00  0.00    +0.096 A 
ATOM      6  C   LIG A   1      -6.082   4.365 124.653  0.00  0.00    +0.169 A 
ATOM      7  C   LIG A   1      -6.026   4.213 123.276  0.00  0.00    +0.208 A 
ATOM      8  O   LIG A   1      -5.117   4.762 122.421  0.00  0.00    -0.449 OA
ATOM      9  C   LIG A   1      -5.584   4.285 121.146  0.00  0.00    +0.467 C 
ATOM     10  O   LIG A   1      -6.720   3.412 121.250  0.00  0.00    -0.452 OA
ATOM     11  C   LIG A   1      -6.944   3.430 122.595  0.00  0.00    +0.180 A 
ATOM     12  C   LIG A   1      -7.953   2.740 123.245  0.00  0.00    +0.063 A 
ATOM     13  C   LIG A   1      -8.906   1.878 122.572  0.00  0.00    +0.022 A 
ATOM     14  C   LIG A   1      -9.793   1.192 123.300  0.00  0.00    +0.093 A 
ENDROOT
BRANCH   6  15
ATOM     15  O   LIG A   1      -5.263   5.101 125.458  0.00  0.00    -0.485 OA
BRANCH  15  16
ATOM     16  C   LIG A   1      -5.214   4.788 126.854  0.00  0.00    +0.263 C 
BRANCH  16  17
ATOM     17  C   LIG A   1      -3.793   4.447 127.186  0.00  0.00    +0.188 C 
ATOM     18  O   LIG A   1      -3.616   3.518 128.269  0.00  0.00    -0.362 OA
ATOM     19  C   LIG A   1      -3.159   3.075 126.982  0.00  0.00    +0.094 C 
ATOM     20  C   LIG A   1      -3.919   1.892 126.470  0.00  0.00    +0.044 C 
ATOM     21  C   LIG A   1      -1.669   3.021 126.830  0.00  0.00    +0.044 C 
ENDBRANCH  16  17
ENDBRANCH  15  16
ENDBRANCH   6  15
TORSDOF 3
ENDMDL
MODEL 9
REMARK VINA RESULT:      -6.6      2.901      4.567
REMARK  Name = NuBBE_2056
REMARK  5 active torsions:
REMARK  status: ('A' for Active; 'I' for Inactive)
REMARK    1  A    between atoms: C_6  and  O_7
REMARK    2  A    between atoms: O_7  and  C_8
REMARK    3  A    between atoms: C_8  and  C_9
REMARK    4  A    between atoms: C_11  and  C_12
REMARK    5  A    between atoms: C_11  and  C_13
REMARK                            x       y       z     vdW  Elec       q    Type
REMARK                         _______ _______ _______ _____ _____    ______ ____
ROOT
ATOM      1  O   LIG A   1      -3.878   5.400 121.466  0.00  0.00    -0.245 OA
ATOM      2  C   LIG A   1      -4.816   4.738 121.907  0.00  0.00    +0.337 A 
ATOM      3  O   LIG A   1      -5.249   4.839 123.218  0.00  0.00    -0.422 OA
ATOM      4  C   LIG A   1      -6.383   4.127 123.677  0.00  0.00    +0.146 A 
ATOM      5  C   LIG A   1      -6.808   4.362 124.993  0.00  0.00    +0.096 A 
ATOM      6  C   LIG A   1      -7.954   3.726 125.493  0.00  0.00    +0.169 A 
ATOM      7  C   LIG A   1      -8.623   2.863 124.638  0.00  0.00    +0.208 A 
ATOM      8  O   LIG A   1      -9.759   2.157 124.902  0.00  0.00    -0.449 OA
ATOM      9  C   LIG A   1      -9.947   1.429 123.674  0.00  0.00    +0.467 C 
ATOM     10  O   LIG A   1      -8.968   1.749 122.672  0.00  0.00    -0.452 OA
ATOM     11  C   LIG A   1      -8.175   2.629 123.348  0.00  0.00    +0.180 A 
ATOM     12  C   LIG A   1      -7.054   3.253 122.830  0.00  0.00    +0.063 A 
ATOM     13  C   LIG A   1      -6.579   3.065 121.473  0.00  0.00    +0.022 A 
ATOM     14  C   LIG A   1      -5.532   3.776 121.044  0.00  0.00    +0.093 A 
ENDROOT
BRANCH   6  15
ATOM     15  O   LIG A   1      -8.264   4.052 126.781  0.00  0.00    -0.485 OA
BRANCH  15  16
ATOM     16  C   LIG A   1      -7.396   3.604 127.828  0.00  0.00    +0.263 C 
BRANCH  16  17
ATOM     17  C   LIG A   1      -8.116   3.814 129.125  0.00  0.00    +0.188 C 
ATOM     18  O   LIG A   1      -9.458   3.299 129.177  0.00  0.00    -0.362 OA
ATOM     19  C   LIG A   1      -8.520   2.698 130.083  0.00  0.00    +0.094 C 
ATOM     20  C   LIG A   1      -8.282   1.248 129.795  0.00  0.00    +0.044 C 
ATOM     21  C   LIG A   1      -8.715   3.063 131.523  0.00  0.00    +0.044 C 
ENDBRANCH  16  17
ENDBRANCH  15  16
ENDBRANCH   6  15
TORSDOF 3
ENDMDL
