MODEL 1
REMARK VINA RESULT:      -6.5      0.000      0.000
REMARK  Name = NuBBE_2162
REMARK  14 active torsions:
REMARK  status: ('A' for Active; 'I' for Inactive)
REMARK    1  A    between atoms: C_2  and  C_3
REMARK    2  A    between atoms: C_2  and  C_11
REMARK    3  A    between atoms: C_4  and  O_5
REMARK    4  A    between atoms: C_9  and  O_10
REMARK    5  A    between atoms: C_11  and  C_12
REMARK    6  A    between atoms: C_12  and  C_13
REMARK    7  A    between atoms: C_13  and  C_14
REMARK    8  A    between atoms: C_14  and  C_15
REMARK    9  A    between atoms: C_15  and  C_16
REMARK   10  A    between atoms: C_16  and  C_17
REMARK   11  A    between atoms: C_17  and  C_18
REMARK   12  A    between atoms: C_18  and  C_19
REMARK   13  A    between atoms: C_19  and  C_20
REMARK   14  A    between atoms: C_20  and  C_21
REMARK                            x       y       z     vdW  Elec       q    Type
REMARK                         _______ _______ _______ _____ _____    ______ ____
ROOT
ATOM      1  C   LIG A   1      -6.445   0.091 126.004  0.00  0.00    +0.008 C 
ENDROOT
BRANCH   1   2
ATOM      2  C   LIG A   1      -7.351   1.013 126.838  0.00  0.00    +0.080 C 
BRANCH   2   4
ATOM      3  O   LIG A   1      -8.464   3.131 126.878  0.00  0.00    -0.292 OA
ATOM      4  C   LIG A   1      -8.130   2.121 126.153  0.00  0.00    +0.170 C 
BRANCH   4   5
ATOM      5  C   LIG A   1      -8.561   2.074 124.700  0.00  0.00    +0.100 A 
ATOM      6  C   LIG A   1      -8.091   3.008 123.751  0.00  0.00    +0.131 A 
ATOM      7  C   LIG A   1      -8.498   2.956 122.414  0.00  0.00    +0.046 A 
ATOM      8  C   LIG A   1      -9.518   2.104 122.014  0.00  0.00    +0.007 A 
ATOM      9  C   LIG A   1     -10.116   1.276 122.949  0.00  0.00    +0.046 A 
ATOM     10  C   LIG A   1      -9.581   1.190 124.243  0.00  0.00    +0.131 A 
BRANCH   6  11
ATOM     11  O   LIG A   1      -7.273   4.050 124.081  0.00  0.00    -0.506 OA
ATOM     12  H   LIG A   1      -6.423   3.734 124.430  0.00  0.00    +0.292 HD
ENDBRANCH   6  11
BRANCH  10  13
ATOM     13  O   LIG A   1     -10.208   0.294 125.077  0.00  0.00    -0.506 OA
ATOM     14  H   LIG A   1      -9.799  -0.589 124.997  0.00  0.00    +0.292 HD
ENDBRANCH  10  13
ENDBRANCH   4   5
ENDBRANCH   2   4
ENDBRANCH   1   2
BRANCH   1  15
ATOM     15  C   LIG A   1      -5.377  -0.678 126.758  0.00  0.00    +0.000 C 
BRANCH  15  16
ATOM     16  C   LIG A   1      -5.900  -1.942 127.380  0.00  0.00    +0.000 C 
BRANCH  16  17
ATOM     17  C   LIG A   1      -6.402  -1.945 128.824  0.00  0.00    -0.000 C 
BRANCH  17  18
ATOM     18  C   LIG A   1      -7.810  -2.519 129.116  0.00  0.00    -0.000 C 
BRANCH  18  19
ATOM     19  C   LIG A   1      -8.222  -3.788 128.383  0.00  0.00    +0.000 C 
BRANCH  19  20
ATOM     20  C   LIG A   1      -9.246  -3.699 127.258  0.00  0.00    +0.000 C 
BRANCH  20  21
ATOM     21  C   LIG A   1      -9.200  -2.658 126.178  0.00  0.00    +0.005 C 
BRANCH  21  22
ATOM     22  C   LIG A   1      -9.138  -3.220 124.789  0.00  0.00    +0.035 C 
BRANCH  22  23
ATOM     23  C   LIG A   1      -7.840  -3.018 124.138  0.00  0.00    -0.047 A 
ATOM     24  C   LIG A   1      -6.782  -3.864 124.452  0.00  0.00    +0.003 A 
ATOM     25  C   LIG A   1      -5.541  -3.560 123.940  0.00  0.00    +0.000 A 
ATOM     26  C   LIG A   1      -5.395  -2.438 123.117  0.00  0.00    +0.000 A 
ATOM     27  C   LIG A   1      -6.490  -1.658 122.739  0.00  0.00    +0.000 A 
ATOM     28  C   LIG A   1      -7.731  -1.961 123.239  0.00  0.00    +0.003 A 
ENDBRANCH  22  23
ENDBRANCH  21  22
ENDBRANCH  20  21
ENDBRANCH  19  20
ENDBRANCH  18  19
ENDBRANCH  17  18
ENDBRANCH  16  17
ENDBRANCH  15  16
ENDBRANCH   1  15
TORSDOF 14
ENDMDL
MODEL 2
REMARK VINA RESULT:      -6.4      8.292     10.116
REMARK  Name = NuBBE_2162
REMARK  14 active torsions:
REMARK  status: ('A' for Active; 'I' for Inactive)
REMARK    1  A    between atoms: C_2  and  C_3
REMARK    2  A    between atoms: C_2  and  C_11
REMARK    3  A    between atoms: C_4  and  O_5
REMARK    4  A    between atoms: C_9  and  O_10
REMARK    5  A    between atoms: C_11  and  C_12
REMARK    6  A    between atoms: C_12  and  C_13
REMARK    7  A    between atoms: C_13  and  C_14
REMARK    8  A    between atoms: C_14  and  C_15
REMARK    9  A    between atoms: C_15  and  C_16
REMARK   10  A    between atoms: C_16  and  C_17
REMARK   11  A    between atoms: C_17  and  C_18
REMARK   12  A    between atoms: C_18  and  C_19
REMARK   13  A    between atoms: C_19  and  C_20
REMARK   14  A    between atoms: C_20  and  C_21
REMARK                            x       y       z     vdW  Elec       q    Type
REMARK                         _______ _______ _______ _____ _____    ______ ____
ROOT
ATOM      1  C   LIG A   1      -7.156   6.018 132.394  0.00  0.00    +0.008 C 
ENDROOT
BRANCH   1   2
ATOM      2  C   LIG A   1      -7.518   6.799 131.119  0.00  0.00    +0.080 C 
BRANCH   2   4
ATOM      3  O   LIG A   1      -8.458   5.498 129.345  0.00  0.00    -0.292 OA
ATOM      4  C   LIG A   1      -8.698   6.355 130.275  0.00  0.00    +0.170 C 
BRANCH   4   5
ATOM      5  C   LIG A   1     -10.105   6.896 130.442  0.00  0.00    +0.100 A 
ATOM      6  C   LIG A   1     -10.969   6.428 131.457  0.00  0.00    +0.131 A 
ATOM      7  C   LIG A   1     -12.265   6.934 131.600  0.00  0.00    +0.046 A 
ATOM      8  C   LIG A   1     -12.811   7.773 130.640  0.00  0.00    +0.007 A 
ATOM      9  C   LIG A   1     -12.048   8.136 129.543  0.00  0.00    +0.046 A 
ATOM     10  C   LIG A   1     -10.690   7.786 129.496  0.00  0.00    +0.131 A 
BRANCH   6  11
ATOM     11  O   LIG A   1     -10.627   5.420 132.312  0.00  0.00    -0.506 OA
ATOM     12  H   LIG A   1     -10.135   5.759 133.078  0.00  0.00    +0.292 HD
ENDBRANCH   6  11
BRANCH  10  13
ATOM     13  O   LIG A   1     -10.005   8.247 128.396  0.00  0.00    -0.506 OA
ATOM     14  H   LIG A   1      -9.112   8.545 128.652  0.00  0.00    +0.292 HD
ENDBRANCH  10  13
ENDBRANCH   4   5
ENDBRANCH   2   4
ENDBRANCH   1   2
BRANCH   1  15
ATOM     15  C   LIG A   1      -5.815   5.311 132.402  0.00  0.00    +0.000 C 
BRANCH  15  16
ATOM     16  C   LIG A   1      -5.482   4.678 131.080  0.00  0.00    +0.000 C 
BRANCH  16  17
ATOM     17  C   LIG A   1      -4.243   3.795 130.933  0.00  0.00    -0.000 C 
BRANCH  17  18
ATOM     18  C   LIG A   1      -3.886   2.824 132.084  0.00  0.00    -0.000 C 
BRANCH  18  19
ATOM     19  C   LIG A   1      -2.628   3.115 132.890  0.00  0.00    +0.000 C 
BRANCH  19  20
ATOM     20  C   LIG A   1      -2.247   4.562 133.180  0.00  0.00    +0.000 C 
BRANCH  20  21
ATOM     21  C   LIG A   1      -1.115   5.272 132.498  0.00  0.00    +0.005 C 
BRANCH  21  22
ATOM     22  C   LIG A   1      -1.383   6.720 132.215  0.00  0.00    +0.035 C 
BRANCH  22  23
ATOM     23  C   LIG A   1      -2.249   6.935 131.051  0.00  0.00    -0.047 A 
ATOM     24  C   LIG A   1      -1.916   6.344 129.837  0.00  0.00    +0.003 A 
ATOM     25  C   LIG A   1      -2.661   6.683 128.731  0.00  0.00    +0.000 A 
ATOM     26  C   LIG A   1      -3.724   7.581 128.869  0.00  0.00    +0.000 A 
ATOM     27  C   LIG A   1      -4.100   8.087 130.116  0.00  0.00    +0.000 A 
ATOM     28  C   LIG A   1      -3.366   7.746 131.223  0.00  0.00    +0.003 A 
ENDBRANCH  22  23
ENDBRANCH  21  22
ENDBRANCH  20  21
ENDBRANCH  19  20
ENDBRANCH  18  19
ENDBRANCH  17  18
ENDBRANCH  16  17
ENDBRANCH  15  16
ENDBRANCH   1  15
TORSDOF 14
ENDMDL
MODEL 3
REMARK VINA RESULT:      -6.3      1.640      2.695
REMARK  Name = NuBBE_2162
REMARK  14 active torsions:
REMARK  status: ('A' for Active; 'I' for Inactive)
REMARK    1  A    between atoms: C_2  and  C_3
REMARK    2  A    between atoms: C_2  and  C_11
REMARK    3  A    between atoms: C_4  and  O_5
REMARK    4  A    between atoms: C_9  and  O_10
REMARK    5  A    between atoms: C_11  and  C_12
REMARK    6  A    between atoms: C_12  and  C_13
REMARK    7  A    between atoms: C_13  and  C_14
REMARK    8  A    between atoms: C_14  and  C_15
REMARK    9  A    between atoms: C_15  and  C_16
REMARK   10  A    between atoms: C_16  and  C_17
REMARK   11  A    between atoms: C_17  and  C_18
REMARK   12  A    between atoms: C_18  and  C_19
REMARK   13  A    between atoms: C_19  and  C_20
REMARK   14  A    between atoms: C_20  and  C_21
REMARK                            x       y       z     vdW  Elec       q    Type
REMARK                         _______ _______ _______ _____ _____    ______ ____
ROOT
ATOM      1  C   LIG A   1      -7.308   1.191 126.291  0.00  0.00    +0.008 C 
ENDROOT
BRANCH   1   2
ATOM      2  C   LIG A   1      -7.941   1.453 124.913  0.00  0.00    +0.080 C 
BRANCH   2   4
ATOM      3  O   LIG A   1      -8.864   3.655 125.048  0.00  0.00    -0.292 OA
ATOM      4  C   LIG A   1      -8.069   2.876 124.403  0.00  0.00    +0.170 C 
BRANCH   4   5
ATOM      5  C   LIG A   1      -7.356   3.396 123.170  0.00  0.00    +0.100 A 
ATOM      6  C   LIG A   1      -7.931   3.311 121.882  0.00  0.00    +0.131 A 
ATOM      7  C   LIG A   1      -7.262   3.792 120.753  0.00  0.00    +0.046 A 
ATOM      8  C   LIG A   1      -5.938   4.199 120.830  0.00  0.00    +0.007 A 
ATOM      9  C   LIG A   1      -5.284   4.153 122.049  0.00  0.00    +0.046 A 
ATOM     10  C   LIG A   1      -6.007   3.854 123.214  0.00  0.00    +0.131 A 
BRANCH   6  11
ATOM     11  O   LIG A   1      -9.130   2.702 121.647  0.00  0.00    -0.506 OA
ATOM     12  H   LIG A   1      -9.008   1.789 121.340  0.00  0.00    +0.292 HD
ENDBRANCH   6  11
BRANCH  10  13
ATOM     13  O   LIG A   1      -5.281   3.896 124.381  0.00  0.00    -0.506 OA
ATOM     14  H   LIG A   1      -4.560   4.550 124.310  0.00  0.00    +0.292 HD
ENDBRANCH  10  13
ENDBRANCH   4   5
ENDBRANCH   2   4
ENDBRANCH   1   2
BRANCH   1  15
ATOM     15  C   LIG A   1      -8.044   0.235 127.209  0.00  0.00    +0.000 C 
BRANCH  15  16
ATOM     16  C   LIG A   1      -7.269  -0.090 128.455  0.00  0.00    +0.000 C 
BRANCH  16  17
ATOM     17  C   LIG A   1      -6.036  -0.992 128.387  0.00  0.00    -0.000 C 
BRANCH  17  18
ATOM     18  C   LIG A   1      -6.236  -2.524 128.484  0.00  0.00    -0.000 C 
BRANCH  18  19
ATOM     19  C   LIG A   1      -7.455  -3.032 129.240  0.00  0.00    +0.000 C 
BRANCH  19  20
ATOM     20  C   LIG A   1      -8.702  -3.429 128.460  0.00  0.00    +0.000 C 
BRANCH  20  21
ATOM     21  C   LIG A   1      -8.670  -3.924 127.043  0.00  0.00    +0.005 C 
BRANCH  21  22
ATOM     22  C   LIG A   1      -9.293  -2.985 126.054  0.00  0.00    +0.035 C 
BRANCH  22  23
ATOM     23  C   LIG A   1      -8.432  -2.697 124.903  0.00  0.00    -0.047 A 
ATOM     24  C   LIG A   1      -7.052  -2.672 125.075  0.00  0.00    +0.003 A 
ATOM     25  C   LIG A   1      -6.279  -2.255 124.016  0.00  0.00    +0.000 A 
ATOM     26  C   LIG A   1      -6.899  -1.893 122.815  0.00  0.00    +0.000 A 
ATOM     27  C   LIG A   1      -8.279  -2.018 122.635  0.00  0.00    +0.000 A 
ATOM     28  C   LIG A   1      -9.053  -2.441 123.685  0.00  0.00    +0.003 A 
ENDBRANCH  22  23
ENDBRANCH  21  22
ENDBRANCH  20  21
ENDBRANCH  19  20
ENDBRANCH  18  19
ENDBRANCH  17  18
ENDBRANCH  16  17
ENDBRANCH  15  16
ENDBRANCH   1  15
TORSDOF 14
ENDMDL
MODEL 4
REMARK VINA RESULT:      -6.3      1.833      3.980
REMARK  Name = NuBBE_2162
REMARK  14 active torsions:
REMARK  status: ('A' for Active; 'I' for Inactive)
REMARK    1  A    between atoms: C_2  and  C_3
REMARK    2  A    between atoms: C_2  and  C_11
REMARK    3  A    between atoms: C_4  and  O_5
REMARK    4  A    between atoms: C_9  and  O_10
REMARK    5  A    between atoms: C_11  and  C_12
REMARK    6  A    between atoms: C_12  and  C_13
REMARK    7  A    between atoms: C_13  and  C_14
REMARK    8  A    between atoms: C_14  and  C_15
REMARK    9  A    between atoms: C_15  and  C_16
REMARK   10  A    between atoms: C_16  and  C_17
REMARK   11  A    between atoms: C_17  and  C_18
REMARK   12  A    between atoms: C_18  and  C_19
REMARK   13  A    between atoms: C_19  and  C_20
REMARK   14  A    between atoms: C_20  and  C_21
REMARK                            x       y       z     vdW  Elec       q    Type
REMARK                         _______ _______ _______ _____ _____    ______ ____
ROOT
ATOM      1  C   LIG A   1      -7.269   1.446 126.655  0.00  0.00    +0.008 C 
ENDROOT
BRANCH   1   2
ATOM      2  C   LIG A   1      -7.067   2.941 126.357  0.00  0.00    +0.080 C 
BRANCH   2   4
ATOM      3  O   LIG A   1      -8.899   3.997 125.238  0.00  0.00    -0.292 OA
ATOM      4  C   LIG A   1      -7.697   3.553 125.120  0.00  0.00    +0.170 C 
BRANCH   4   5
ATOM      5  C   LIG A   1      -7.007   3.624 123.771  0.00  0.00    +0.100 A 
ATOM      6  C   LIG A   1      -5.728   4.201 123.615  0.00  0.00    +0.131 A 
ATOM      7  C   LIG A   1      -5.103   4.262 122.365  0.00  0.00    +0.046 A 
ATOM      8  C   LIG A   1      -5.793   3.929 121.209  0.00  0.00    +0.007 A 
ATOM      9  C   LIG A   1      -7.107   3.503 121.302  0.00  0.00    +0.046 A 
ATOM     10  C   LIG A   1      -7.670   3.259 122.563  0.00  0.00    +0.131 A 
BRANCH   6  11
ATOM     11  O   LIG A   1      -5.052   4.790 124.646  0.00  0.00    -0.506 OA
ATOM     12  H   LIG A   1      -5.644   4.983 125.391  0.00  0.00    +0.292 HD
ENDBRANCH   6  11
BRANCH  10  13
ATOM     13  O   LIG A   1      -8.959   2.778 122.546  0.00  0.00    -0.506 OA
ATOM     14  H   LIG A   1      -9.320   2.739 123.451  0.00  0.00    +0.292 HD
ENDBRANCH  10  13
ENDBRANCH   4   5
ENDBRANCH   2   4
ENDBRANCH   1   2
BRANCH   1  15
ATOM     15  C   LIG A   1      -8.692   0.989 126.914  0.00  0.00    +0.000 C 
BRANCH  15  16
ATOM     16  C   LIG A   1      -9.313   0.315 125.721  0.00  0.00    +0.000 C 
BRANCH  16  17
ATOM     17  C   LIG A   1      -8.466  -0.024 124.495  0.00  0.00    -0.000 C 
BRANCH  17  18
ATOM     18  C   LIG A   1      -9.172  -0.612 123.249  0.00  0.00    -0.000 C 
BRANCH  18  19
ATOM     19  C   LIG A   1      -8.791  -2.022 122.819  0.00  0.00    +0.000 C 
BRANCH  19  20
ATOM     20  C   LIG A   1      -9.298  -3.209 123.629  0.00  0.00    +0.000 C 
BRANCH  20  21
ATOM     21  C   LIG A   1      -8.599  -3.740 124.846  0.00  0.00    +0.005 C 
BRANCH  21  22
ATOM     22  C   LIG A   1      -9.248  -3.352 126.141  0.00  0.00    +0.035 C 
BRANCH  22  23
ATOM     23  C   LIG A   1      -8.287  -3.069 127.211  0.00  0.00    -0.047 A 
ATOM     24  C   LIG A   1      -7.107  -2.397 126.907  0.00  0.00    +0.003 A 
ATOM     25  C   LIG A   1      -6.161  -2.277 127.898  0.00  0.00    +0.000 A 
ATOM     26  C   LIG A   1      -6.423  -2.810 129.165  0.00  0.00    +0.000 A 
ATOM     27  C   LIG A   1      -7.653  -3.395 129.474  0.00  0.00    +0.000 A 
ATOM     28  C   LIG A   1      -8.604  -3.510 128.492  0.00  0.00    +0.003 A 
ENDBRANCH  22  23
ENDBRANCH  21  22
ENDBRANCH  20  21
ENDBRANCH  19  20
ENDBRANCH  18  19
ENDBRANCH  17  18
ENDBRANCH  16  17
ENDBRANCH  15  16
ENDBRANCH   1  15
TORSDOF 14
ENDMDL
MODEL 5
REMARK VINA RESULT:      -6.2      1.967      4.343
REMARK  Name = NuBBE_2162
REMARK  14 active torsions:
REMARK  status: ('A' for Active; 'I' for Inactive)
REMARK    1  A    between atoms: C_2  and  C_3
REMARK    2  A    between atoms: C_2  and  C_11
REMARK    3  A    between atoms: C_4  and  O_5
REMARK    4  A    between atoms: C_9  and  O_10
REMARK    5  A    between atoms: C_11  and  C_12
REMARK    6  A    between atoms: C_12  and  C_13
REMARK    7  A    between atoms: C_13  and  C_14
REMARK    8  A    between atoms: C_14  and  C_15
REMARK    9  A    between atoms: C_15  and  C_16
REMARK   10  A    between atoms: C_16  and  C_17
REMARK   11  A    between atoms: C_17  and  C_18
REMARK   12  A    between atoms: C_18  and  C_19
REMARK   13  A    between atoms: C_19  and  C_20
REMARK   14  A    between atoms: C_20  and  C_21
REMARK                            x       y       z     vdW  Elec       q    Type
REMARK                         _______ _______ _______ _____ _____    ______ ____
ROOT
ATOM      1  C   LIG A   1      -7.831   0.268 124.441  0.00  0.00    +0.008 C 
ENDROOT
BRANCH   1   2
ATOM      2  C   LIG A   1      -7.476   1.643 125.033  0.00  0.00    +0.080 C 
BRANCH   2   4
ATOM      3  O   LIG A   1      -8.776   3.629 124.736  0.00  0.00    -0.292 OA
ATOM      4  C   LIG A   1      -7.823   2.905 124.265  0.00  0.00    +0.170 C 
BRANCH   4   5
ATOM      5  C   LIG A   1      -7.145   3.317 122.973  0.00  0.00    +0.100 A 
ATOM      6  C   LIG A   1      -5.850   3.881 122.955  0.00  0.00    +0.131 A 
ATOM      7  C   LIG A   1      -5.236   4.260 121.757  0.00  0.00    +0.046 A 
ATOM      8  C   LIG A   1      -5.947   4.268 120.566  0.00  0.00    +0.007 A 
ATOM      9  C   LIG A   1      -7.272   3.867 120.564  0.00  0.00    +0.046 A 
ATOM     10  C   LIG A   1      -7.830   3.308 121.723  0.00  0.00    +0.131 A 
BRANCH   6  11
ATOM     11  O   LIG A   1      -5.147   4.153 124.094  0.00  0.00    -0.506 OA
ATOM     12  H   LIG A   1      -4.477   3.471 124.265  0.00  0.00    +0.292 HD
ENDBRANCH   6  11
BRANCH  10  13
ATOM     13  O   LIG A   1      -9.133   2.884 121.599  0.00  0.00    -0.506 OA
ATOM     14  H   LIG A   1      -9.572   2.877 122.470  0.00  0.00    +0.292 HD
ENDBRANCH  10  13
ENDBRANCH   4   5
ENDBRANCH   2   4
ENDBRANCH   1   2
BRANCH   1  15
ATOM     15  C   LIG A   1      -6.777  -0.392 123.573  0.00  0.00    +0.000 C 
BRANCH  15  16
ATOM     16  C   LIG A   1      -7.213  -1.730 123.043  0.00  0.00    +0.000 C 
BRANCH  16  17
ATOM     17  C   LIG A   1      -8.691  -2.123 123.052  0.00  0.00    -0.000 C 
BRANCH  17  18
ATOM     18  C   LIG A   1      -9.167  -3.186 124.071  0.00  0.00    -0.000 C 
BRANCH  18  19
ATOM     19  C   LIG A   1      -8.496  -3.207 125.437  0.00  0.00    +0.000 C 
BRANCH  19  20
ATOM     20  C   LIG A   1      -9.326  -3.551 126.668  0.00  0.00    +0.000 C 
BRANCH  20  21
ATOM     21  C   LIG A   1      -8.738  -3.747 128.035  0.00  0.00    +0.005 C 
BRANCH  21  22
ATOM     22  C   LIG A   1      -7.944  -2.576 128.533  0.00  0.00    +0.035 C 
BRANCH  22  23
ATOM     23  C   LIG A   1      -6.617  -2.945 129.036  0.00  0.00    -0.047 A 
ATOM     24  C   LIG A   1      -5.489  -2.357 128.475  0.00  0.00    +0.003 A 
ATOM     25  C   LIG A   1      -4.256  -2.831 128.862  0.00  0.00    +0.000 A 
ATOM     26  C   LIG A   1      -4.183  -3.859 129.808  0.00  0.00    +0.000 A 
ATOM     27  C   LIG A   1      -5.326  -4.367 130.429  0.00  0.00    +0.000 A 
ATOM     28  C   LIG A   1      -6.557  -3.893 130.052  0.00  0.00    +0.003 A 
ENDBRANCH  22  23
ENDBRANCH  21  22
ENDBRANCH  20  21
ENDBRANCH  19  20
ENDBRANCH  18  19
ENDBRANCH  17  18
ENDBRANCH  16  17
ENDBRANCH  15  16
ENDBRANCH   1  15
TORSDOF 14
ENDMDL
MODEL 6
REMARK VINA RESULT:      -6.2      1.796      2.415
REMARK  Name = NuBBE_2162
REMARK  14 active torsions:
REMARK  status: ('A' for Active; 'I' for Inactive)
REMARK    1  A    between atoms: C_2  and  C_3
REMARK    2  A    between atoms: C_2  and  C_11
REMARK    3  A    between atoms: C_4  and  O_5
REMARK    4  A    between atoms: C_9  and  O_10
REMARK    5  A    between atoms: C_11  and  C_12
REMARK    6  A    between atoms: C_12  and  C_13
REMARK    7  A    between atoms: C_13  and  C_14
REMARK    8  A    between atoms: C_14  and  C_15
REMARK    9  A    between atoms: C_15  and  C_16
REMARK   10  A    between atoms: C_16  and  C_17
REMARK   11  A    between atoms: C_17  and  C_18
REMARK   12  A    between atoms: C_18  and  C_19
REMARK   13  A    between atoms: C_19  and  C_20
REMARK   14  A    between atoms: C_20  and  C_21
REMARK                            x       y       z     vdW  Elec       q    Type
REMARK                         _______ _______ _______ _____ _____    ______ ____
ROOT
ATOM      1  C   LIG A   1      -7.327  -0.321 126.842  0.00  0.00    +0.008 C 
ENDROOT
BRANCH   1   2
ATOM      2  C   LIG A   1      -7.872   0.680 127.875  0.00  0.00    +0.080 C 
BRANCH   2   4
ATOM      3  O   LIG A   1      -8.929   2.814 128.107  0.00  0.00    -0.292 OA
ATOM      4  C   LIG A   1      -8.010   2.144 127.503  0.00  0.00    +0.170 C 
BRANCH   4   5
ATOM      5  C   LIG A   1      -7.167   2.828 126.444  0.00  0.00    +0.100 A 
ATOM      6  C   LIG A   1      -5.766   2.954 126.571  0.00  0.00    +0.131 A 
ATOM      7  C   LIG A   1      -5.000   3.588 125.588  0.00  0.00    +0.046 A 
ATOM      8  C   LIG A   1      -5.606   4.278 124.549  0.00  0.00    +0.007 A 
ATOM      9  C   LIG A   1      -6.988   4.310 124.471  0.00  0.00    +0.046 A 
ATOM     10  C   LIG A   1      -7.751   3.519 125.342  0.00  0.00    +0.131 A 
BRANCH   6  11
ATOM     11  O   LIG A   1      -5.083   2.531 127.675  0.00  0.00    -0.506 OA
ATOM     12  H   LIG A   1      -4.351   1.940 127.432  0.00  0.00    +0.292 HD
ENDBRANCH   6  11
BRANCH  10  13
ATOM     13  O   LIG A   1      -9.111   3.573 125.143  0.00  0.00    -0.506 OA
ATOM     14  H   LIG A   1      -9.311   3.745 124.204  0.00  0.00    +0.292 HD
ENDBRANCH  10  13
ENDBRANCH   4   5
ENDBRANCH   2   4
ENDBRANCH   1   2
BRANCH   1  15
ATOM     15  C   LIG A   1      -5.883  -0.754 127.008  0.00  0.00    +0.000 C 
BRANCH  15  16
ATOM     16  C   LIG A   1      -5.753  -2.171 127.492  0.00  0.00    +0.000 C 
BRANCH  16  17
ATOM     17  C   LIG A   1      -5.861  -2.494 128.983  0.00  0.00    -0.000 C 
BRANCH  17  18
ATOM     18  C   LIG A   1      -6.952  -3.488 129.447  0.00  0.00    -0.000 C 
BRANCH  18  19
ATOM     19  C   LIG A   1      -8.388  -3.212 129.022  0.00  0.00    +0.000 C 
BRANCH  19  20
ATOM     20  C   LIG A   1      -8.965  -3.953 127.823  0.00  0.00    +0.000 C 
BRANCH  20  21
ATOM     21  C   LIG A   1      -9.102  -3.342 126.459  0.00  0.00    +0.005 C 
BRANCH  21  22
ATOM     22  C   LIG A   1      -8.431  -4.124 125.369  0.00  0.00    +0.035 C 
BRANCH  22  23
ATOM     23  C   LIG A   1      -7.743  -3.280 124.387  0.00  0.00    -0.047 A 
ATOM     24  C   LIG A   1      -6.359  -3.357 124.273  0.00  0.00    +0.003 A 
ATOM     25  C   LIG A   1      -5.728  -2.451 123.452  0.00  0.00    +0.000 A 
ATOM     26  C   LIG A   1      -6.494  -1.509 122.757  0.00  0.00    +0.000 A 
ATOM     27  C   LIG A   1      -7.890  -1.511 122.812  0.00  0.00    +0.000 A 
ATOM     28  C   LIG A   1      -8.523  -2.418 123.623  0.00  0.00    +0.003 A 
ENDBRANCH  22  23
ENDBRANCH  21  22
ENDBRANCH  20  21
ENDBRANCH  19  20
ENDBRANCH  18  19
ENDBRANCH  17  18
ENDBRANCH  16  17
ENDBRANCH  15  16
ENDBRANCH   1  15
TORSDOF 14
ENDMDL
MODEL 7
REMARK VINA RESULT:      -6.1      1.749      4.597
REMARK  Name = NuBBE_2162
REMARK  14 active torsions:
REMARK  status: ('A' for Active; 'I' for Inactive)
REMARK    1  A    between atoms: C_2  and  C_3
REMARK    2  A    between atoms: C_2  and  C_11
REMARK    3  A    between atoms: C_4  and  O_5
REMARK    4  A    between atoms: C_9  and  O_10
REMARK    5  A    between atoms: C_11  and  C_12
REMARK    6  A    between atoms: C_12  and  C_13
REMARK    7  A    between atoms: C_13  and  C_14
REMARK    8  A    between atoms: C_14  and  C_15
REMARK    9  A    between atoms: C_15  and  C_16
REMARK   10  A    between atoms: C_16  and  C_17
REMARK   11  A    between atoms: C_17  and  C_18
REMARK   12  A    between atoms: C_18  and  C_19
REMARK   13  A    between atoms: C_19  and  C_20
REMARK   14  A    between atoms: C_20  and  C_21
REMARK                            x       y       z     vdW  Elec       q    Type
REMARK                         _______ _______ _______ _____ _____    ______ ____
ROOT
ATOM      1  C   LIG A   1      -7.483   0.683 124.666  0.00  0.00    +0.008 C 
ENDROOT
BRANCH   1   2
ATOM      2  C   LIG A   1      -7.408   2.081 125.305  0.00  0.00    +0.080 C 
BRANCH   2   4
ATOM      3  O   LIG A   1      -8.746   4.031 124.944  0.00  0.00    -0.292 OA
ATOM      4  C   LIG A   1      -7.788   3.302 124.489  0.00  0.00    +0.170 C 
BRANCH   4   5
ATOM      5  C   LIG A   1      -7.136   3.670 123.170  0.00  0.00    +0.100 A 
ATOM      6  C   LIG A   1      -7.787   3.468 121.933  0.00  0.00    +0.131 A 
ATOM      7  C   LIG A   1      -7.175   3.809 120.723  0.00  0.00    +0.046 A 
ATOM      8  C   LIG A   1      -5.839   4.181 120.683  0.00  0.00    +0.007 A 
ATOM      9  C   LIG A   1      -5.116   4.244 121.861  0.00  0.00    +0.046 A 
ATOM     10  C   LIG A   1      -5.776   4.089 123.090  0.00  0.00    +0.131 A 
BRANCH   6  11
ATOM     11  O   LIG A   1      -9.013   2.874 121.831  0.00  0.00    -0.506 OA
ATOM     12  H   LIG A   1      -8.975   2.081 121.272  0.00  0.00    +0.292 HD
ENDBRANCH   6  11
BRANCH  10  13
ATOM     13  O   LIG A   1      -4.981   4.231 124.203  0.00  0.00    -0.506 OA
ATOM     14  H   LIG A   1      -5.406   3.819 124.979  0.00  0.00    +0.292 HD
ENDBRANCH  10  13
ENDBRANCH   4   5
ENDBRANCH   2   4
ENDBRANCH   1   2
BRANCH   1  15
ATOM     15  C   LIG A   1      -8.848   0.023 124.629  0.00  0.00    +0.000 C 
BRANCH  15  16
ATOM     16  C   LIG A   1      -9.315  -0.271 123.231  0.00  0.00    +0.000 C 
BRANCH  16  17
ATOM     17  C   LIG A   1      -9.232  -1.689 122.668  0.00  0.00    -0.000 C 
BRANCH  17  18
ATOM     18  C   LIG A   1      -8.018  -2.569 123.055  0.00  0.00    -0.000 C 
BRANCH  18  19
ATOM     19  C   LIG A   1      -6.641  -2.116 122.591  0.00  0.00    +0.000 C 
BRANCH  19  20
ATOM     20  C   LIG A   1      -5.461  -2.225 123.549  0.00  0.00    +0.000 C 
BRANCH  20  21
ATOM     21  C   LIG A   1      -5.532  -2.923 124.875  0.00  0.00    +0.005 C 
BRANCH  21  22
ATOM     22  C   LIG A   1      -5.833  -2.014 126.029  0.00  0.00    +0.035 C 
BRANCH  22  23
ATOM     23  C   LIG A   1      -6.775  -2.591 126.994  0.00  0.00    -0.047 A 
ATOM     24  C   LIG A   1      -7.961  -3.153 126.535  0.00  0.00    +0.003 A 
ATOM     25  C   LIG A   1      -8.889  -3.552 127.470  0.00  0.00    +0.000 A 
ATOM     26  C   LIG A   1      -8.600  -3.397 128.831  0.00  0.00    +0.000 A 
ATOM     27  C   LIG A   1      -7.363  -2.919 129.269  0.00  0.00    +0.000 A 
ATOM     28  C   LIG A   1      -6.431  -2.528 128.341  0.00  0.00    +0.003 A 
ENDBRANCH  22  23
ENDBRANCH  21  22
ENDBRANCH  20  21
ENDBRANCH  19  20
ENDBRANCH  18  19
ENDBRANCH  17  18
ENDBRANCH  16  17
ENDBRANCH  15  16
ENDBRANCH   1  15
TORSDOF 14
ENDMDL
MODEL 8
REMARK VINA RESULT:      -6.0      7.047      9.273
REMARK  Name = NuBBE_2162
REMARK  14 active torsions:
REMARK  status: ('A' for Active; 'I' for Inactive)
REMARK    1  A    between atoms: C_2  and  C_3
REMARK    2  A    between atoms: C_2  and  C_11
REMARK    3  A    between atoms: C_4  and  O_5
REMARK    4  A    between atoms: C_9  and  O_10
REMARK    5  A    between atoms: C_11  and  C_12
REMARK    6  A    between atoms: C_12  and  C_13
REMARK    7  A    between atoms: C_13  and  C_14
REMARK    8  A    between atoms: C_14  and  C_15
REMARK    9  A    between atoms: C_15  and  C_16
REMARK   10  A    between atoms: C_16  and  C_17
REMARK   11  A    between atoms: C_17  and  C_18
REMARK   12  A    between atoms: C_18  and  C_19
REMARK   13  A    between atoms: C_19  and  C_20
REMARK   14  A    between atoms: C_20  and  C_21
REMARK                            x       y       z     vdW  Elec       q    Type
REMARK                         _______ _______ _______ _____ _____    ______ ____
ROOT
ATOM      1  C   LIG A   1      -8.133   5.721 131.693  0.00  0.00    +0.008 C 
ENDROOT
BRANCH   1   2
ATOM      2  C   LIG A   1      -8.754   4.792 130.635  0.00  0.00    +0.080 C 
BRANCH   2   4
ATOM      3  O   LIG A   1     -10.924   3.883 130.204  0.00  0.00    -0.292 OA
ATOM      4  C   LIG A   1     -10.214   4.955 130.256  0.00  0.00    +0.170 C 
BRANCH   4   5
ATOM      5  C   LIG A   1     -10.848   6.285 129.899  0.00  0.00    +0.100 A 
ATOM      6  C   LIG A   1     -11.846   6.877 130.704  0.00  0.00    +0.131 A 
ATOM      7  C   LIG A   1     -12.425   8.104 130.364  0.00  0.00    +0.046 A 
ATOM      8  C   LIG A   1     -12.175   8.689 129.131  0.00  0.00    +0.007 A 
ATOM      9  C   LIG A   1     -11.319   8.062 128.243  0.00  0.00    +0.046 A 
ATOM     10  C   LIG A   1     -10.592   6.936 128.657  0.00  0.00    +0.131 A 
BRANCH   6  11
ATOM     11  O   LIG A   1     -12.353   6.271 131.818  0.00  0.00    -0.506 OA
ATOM     12  H   LIG A   1     -11.794   5.528 132.100  0.00  0.00    +0.292 HD
ENDBRANCH   6  11
BRANCH  10  13
ATOM     13  O   LIG A   1      -9.722   6.425 127.722  0.00  0.00    -0.506 OA
ATOM     14  H   LIG A   1     -10.062   6.576 126.821  0.00  0.00    +0.292 HD
ENDBRANCH  10  13
ENDBRANCH   4   5
ENDBRANCH   2   4
ENDBRANCH   1   2
BRANCH   1  15
ATOM     15  C   LIG A   1      -7.415   6.954 131.180  0.00  0.00    +0.000 C 
BRANCH  15  16
ATOM     16  C   LIG A   1      -6.060   6.644 130.609  0.00  0.00    +0.000 C 
BRANCH  16  17
ATOM     17  C   LIG A   1      -4.795   7.180 131.278  0.00  0.00    -0.000 C 
BRANCH  17  18
ATOM     18  C   LIG A   1      -3.739   7.894 130.400  0.00  0.00    -0.000 C 
BRANCH  18  19
ATOM     19  C   LIG A   1      -3.657   7.499 128.932  0.00  0.00    +0.000 C 
BRANCH  19  20
ATOM     20  C   LIG A   1      -2.438   6.732 128.435  0.00  0.00    +0.000 C 
BRANCH  20  21
ATOM     21  C   LIG A   1      -2.426   5.247 128.218  0.00  0.00    +0.005 C 
BRANCH  21  22
ATOM     22  C   LIG A   1      -3.788   4.619 128.215  0.00  0.00    +0.035 C 
BRANCH  22  23
ATOM     23  C   LIG A   1      -4.117   3.940 129.472  0.00  0.00    -0.047 A 
ATOM     24  C   LIG A   1      -5.320   3.250 129.578  0.00  0.00    +0.003 A 
ATOM     25  C   LIG A   1      -5.669   2.750 130.812  0.00  0.00    +0.000 A 
ATOM     26  C   LIG A   1      -4.803   2.935 131.896  0.00  0.00    +0.000 A 
ATOM     27  C   LIG A   1      -3.557   3.547 131.744  0.00  0.00    +0.000 A 
ATOM     28  C   LIG A   1      -3.201   4.040 130.514  0.00  0.00    +0.003 A 
ENDBRANCH  22  23
ENDBRANCH  21  22
ENDBRANCH  20  21
ENDBRANCH  19  20
ENDBRANCH  18  19
ENDBRANCH  17  18
ENDBRANCH  16  17
ENDBRANCH  15  16
ENDBRANCH   1  15
TORSDOF 14
ENDMDL
MODEL 9
REMARK VINA RESULT:      -6.0      7.731      9.688
REMARK  Name = NuBBE_2162
REMARK  14 active torsions:
REMARK  status: ('A' for Active; 'I' for Inactive)
REMARK    1  A    between atoms: C_2  and  C_3
REMARK    2  A    between atoms: C_2  and  C_11
REMARK    3  A    between atoms: C_4  and  O_5
REMARK    4  A    between atoms: C_9  and  O_10
REMARK    5  A    between atoms: C_11  and  C_12
REMARK    6  A    between atoms: C_12  and  C_13
REMARK    7  A    between atoms: C_13  and  C_14
REMARK    8  A    between atoms: C_14  and  C_15
REMARK    9  A    between atoms: C_15  and  C_16
REMARK   10  A    between atoms: C_16  and  C_17
REMARK   11  A    between atoms: C_17  and  C_18
REMARK   12  A    between atoms: C_18  and  C_19
REMARK   13  A    between atoms: C_19  and  C_20
REMARK   14  A    between atoms: C_20  and  C_21
REMARK                            x       y       z     vdW  Elec       q    Type
REMARK                         _______ _______ _______ _____ _____    ______ ____
ROOT
ATOM      1  C   LIG A   1      -8.359   5.724 130.735  0.00  0.00    +0.008 C 
ENDROOT
BRANCH   1   2
ATOM      2  C   LIG A   1      -9.747   5.288 131.234  0.00  0.00    +0.080 C 
BRANCH   2   4
ATOM      3  O   LIG A   1     -11.429   4.162 129.958  0.00  0.00    -0.292 OA
ATOM      4  C   LIG A   1     -10.928   5.302 130.281  0.00  0.00    +0.170 C 
BRANCH   4   5
ATOM      5  C   LIG A   1     -11.501   6.566 129.670  0.00  0.00    +0.100 A 
ATOM      6  C   LIG A   1     -11.023   7.089 128.448  0.00  0.00    +0.131 A 
ATOM      7  C   LIG A   1     -11.559   8.257 127.896  0.00  0.00    +0.046 A 
ATOM      8  C   LIG A   1     -12.446   9.042 128.617  0.00  0.00    +0.007 A 
ATOM      9  C   LIG A   1     -12.826   8.644 129.887  0.00  0.00    +0.046 A 
ATOM     10  C   LIG A   1     -12.441   7.383 130.364  0.00  0.00    +0.131 A 
BRANCH   6  11
ATOM     11  O   LIG A   1      -9.976   6.537 127.767  0.00  0.00    -0.506 OA
ATOM     12  H   LIG A   1      -9.374   7.221 127.430  0.00  0.00    +0.292 HD
ENDBRANCH   6  11
BRANCH  10  13
ATOM     13  O   LIG A   1     -12.921   7.056 131.611  0.00  0.00    -0.506 OA
ATOM     14  H   LIG A   1     -13.893   6.976 131.591  0.00  0.00    +0.292 HD
ENDBRANCH  10  13
ENDBRANCH   4   5
ENDBRANCH   2   4
ENDBRANCH   1   2
BRANCH   1  15
ATOM     15  C   LIG A   1      -7.520   6.550 131.691  0.00  0.00    +0.000 C 
BRANCH  15  16
ATOM     16  C   LIG A   1      -6.222   7.003 131.083  0.00  0.00    +0.000 C 
BRANCH  16  17
ATOM     17  C   LIG A   1      -4.938   6.205 131.311  0.00  0.00    -0.000 C 
BRANCH  17  18
ATOM     18  C   LIG A   1      -4.430   5.281 130.178  0.00  0.00    -0.000 C 
BRANCH  18  19
ATOM     19  C   LIG A   1      -3.447   4.180 130.550  0.00  0.00    +0.000 C 
BRANCH  19  20
ATOM     20  C   LIG A   1      -3.981   2.831 131.016  0.00  0.00    +0.000 C 
BRANCH  20  21
ATOM     21  C   LIG A   1      -4.539   2.591 132.388  0.00  0.00    +0.005 C 
BRANCH  21  22
ATOM     22  C   LIG A   1      -6.035   2.491 132.431  0.00  0.00    +0.035 C 
BRANCH  22  23
ATOM     23  C   LIG A   1      -6.646   3.349 133.450  0.00  0.00    -0.047 A 
ATOM     24  C   LIG A   1      -8.018   3.276 133.669  0.00  0.00    +0.003 A 
ATOM     25  C   LIG A   1      -8.583   4.195 134.523  0.00  0.00    +0.000 A 
ATOM     26  C   LIG A   1      -7.766   5.144 135.147  0.00  0.00    +0.000 A 
ATOM     27  C   LIG A   1      -6.379   5.138 134.987  0.00  0.00    +0.000 A 
ATOM     28  C   LIG A   1      -5.809   4.219 134.143  0.00  0.00    +0.003 A 
ENDBRANCH  22  23
ENDBRANCH  21  22
ENDBRANCH  20  21
ENDBRANCH  19  20
ENDBRANCH  18  19
ENDBRANCH  17  18
ENDBRANCH  16  17
ENDBRANCH  15  16
ENDBRANCH   1  15
TORSDOF 14
ENDMDL
