MODEL 1
REMARK VINA RESULT:      -5.7      0.000      0.000
REMARK  Name = NuBBE_1790
REMARK  14 active torsions:
REMARK  status: ('A' for Active; 'I' for Inactive)
REMARK    1  A    between atoms: C_1  and  C_2
REMARK    2  A    between atoms: C_1  and  C_7
REMARK    3  A    between atoms: C_2  and  C_4
REMARK    4  A    between atoms: C_2  and  O_6
REMARK    5  A    between atoms: C_4  and  O_5
REMARK    6  A    between atoms: C_10  and  C_15
REMARK    7  A    between atoms: C_15  and  C_16
REMARK    8  A    between atoms: C_16  and  C_17
REMARK    9  A    between atoms: C_17  and  C_18
REMARK   10  A    between atoms: C_18  and  C_19
REMARK   11  A    between atoms: C_19  and  C_20
REMARK   12  A    between atoms: C_20  and  C_21
REMARK   13  A    between atoms: C_21  and  C_22
REMARK   14  A    between atoms: C_22  and  C_23
REMARK                            x       y       z     vdW  Elec       q    Type
REMARK                         _______ _______ _______ _____ _____    ______ ____
ROOT
ATOM      1  C   LIG A   1      -8.889   0.681 123.590  0.00  0.00    +0.104 C 
ATOM      2  C   LIG A   1      -7.876  -0.426 123.367  0.00  0.00    +0.059 C 
ATOM      3  C   LIG A   1      -8.613  -1.559 122.685  0.00  0.00    +0.177 C 
ATOM      4  O   LIG A   1      -9.991  -1.196 122.651  0.00  0.00    -0.461 OA
ATOM      5  C   LIG A   1     -10.131   0.128 122.940  0.00  0.00    +0.311 C 
ATOM      6  O   LIG A   1     -11.151   0.766 122.729  0.00  0.00    -0.251 OA
ENDROOT
BRANCH   1   7
ATOM      7  C   LIG A   1      -9.193   1.047 125.054  0.00  0.00    +0.048 C 
BRANCH   7   8
ATOM      8  C   LIG A   1      -8.379   2.190 125.679  0.00  0.00    +0.141 C 
BRANCH   8   9
ATOM      9  O   LIG A   1      -7.065   1.741 126.012  0.00  0.00    -0.390 OA
ATOM     10  H   LIG A   1      -6.908   0.949 125.460  0.00  0.00    +0.210 HD
ENDBRANCH   8   9
BRANCH   8  11
ATOM     11  C   LIG A   1      -8.277   3.447 124.808  0.00  0.00    +0.187 C 
BRANCH  11  12
ATOM     12  O   LIG A   1      -9.003   4.497 125.456  0.00  0.00    -0.393 OA
ATOM     13  H   LIG A   1      -8.900   4.366 126.416  0.00  0.00    +0.209 HD
ENDBRANCH  11  12
ENDBRANCH   8  11
ENDBRANCH   7   8
ENDBRANCH   1   7
BRANCH   3  14
ATOM     14  C   LIG A   1      -8.386  -2.939 123.338  0.00  0.00    +0.045 C 
BRANCH  14  15
ATOM     15  C   LIG A   1      -9.488  -3.415 124.310  0.00  0.00    +0.003 C 
BRANCH  15  16
ATOM     16  C   LIG A   1      -9.403  -2.712 125.681  0.00  0.00    +0.000 C 
BRANCH  16  17
ATOM     17  C   LIG A   1      -8.821  -3.614 126.788  0.00  0.00    -0.000 C 
BRANCH  17  18
ATOM     18  C   LIG A   1      -7.754  -2.890 127.637  0.00  0.00    +0.000 C 
BRANCH  18  19
ATOM     19  C   LIG A   1      -7.203  -1.630 126.943  0.00  0.00    +0.001 C 
BRANCH  19  20
ATOM     20  C   LIG A   1      -5.694  -1.725 126.648  0.00  0.00    +0.013 C 
BRANCH  20  21
ATOM     21  C   LIG A   1      -5.343  -1.577 125.164  0.00  0.00    +0.088 C 
BRANCH  21  22
ATOM     22  C   LIG A   1      -5.108  -2.878 124.487  0.00  0.00    -0.106 C 
ATOM     23  C   LIG A   1      -4.932  -3.914 123.926  0.00  0.00    +0.004 C 
ENDBRANCH  21  22
ENDBRANCH  20  21
ENDBRANCH  19  20
ENDBRANCH  18  19
ENDBRANCH  17  18
ENDBRANCH  16  17
ENDBRANCH  15  16
ENDBRANCH  14  15
ENDBRANCH   3  14
TORSDOF 14
ENDMDL
MODEL 2
REMARK VINA RESULT:      -5.6      2.125      3.259
REMARK  Name = NuBBE_1790
REMARK  14 active torsions:
REMARK  status: ('A' for Active; 'I' for Inactive)
REMARK    1  A    between atoms: C_1  and  C_2
REMARK    2  A    between atoms: C_1  and  C_7
REMARK    3  A    between atoms: C_2  and  C_4
REMARK    4  A    between atoms: C_2  and  O_6
REMARK    5  A    between atoms: C_4  and  O_5
REMARK    6  A    between atoms: C_10  and  C_15
REMARK    7  A    between atoms: C_15  and  C_16
REMARK    8  A    between atoms: C_16  and  C_17
REMARK    9  A    between atoms: C_17  and  C_18
REMARK   10  A    between atoms: C_18  and  C_19
REMARK   11  A    between atoms: C_19  and  C_20
REMARK   12  A    between atoms: C_20  and  C_21
REMARK   13  A    between atoms: C_21  and  C_22
REMARK   14  A    between atoms: C_22  and  C_23
REMARK                            x       y       z     vdW  Elec       q    Type
REMARK                         _______ _______ _______ _____ _____    ______ ____
ROOT
ATOM      1  C   LIG A   1      -6.802   1.715 124.848  0.00  0.00    +0.104 C 
ATOM      2  C   LIG A   1      -6.291   0.336 125.223  0.00  0.00    +0.059 C 
ATOM      3  C   LIG A   1      -7.240  -0.208 126.269  0.00  0.00    +0.177 C 
ATOM      4  O   LIG A   1      -8.149   0.840 126.591  0.00  0.00    -0.461 OA
ATOM      5  C   LIG A   1      -8.067   1.830 125.659  0.00  0.00    +0.311 C 
ATOM      6  O   LIG A   1      -8.899   2.716 125.531  0.00  0.00    -0.251 OA
ENDROOT
BRANCH   1   7
ATOM      7  C   LIG A   1      -5.872   2.900 125.170  0.00  0.00    +0.048 C 
BRANCH   7   8
ATOM      8  C   LIG A   1      -6.036   4.173 124.327  0.00  0.00    +0.141 C 
BRANCH   8   9
ATOM      9  O   LIG A   1      -7.023   3.976 123.314  0.00  0.00    -0.390 OA
ATOM     10  H   LIG A   1      -6.942   3.039 123.045  0.00  0.00    +0.210 HD
ENDBRANCH   8   9
BRANCH   8  11
ATOM     11  C   LIG A   1      -6.383   5.429 125.134  0.00  0.00    +0.187 C 
BRANCH  11  12
ATOM     12  O   LIG A   1      -7.809   5.506 125.243  0.00  0.00    -0.393 OA
ATOM     13  H   LIG A   1      -8.176   4.769 124.722  0.00  0.00    +0.209 HD
ENDBRANCH  11  12
ENDBRANCH   8  11
ENDBRANCH   7   8
ENDBRANCH   1   7
BRANCH   3  14
ATOM     14  C   LIG A   1      -6.535  -0.778 127.520  0.00  0.00    +0.045 C 
BRANCH  14  15
ATOM     15  C   LIG A   1      -6.725  -2.290 127.769  0.00  0.00    +0.003 C 
BRANCH  15  16
ATOM     16  C   LIG A   1      -8.206  -2.667 127.985  0.00  0.00    +0.000 C 
BRANCH  16  17
ATOM     17  C   LIG A   1      -8.740  -3.653 126.926  0.00  0.00    -0.000 C 
BRANCH  17  18
ATOM     18  C   LIG A   1      -9.540  -2.944 125.813  0.00  0.00    +0.000 C 
BRANCH  18  19
ATOM     19  C   LIG A   1      -8.860  -3.055 124.435  0.00  0.00    +0.001 C 
BRANCH  19  20
ATOM     20  C   LIG A   1      -7.544  -3.854 124.484  0.00  0.00    +0.013 C 
BRANCH  20  21
ATOM     21  C   LIG A   1      -6.318  -3.057 124.024  0.00  0.00    +0.088 C 
BRANCH  21  22
ATOM     22  C   LIG A   1      -5.121  -3.906 123.796  0.00  0.00    -0.106 C 
ATOM     23  C   LIG A   1      -4.151  -4.578 123.632  0.00  0.00    +0.004 C 
ENDBRANCH  21  22
ENDBRANCH  20  21
ENDBRANCH  19  20
ENDBRANCH  18  19
ENDBRANCH  17  18
ENDBRANCH  16  17
ENDBRANCH  15  16
ENDBRANCH  14  15
ENDBRANCH   3  14
TORSDOF 14
ENDMDL
MODEL 3
REMARK VINA RESULT:      -5.6      2.082      2.914
REMARK  Name = NuBBE_1790
REMARK  14 active torsions:
REMARK  status: ('A' for Active; 'I' for Inactive)
REMARK    1  A    between atoms: C_1  and  C_2
REMARK    2  A    between atoms: C_1  and  C_7
REMARK    3  A    between atoms: C_2  and  C_4
REMARK    4  A    between atoms: C_2  and  O_6
REMARK    5  A    between atoms: C_4  and  O_5
REMARK    6  A    between atoms: C_10  and  C_15
REMARK    7  A    between atoms: C_15  and  C_16
REMARK    8  A    between atoms: C_16  and  C_17
REMARK    9  A    between atoms: C_17  and  C_18
REMARK   10  A    between atoms: C_18  and  C_19
REMARK   11  A    between atoms: C_19  and  C_20
REMARK   12  A    between atoms: C_20  and  C_21
REMARK   13  A    between atoms: C_21  and  C_22
REMARK   14  A    between atoms: C_22  and  C_23
REMARK                            x       y       z     vdW  Elec       q    Type
REMARK                         _______ _______ _______ _____ _____    ______ ____
ROOT
ATOM      1  C   LIG A   1      -8.275  -0.213 123.172  0.00  0.00    +0.104 C 
ATOM      2  C   LIG A   1      -7.543  -1.500 123.500  0.00  0.00    +0.059 C 
ATOM      3  C   LIG A   1      -8.550  -2.621 123.355  0.00  0.00    +0.177 C 
ATOM      4  O   LIG A   1      -9.815  -2.014 123.109  0.00  0.00    -0.461 OA
ATOM      5  C   LIG A   1      -9.646  -0.703 122.781  0.00  0.00    +0.311 C 
ATOM      6  O   LIG A   1     -10.513  -0.011 122.270  0.00  0.00    -0.251 OA
ENDROOT
BRANCH   1   7
ATOM      7  C   LIG A   1      -8.400   0.814 124.313  0.00  0.00    +0.048 C 
BRANCH   7   8
ATOM      8  C   LIG A   1      -8.890   2.221 123.945  0.00  0.00    +0.141 C 
BRANCH   8   9
ATOM      9  O   LIG A   1      -9.341   2.912 125.110  0.00  0.00    -0.390 OA
ATOM     10  H   LIG A   1      -8.533   3.135 125.614  0.00  0.00    +0.210 HD
ENDBRANCH   8   9
BRANCH   8  11
ATOM     11  C   LIG A   1      -7.854   3.084 123.216  0.00  0.00    +0.187 C 
BRANCH  11  12
ATOM     12  O   LIG A   1      -8.492   3.682 122.082  0.00  0.00    -0.393 OA
ATOM     13  H   LIG A   1      -7.788   4.048 121.517  0.00  0.00    +0.209 HD
ENDBRANCH  11  12
ENDBRANCH   8  11
ENDBRANCH   7   8
ENDBRANCH   1   7
BRANCH   3  14
ATOM     14  C   LIG A   1      -8.588  -3.590 124.557  0.00  0.00    +0.045 C 
BRANCH  14  15
ATOM     15  C   LIG A   1      -9.316  -3.073 125.817  0.00  0.00    +0.003 C 
BRANCH  15  16
ATOM     16  C   LIG A   1      -8.428  -3.146 127.077  0.00  0.00    +0.000 C 
BRANCH  16  17
ATOM     17  C   LIG A   1      -7.859  -1.776 127.496  0.00  0.00    -0.000 C 
BRANCH  17  18
ATOM     18  C   LIG A   1      -7.644  -1.670 129.021  0.00  0.00    +0.000 C 
BRANCH  18  19
ATOM     19  C   LIG A   1      -7.928  -2.996 129.751  0.00  0.00    +0.001 C 
BRANCH  19  20
ATOM     20  C   LIG A   1      -6.849  -3.343 130.795  0.00  0.00    +0.013 C 
BRANCH  20  21
ATOM     21  C   LIG A   1      -5.858  -4.415 130.328  0.00  0.00    +0.088 C 
BRANCH  21  22
ATOM     22  C   LIG A   1      -4.585  -3.849 129.814  0.00  0.00    -0.106 C 
ATOM     23  C   LIG A   1      -3.557  -3.389 129.423  0.00  0.00    +0.004 C 
ENDBRANCH  21  22
ENDBRANCH  20  21
ENDBRANCH  19  20
ENDBRANCH  18  19
ENDBRANCH  17  18
ENDBRANCH  16  17
ENDBRANCH  15  16
ENDBRANCH  14  15
ENDBRANCH   3  14
TORSDOF 14
ENDMDL
MODEL 4
REMARK VINA RESULT:      -5.5      6.521      9.252
REMARK  Name = NuBBE_1790
REMARK  14 active torsions:
REMARK  status: ('A' for Active; 'I' for Inactive)
REMARK    1  A    between atoms: C_1  and  C_2
REMARK    2  A    between atoms: C_1  and  C_7
REMARK    3  A    between atoms: C_2  and  C_4
REMARK    4  A    between atoms: C_2  and  O_6
REMARK    5  A    between atoms: C_4  and  O_5
REMARK    6  A    between atoms: C_10  and  C_15
REMARK    7  A    between atoms: C_15  and  C_16
REMARK    8  A    between atoms: C_16  and  C_17
REMARK    9  A    between atoms: C_17  and  C_18
REMARK   10  A    between atoms: C_18  and  C_19
REMARK   11  A    between atoms: C_19  and  C_20
REMARK   12  A    between atoms: C_20  and  C_21
REMARK   13  A    between atoms: C_21  and  C_22
REMARK   14  A    between atoms: C_22  and  C_23
REMARK                            x       y       z     vdW  Elec       q    Type
REMARK                         _______ _______ _______ _____ _____    ______ ____
ROOT
ATOM      1  C   LIG A   1     -12.228   5.860 130.179  0.00  0.00    +0.104 C 
ATOM      2  C   LIG A   1     -10.902   5.155 130.392  0.00  0.00    +0.059 C 
ATOM      3  C   LIG A   1     -10.249   5.812 131.590  0.00  0.00    +0.177 C 
ATOM      4  O   LIG A   1     -11.068   6.919 131.954  0.00  0.00    -0.461 OA
ATOM      5  C   LIG A   1     -12.277   6.828 131.333  0.00  0.00    +0.311 C 
ATOM      6  O   LIG A   1     -13.259   7.480 131.654  0.00  0.00    -0.251 OA
ENDROOT
BRANCH   1   7
ATOM      7  C   LIG A   1     -12.392   6.627 128.854  0.00  0.00    +0.048 C 
BRANCH   7   8
ATOM      8  C   LIG A   1     -11.111   7.045 128.118  0.00  0.00    +0.141 C 
BRANCH   8   9
ATOM      9  O   LIG A   1     -11.205   6.723 126.731  0.00  0.00    -0.390 OA
ATOM     10  H   LIG A   1     -10.599   5.967 126.593  0.00  0.00    +0.210 HD
ENDBRANCH   8   9
BRANCH   8  11
ATOM     11  C   LIG A   1     -10.746   8.526 128.269  0.00  0.00    +0.187 C 
BRANCH  11  12
ATOM     12  O   LIG A   1     -11.948   9.253 128.547  0.00  0.00    -0.393 OA
ATOM     13  H   LIG A   1     -11.693  10.040 129.062  0.00  0.00    +0.209 HD
ENDBRANCH  11  12
ENDBRANCH   8  11
ENDBRANCH   7   8
ENDBRANCH   1   7
BRANCH   3  14
ATOM     14  C   LIG A   1      -8.778   6.221 131.358  0.00  0.00    +0.045 C 
BRANCH  14  15
ATOM     15  C   LIG A   1      -8.090   5.593 130.127  0.00  0.00    +0.003 C 
BRANCH  15  16
ATOM     16  C   LIG A   1      -7.368   4.273 130.469  0.00  0.00    +0.000 C 
BRANCH  16  17
ATOM     17  C   LIG A   1      -7.550   3.187 129.390  0.00  0.00    -0.000 C 
BRANCH  17  18
ATOM     18  C   LIG A   1      -8.754   2.267 129.677  0.00  0.00    +0.000 C 
BRANCH  18  19
ATOM     19  C   LIG A   1      -8.345   0.961 130.385  0.00  0.00    +0.001 C 
BRANCH  19  20
ATOM     20  C   LIG A   1      -9.072   0.760 131.728  0.00  0.00    +0.013 C 
BRANCH  20  21
ATOM     21  C   LIG A   1      -9.891   1.975 132.177  0.00  0.00    +0.088 C 
BRANCH  21  22
ATOM     22  C   LIG A   1      -9.183   2.821 133.172  0.00  0.00    -0.106 C 
ATOM     23  C   LIG A   1      -8.634   3.500 133.983  0.00  0.00    +0.004 C 
ENDBRANCH  21  22
ENDBRANCH  20  21
ENDBRANCH  19  20
ENDBRANCH  18  19
ENDBRANCH  17  18
ENDBRANCH  16  17
ENDBRANCH  15  16
ENDBRANCH  14  15
ENDBRANCH   3  14
TORSDOF 14
ENDMDL
MODEL 5
REMARK VINA RESULT:      -5.4      8.195     10.051
REMARK  Name = NuBBE_1790
REMARK  14 active torsions:
REMARK  status: ('A' for Active; 'I' for Inactive)
REMARK    1  A    between atoms: C_1  and  C_2
REMARK    2  A    between atoms: C_1  and  C_7
REMARK    3  A    between atoms: C_2  and  C_4
REMARK    4  A    between atoms: C_2  and  O_6
REMARK    5  A    between atoms: C_4  and  O_5
REMARK    6  A    between atoms: C_10  and  C_15
REMARK    7  A    between atoms: C_15  and  C_16
REMARK    8  A    between atoms: C_16  and  C_17
REMARK    9  A    between atoms: C_17  and  C_18
REMARK   10  A    between atoms: C_18  and  C_19
REMARK   11  A    between atoms: C_19  and  C_20
REMARK   12  A    between atoms: C_20  and  C_21
REMARK   13  A    between atoms: C_21  and  C_22
REMARK   14  A    between atoms: C_22  and  C_23
REMARK                            x       y       z     vdW  Elec       q    Type
REMARK                         _______ _______ _______ _____ _____    ______ ____
ROOT
ATOM      1  C   LIG A   1     -11.313   6.614 130.004  0.00  0.00    +0.104 C 
ATOM      2  C   LIG A   1      -9.978   5.911 130.166  0.00  0.00    +0.059 C 
ATOM      3  C   LIG A   1      -9.752   5.748 131.654  0.00  0.00    +0.177 C 
ATOM      4  O   LIG A   1     -10.807   6.442 132.313  0.00  0.00    -0.461 OA
ATOM      5  C   LIG A   1     -11.799   6.734 131.425  0.00  0.00    +0.311 C 
ATOM      6  O   LIG A   1     -12.923   7.083 131.751  0.00  0.00    -0.251 OA
ENDROOT
BRANCH   1   7
ATOM      7  C   LIG A   1     -11.277   8.009 129.352  0.00  0.00    +0.048 C 
BRANCH   7   8
ATOM      8  C   LIG A   1     -11.448   8.080 127.828  0.00  0.00    +0.141 C 
BRANCH   8   9
ATOM      9  O   LIG A   1     -10.250   7.663 127.173  0.00  0.00    -0.390 OA
ATOM     10  H   LIG A   1     -10.143   8.265 126.409  0.00  0.00    +0.210 HD
ENDBRANCH   8   9
BRANCH   8  11
ATOM     11  C   LIG A   1     -12.629   7.270 127.282  0.00  0.00    +0.187 C 
BRANCH  11  12
ATOM     12  O   LIG A   1     -12.186   6.568 126.116  0.00  0.00    -0.393 OA
ATOM     13  H   LIG A   1     -11.312   6.191 126.324  0.00  0.00    +0.209 HD
ENDBRANCH  11  12
ENDBRANCH   8  11
ENDBRANCH   7   8
ENDBRANCH   1   7
BRANCH   3  14
ATOM     14  C   LIG A   1      -8.358   6.209 132.131  0.00  0.00    +0.045 C 
BRANCH  14  15
ATOM     15  C   LIG A   1      -7.514   6.985 131.097  0.00  0.00    +0.003 C 
BRANCH  15  16
ATOM     16  C   LIG A   1      -6.076   6.434 130.983  0.00  0.00    +0.000 C 
BRANCH  16  17
ATOM     17  C   LIG A   1      -5.504   5.954 132.332  0.00  0.00    -0.000 C 
BRANCH  17  18
ATOM     18  C   LIG A   1      -4.176   6.654 132.690  0.00  0.00    +0.000 C 
BRANCH  18  19
ATOM     19  C   LIG A   1      -3.552   7.388 131.488  0.00  0.00    +0.001 C 
BRANCH  19  20
ATOM     20  C   LIG A   1      -2.215   6.767 131.041  0.00  0.00    +0.013 C 
BRANCH  20  21
ATOM     21  C   LIG A   1      -2.241   6.202 129.616  0.00  0.00    +0.088 C 
BRANCH  21  22
ATOM     22  C   LIG A   1      -2.994   4.926 129.507  0.00  0.00    -0.106 C 
ATOM     23  C   LIG A   1      -3.578   3.892 129.417  0.00  0.00    +0.004 C 
ENDBRANCH  21  22
ENDBRANCH  20  21
ENDBRANCH  19  20
ENDBRANCH  18  19
ENDBRANCH  17  18
ENDBRANCH  16  17
ENDBRANCH  15  16
ENDBRANCH  14  15
ENDBRANCH   3  14
TORSDOF 14
ENDMDL
MODEL 6
REMARK VINA RESULT:      -5.3      2.381      3.289
REMARK  Name = NuBBE_1790
REMARK  14 active torsions:
REMARK  status: ('A' for Active; 'I' for Inactive)
REMARK    1  A    between atoms: C_1  and  C_2
REMARK    2  A    between atoms: C_1  and  C_7
REMARK    3  A    between atoms: C_2  and  C_4
REMARK    4  A    between atoms: C_2  and  O_6
REMARK    5  A    between atoms: C_4  and  O_5
REMARK    6  A    between atoms: C_10  and  C_15
REMARK    7  A    between atoms: C_15  and  C_16
REMARK    8  A    between atoms: C_16  and  C_17
REMARK    9  A    between atoms: C_17  and  C_18
REMARK   10  A    between atoms: C_18  and  C_19
REMARK   11  A    between atoms: C_19  and  C_20
REMARK   12  A    between atoms: C_20  and  C_21
REMARK   13  A    between atoms: C_21  and  C_22
REMARK   14  A    between atoms: C_22  and  C_23
REMARK                            x       y       z     vdW  Elec       q    Type
REMARK                         _______ _______ _______ _____ _____    ______ ____
ROOT
ATOM      1  C   LIG A   1      -8.302   2.986 123.297  0.00  0.00    +0.104 C 
ATOM      2  C   LIG A   1      -8.951   1.660 122.949  0.00  0.00    +0.059 C 
ATOM      3  C   LIG A   1      -9.633   1.167 124.208  0.00  0.00    +0.177 C 
ATOM      4  O   LIG A   1      -9.277   2.069 125.253  0.00  0.00    -0.461 OA
ATOM      5  C   LIG A   1      -8.731   3.200 124.726  0.00  0.00    +0.311 C 
ATOM      6  O   LIG A   1      -8.579   4.238 125.352  0.00  0.00    -0.251 OA
ENDROOT
BRANCH   1   7
ATOM      7  C   LIG A   1      -6.766   3.043 123.206  0.00  0.00    +0.048 C 
BRANCH   7   8
ATOM      8  C   LIG A   1      -6.156   3.965 122.141  0.00  0.00    +0.141 C 
BRANCH   8   9
ATOM      9  O   LIG A   1      -5.042   4.678 122.678  0.00  0.00    -0.390 OA
ATOM     10  H   LIG A   1      -4.432   3.995 123.021  0.00  0.00    +0.210 HD
ENDBRANCH   8   9
BRANCH   8  11
ATOM     11  C   LIG A   1      -5.726   3.252 120.854  0.00  0.00    +0.187 C 
BRANCH  11  12
ATOM     12  O   LIG A   1      -6.540   3.740 119.782  0.00  0.00    -0.393 OA
ATOM     13  H   LIG A   1      -5.944   3.938 119.037  0.00  0.00    +0.209 HD
ENDBRANCH  11  12
ENDBRANCH   8  11
ENDBRANCH   7   8
ENDBRANCH   1   7
BRANCH   3  14
ATOM     14  C   LIG A   1      -9.310  -0.300 124.564  0.00  0.00    +0.045 C 
BRANCH  14  15
ATOM     15  C   LIG A   1      -8.862  -1.196 123.389  0.00  0.00    +0.003 C 
BRANCH  15  16
ATOM     16  C   LIG A   1      -8.946  -2.698 123.732  0.00  0.00    +0.000 C 
BRANCH  16  17
ATOM     17  C   LIG A   1      -9.384  -2.963 125.187  0.00  0.00    -0.000 C 
BRANCH  17  18
ATOM     18  C   LIG A   1      -8.228  -3.491 126.062  0.00  0.00    +0.000 C 
BRANCH  18  19
ATOM     19  C   LIG A   1      -7.548  -2.377 126.879  0.00  0.00    +0.001 C 
BRANCH  19  20
ATOM     20  C   LIG A   1      -6.035  -2.277 126.606  0.00  0.00    +0.013 C 
BRANCH  20  21
ATOM     21  C   LIG A   1      -5.688  -1.548 125.304  0.00  0.00    +0.088 C 
BRANCH  21  22
ATOM     22  C   LIG A   1      -5.234  -2.463 124.225  0.00  0.00    -0.106 C 
ATOM     23  C   LIG A   1      -4.891  -3.205 123.358  0.00  0.00    +0.004 C 
ENDBRANCH  21  22
ENDBRANCH  20  21
ENDBRANCH  19  20
ENDBRANCH  18  19
ENDBRANCH  17  18
ENDBRANCH  16  17
ENDBRANCH  15  16
ENDBRANCH  14  15
ENDBRANCH   3  14
TORSDOF 14
ENDMDL
MODEL 7
REMARK VINA RESULT:      -5.3      1.791      2.902
REMARK  Name = NuBBE_1790
REMARK  14 active torsions:
REMARK  status: ('A' for Active; 'I' for Inactive)
REMARK    1  A    between atoms: C_1  and  C_2
REMARK    2  A    between atoms: C_1  and  C_7
REMARK    3  A    between atoms: C_2  and  C_4
REMARK    4  A    between atoms: C_2  and  O_6
REMARK    5  A    between atoms: C_4  and  O_5
REMARK    6  A    between atoms: C_10  and  C_15
REMARK    7  A    between atoms: C_15  and  C_16
REMARK    8  A    between atoms: C_16  and  C_17
REMARK    9  A    between atoms: C_17  and  C_18
REMARK   10  A    between atoms: C_18  and  C_19
REMARK   11  A    between atoms: C_19  and  C_20
REMARK   12  A    between atoms: C_20  and  C_21
REMARK   13  A    between atoms: C_21  and  C_22
REMARK   14  A    between atoms: C_22  and  C_23
REMARK                            x       y       z     vdW  Elec       q    Type
REMARK                         _______ _______ _______ _____ _____    ______ ____
ROOT
ATOM      1  C   LIG A   1      -7.150   2.282 124.456  0.00  0.00    +0.104 C 
ATOM      2  C   LIG A   1      -7.368   1.166 123.453  0.00  0.00    +0.059 C 
ATOM      3  C   LIG A   1      -8.841   1.178 123.104  0.00  0.00    +0.177 C 
ATOM      4  O   LIG A   1      -9.462   2.135 123.959  0.00  0.00    -0.461 OA
ATOM      5  C   LIG A   1      -8.515   2.913 124.552  0.00  0.00    +0.311 C 
ATOM      6  O   LIG A   1      -8.758   3.967 125.119  0.00  0.00    -0.251 OA
ENDROOT
BRANCH   1   7
ATOM      7  C   LIG A   1      -6.677   1.859 125.860  0.00  0.00    +0.048 C 
BRANCH   7   8
ATOM      8  C   LIG A   1      -5.362   2.462 126.373  0.00  0.00    +0.141 C 
BRANCH   8   9
ATOM      9  O   LIG A   1      -4.332   1.474 126.384  0.00  0.00    -0.390 OA
ATOM     10  H   LIG A   1      -3.953   1.497 127.285  0.00  0.00    +0.210 HD
ENDBRANCH   8   9
BRANCH   8  11
ATOM     11  C   LIG A   1      -4.878   3.688 125.591  0.00  0.00    +0.187 C 
BRANCH  11  12
ATOM     12  O   LIG A   1      -3.494   3.892 125.896  0.00  0.00    -0.393 OA
ATOM     13  H   LIG A   1      -2.986   3.631 125.107  0.00  0.00    +0.209 HD
ENDBRANCH  11  12
ENDBRANCH   8  11
ENDBRANCH   7   8
ENDBRANCH   1   7
BRANCH   3  14
ATOM     14  C   LIG A   1      -9.518  -0.207 123.185  0.00  0.00    +0.045 C 
BRANCH  14  15
ATOM     15  C   LIG A   1      -8.590  -1.423 122.971  0.00  0.00    +0.003 C 
BRANCH  15  16
ATOM     16  C   LIG A   1      -9.328  -2.765 123.167  0.00  0.00    +0.000 C 
BRANCH  16  17
ATOM     17  C   LIG A   1      -8.840  -3.550 124.401  0.00  0.00    -0.000 C 
BRANCH  17  18
ATOM     18  C   LIG A   1      -9.405  -2.984 125.720  0.00  0.00    +0.000 C 
BRANCH  18  19
ATOM     19  C   LIG A   1      -8.315  -2.774 126.788  0.00  0.00    +0.001 C 
BRANCH  19  20
ATOM     20  C   LIG A   1      -7.442  -1.536 126.512  0.00  0.00    +0.013 C 
BRANCH  20  21
ATOM     21  C   LIG A   1      -5.948  -1.849 126.377  0.00  0.00    +0.088 C 
BRANCH  21  22
ATOM     22  C   LIG A   1      -5.557  -2.248 125.000  0.00  0.00    -0.106 C 
ATOM     23  C   LIG A   1      -5.240  -2.545 123.891  0.00  0.00    +0.004 C 
ENDBRANCH  21  22
ENDBRANCH  20  21
ENDBRANCH  19  20
ENDBRANCH  18  19
ENDBRANCH  17  18
ENDBRANCH  16  17
ENDBRANCH  15  16
ENDBRANCH  14  15
ENDBRANCH   3  14
TORSDOF 14
ENDMDL
MODEL 8
REMARK VINA RESULT:      -5.3      7.299      9.651
REMARK  Name = NuBBE_1790
REMARK  14 active torsions:
REMARK  status: ('A' for Active; 'I' for Inactive)
REMARK    1  A    between atoms: C_1  and  C_2
REMARK    2  A    between atoms: C_1  and  C_7
REMARK    3  A    between atoms: C_2  and  C_4
REMARK    4  A    between atoms: C_2  and  O_6
REMARK    5  A    between atoms: C_4  and  O_5
REMARK    6  A    between atoms: C_10  and  C_15
REMARK    7  A    between atoms: C_15  and  C_16
REMARK    8  A    between atoms: C_16  and  C_17
REMARK    9  A    between atoms: C_17  and  C_18
REMARK   10  A    between atoms: C_18  and  C_19
REMARK   11  A    between atoms: C_19  and  C_20
REMARK   12  A    between atoms: C_20  and  C_21
REMARK   13  A    between atoms: C_21  and  C_22
REMARK   14  A    between atoms: C_22  and  C_23
REMARK                            x       y       z     vdW  Elec       q    Type
REMARK                         _______ _______ _______ _____ _____    ______ ____
ROOT
ATOM      1  C   LIG A   1     -11.904   5.819 129.939  0.00  0.00    +0.104 C 
ATOM      2  C   LIG A   1     -10.438   5.431 129.895  0.00  0.00    +0.059 C 
ATOM      3  C   LIG A   1      -9.789   6.047 131.116  0.00  0.00    +0.177 C 
ATOM      4  O   LIG A   1     -10.776   6.862 131.744  0.00  0.00    -0.461 OA
ATOM      5  C   LIG A   1     -12.008   6.572 131.240  0.00  0.00    +0.311 C 
ATOM      6  O   LIG A   1     -13.056   6.917 131.764  0.00  0.00    -0.251 OA
ENDROOT
BRANCH   1   7
ATOM      7  C   LIG A   1     -12.412   6.705 128.787  0.00  0.00    +0.048 C 
BRANCH   7   8
ATOM      8  C   LIG A   1     -11.816   8.115 128.666  0.00  0.00    +0.141 C 
BRANCH   8   9
ATOM      9  O   LIG A   1     -11.074   8.239 127.452  0.00  0.00    -0.390 OA
ATOM     10  H   LIG A   1     -11.274   9.134 127.111  0.00  0.00    +0.210 HD
ENDBRANCH   8   9
BRANCH   8  11
ATOM     11  C   LIG A   1     -12.844   9.249 128.747  0.00  0.00    +0.187 C 
BRANCH  11  12
ATOM     12  O   LIG A   1     -12.949   9.657 130.115  0.00  0.00    -0.393 OA
ATOM     13  H   LIG A   1     -12.593  10.562 130.172  0.00  0.00    +0.209 HD
ENDBRANCH  11  12
ENDBRANCH   8  11
ENDBRANCH   7   8
ENDBRANCH   1   7
BRANCH   3  14
ATOM     14  C   LIG A   1      -8.492   6.827 130.813  0.00  0.00    +0.045 C 
BRANCH  14  15
ATOM     15  C   LIG A   1      -7.249   6.412 131.631  0.00  0.00    +0.003 C 
BRANCH  15  16
ATOM     16  C   LIG A   1      -7.617   5.940 133.054  0.00  0.00    +0.000 C 
BRANCH  16  17
ATOM     17  C   LIG A   1      -7.293   4.453 133.301  0.00  0.00    -0.000 C 
BRANCH  17  18
ATOM     18  C   LIG A   1      -8.405   3.733 134.092  0.00  0.00    +0.000 C 
BRANCH  18  19
ATOM     19  C   LIG A   1      -9.427   3.036 133.173  0.00  0.00    +0.001 C 
BRANCH  19  20
ATOM     20  C   LIG A   1      -8.834   1.819 132.439  0.00  0.00    +0.013 C 
BRANCH  20  21
ATOM     21  C   LIG A   1      -9.108   1.811 130.931  0.00  0.00    +0.088 C 
BRANCH  21  22
ATOM     22  C   LIG A   1      -8.118   2.599 130.154  0.00  0.00    -0.106 C 
ATOM     23  C   LIG A   1      -7.320   3.245 129.549  0.00  0.00    +0.004 C 
ENDBRANCH  21  22
ENDBRANCH  20  21
ENDBRANCH  19  20
ENDBRANCH  18  19
ENDBRANCH  17  18
ENDBRANCH  16  17
ENDBRANCH  15  16
ENDBRANCH  14  15
ENDBRANCH   3  14
TORSDOF 14
ENDMDL
MODEL 9
REMARK VINA RESULT:      -5.3      9.339     11.790
REMARK  Name = NuBBE_1790
REMARK  14 active torsions:
REMARK  status: ('A' for Active; 'I' for Inactive)
REMARK    1  A    between atoms: C_1  and  C_2
REMARK    2  A    between atoms: C_1  and  C_7
REMARK    3  A    between atoms: C_2  and  C_4
REMARK    4  A    between atoms: C_2  and  O_6
REMARK    5  A    between atoms: C_4  and  O_5
REMARK    6  A    between atoms: C_10  and  C_15
REMARK    7  A    between atoms: C_15  and  C_16
REMARK    8  A    between atoms: C_16  and  C_17
REMARK    9  A    between atoms: C_17  and  C_18
REMARK   10  A    between atoms: C_18  and  C_19
REMARK   11  A    between atoms: C_19  and  C_20
REMARK   12  A    between atoms: C_20  and  C_21
REMARK   13  A    between atoms: C_21  and  C_22
REMARK   14  A    between atoms: C_22  and  C_23
REMARK                            x       y       z     vdW  Elec       q    Type
REMARK                         _______ _______ _______ _____ _____    ______ ____
ROOT
ATOM      1  C   LIG A   1     -12.030   6.106 129.897  0.00  0.00    +0.104 C 
ATOM      2  C   LIG A   1     -10.571   5.697 129.817  0.00  0.00    +0.059 C 
ATOM      3  C   LIG A   1      -9.903   6.227 131.068  0.00  0.00    +0.177 C 
ATOM      4  O   LIG A   1     -10.871   7.018 131.752  0.00  0.00    -0.461 OA
ATOM      5  C   LIG A   1     -12.112   6.781 131.242  0.00  0.00    +0.311 C 
ATOM      6  O   LIG A   1     -13.150   7.111 131.794  0.00  0.00    -0.251 OA
ENDROOT
BRANCH   1   7
ATOM      7  C   LIG A   1     -12.531   7.069 128.805  0.00  0.00    +0.048 C 
BRANCH   7   8
ATOM      8  C   LIG A   1     -11.994   8.507 128.831  0.00  0.00    +0.141 C 
BRANCH   8   9
ATOM      9  O   LIG A   1     -11.201   8.763 127.671  0.00  0.00    -0.390 OA
ATOM     10  H   LIG A   1     -11.228   9.732 127.542  0.00  0.00    +0.210 HD
ENDBRANCH   8   9
BRANCH   8  11
ATOM     11  C   LIG A   1     -13.074   9.587 128.954  0.00  0.00    +0.187 C 
BRANCH  11  12
ATOM     12  O   LIG A   1     -13.155   9.981 130.328  0.00  0.00    -0.393 OA
ATOM     13  H   LIG A   1     -13.697   9.313 130.785  0.00  0.00    +0.209 HD
ENDBRANCH  11  12
ENDBRANCH   8  11
ENDBRANCH   7   8
ENDBRANCH   1   7
BRANCH   3  14
ATOM     14  C   LIG A   1      -8.595   7.001 130.802  0.00  0.00    +0.045 C 
BRANCH  14  15
ATOM     15  C   LIG A   1      -7.344   6.489 131.548  0.00  0.00    +0.003 C 
BRANCH  15  16
ATOM     16  C   LIG A   1      -7.693   5.865 132.916  0.00  0.00    +0.000 C 
BRANCH  16  17
ATOM     17  C   LIG A   1      -6.521   5.083 133.542  0.00  0.00    -0.000 C 
BRANCH  17  18
ATOM     18  C   LIG A   1      -6.838   4.592 134.970  0.00  0.00    +0.000 C 
BRANCH  18  19
ATOM     19  C   LIG A   1      -7.869   5.485 135.687  0.00  0.00    +0.001 C 
BRANCH  19  20
ATOM     20  C   LIG A   1      -7.234   6.371 136.775  0.00  0.00    +0.013 C 
BRANCH  20  21
ATOM     21  C   LIG A   1      -8.192   6.734 137.915  0.00  0.00    +0.088 C 
BRANCH  21  22
ATOM     22  C   LIG A   1      -9.046   7.910 137.608  0.00  0.00    -0.106 C 
ATOM     23  C   LIG A   1      -9.749   8.838 137.359  0.00  0.00    +0.004 C 
ENDBRANCH  21  22
ENDBRANCH  20  21
ENDBRANCH  19  20
ENDBRANCH  18  19
ENDBRANCH  17  18
ENDBRANCH  16  17
ENDBRANCH  15  16
ENDBRANCH  14  15
ENDBRANCH   3  14
TORSDOF 14
ENDMDL
