MODEL 1
REMARK VINA RESULT:      -5.4      0.000      0.000
REMARK  Name = NuBBE_1388
REMARK  10 active torsions:
REMARK  status: ('A' for Active; 'I' for Inactive)
REMARK    1  A    between atoms: C_1  and  C_2
REMARK    2  A    between atoms: C_2  and  C_3
REMARK    3  A    between atoms: C_4  and  C_5
REMARK    4  A    between atoms: C_5  and  C_6
REMARK    5  A    between atoms: C_6  and  C_7
REMARK    6  A    between atoms: C_7  and  C_8
REMARK    7  A    between atoms: C_9  and  C_10
REMARK    8  A    between atoms: C_10  and  O_11
REMARK    9  A    between atoms: O_11  and  C_12
REMARK   10  A    between atoms: C_12  and  C_13
REMARK                            x       y       z     vdW  Elec       q    Type
REMARK                         _______ _______ _______ _____ _____    ______ ____
ROOT
ATOM      1  C   LIG A   1      -8.578  -1.618 126.103  0.00  0.00    -0.073 C 
ATOM      2  C   LIG A   1      -7.489  -1.135 127.024  0.00  0.00    +0.038 C 
ATOM      3  C   LIG A   1      -9.438  -0.812 125.442  0.00  0.00    +0.012 C 
ENDROOT
BRANCH   1   4
ATOM      4  C   LIG A   1      -8.667  -3.130 125.974  0.00  0.00    +0.034 C 
BRANCH   4   5
ATOM      5  C   LIG A   1      -8.315  -3.670 124.578  0.00  0.00    +0.031 C 
BRANCH   5   9
ATOM      6  C   LIG A   1      -4.601  -3.180 123.441  0.00  0.00    +0.038 C 
ATOM      7  C   LIG A   1      -6.076  -2.944 123.613  0.00  0.00    -0.080 C 
ATOM      8  C   LIG A   1      -6.607  -1.713 122.933  0.00  0.00    +0.038 C 
ATOM      9  C   LIG A   1      -6.832  -3.783 124.348  0.00  0.00    -0.028 C 
ENDBRANCH   5   9
ENDBRANCH   4   5
ENDBRANCH   1   4
BRANCH   3  10
ATOM     10  C   LIG A   1      -9.445   0.690 125.445  0.00  0.00    +0.260 C 
BRANCH  10  11
ATOM     11  O   LIG A   1     -10.485   1.147 124.572  0.00  0.00    -0.461 OA
BRANCH  11  12
ATOM     12  C   LIG A   1     -10.194   1.086 123.243  0.00  0.00    +0.304 C 
ATOM     13  C   LIG A   1      -9.085   2.036 122.905  0.00  0.00    +0.136 C 
ATOM     14  O   LIG A   1     -10.716   0.350 122.425  0.00  0.00    -0.251 OA
ENDBRANCH  11  12
ENDBRANCH  10  11
ENDBRANCH   3  10
TORSDOF 6
ENDMDL
MODEL 2
REMARK VINA RESULT:      -5.3      3.848      4.996
REMARK  Name = NuBBE_1388
REMARK  10 active torsions:
REMARK  status: ('A' for Active; 'I' for Inactive)
REMARK    1  A    between atoms: C_1  and  C_2
REMARK    2  A    between atoms: C_2  and  C_3
REMARK    3  A    between atoms: C_4  and  C_5
REMARK    4  A    between atoms: C_5  and  C_6
REMARK    5  A    between atoms: C_6  and  C_7
REMARK    6  A    between atoms: C_7  and  C_8
REMARK    7  A    between atoms: C_9  and  C_10
REMARK    8  A    between atoms: C_10  and  O_11
REMARK    9  A    between atoms: O_11  and  C_12
REMARK   10  A    between atoms: C_12  and  C_13
REMARK                            x       y       z     vdW  Elec       q    Type
REMARK                         _______ _______ _______ _____ _____    ______ ____
ROOT
ATOM      1  C   LIG A   1      -8.670  -2.760 126.834  0.00  0.00    -0.073 C 
ATOM      2  C   LIG A   1      -8.213  -1.325 126.809  0.00  0.00    +0.038 C 
ATOM      3  C   LIG A   1      -8.621  -3.562 127.920  0.00  0.00    +0.012 C 
ENDROOT
BRANCH   1   4
ATOM      4  C   LIG A   1      -9.190  -3.277 125.503  0.00  0.00    +0.034 C 
BRANCH   4   5
ATOM      5  C   LIG A   1      -8.332  -2.880 124.289  0.00  0.00    +0.031 C 
BRANCH   5   9
ATOM      6  C   LIG A   1      -4.666  -4.223 123.999  0.00  0.00    +0.038 C 
ATOM      7  C   LIG A   1      -5.823  -3.278 124.180  0.00  0.00    -0.080 C 
ATOM      8  C   LIG A   1      -5.441  -1.845 124.425  0.00  0.00    +0.038 C 
ATOM      9  C   LIG A   1      -7.094  -3.722 124.144  0.00  0.00    -0.028 C 
ENDBRANCH   5   9
ENDBRANCH   4   5
ENDBRANCH   1   4
BRANCH   3  10
ATOM     10  C   LIG A   1      -8.170  -3.179 129.301  0.00  0.00    +0.260 C 
BRANCH  10  11
ATOM     11  O   LIG A   1      -6.820  -3.622 129.484  0.00  0.00    -0.461 OA
BRANCH  11  12
ATOM     12  C   LIG A   1      -5.891  -2.630 129.571  0.00  0.00    +0.304 C 
ATOM     13  C   LIG A   1      -5.048  -2.591 128.332  0.00  0.00    +0.136 C 
ATOM     14  O   LIG A   1      -5.760  -1.846 130.494  0.00  0.00    -0.251 OA
ENDBRANCH  11  12
ENDBRANCH  10  11
ENDBRANCH   3  10
TORSDOF 6
ENDMDL
MODEL 3
REMARK VINA RESULT:      -5.2      4.218      5.905
REMARK  Name = NuBBE_1388
REMARK  10 active torsions:
REMARK  status: ('A' for Active; 'I' for Inactive)
REMARK    1  A    between atoms: C_1  and  C_2
REMARK    2  A    between atoms: C_2  and  C_3
REMARK    3  A    between atoms: C_4  and  C_5
REMARK    4  A    between atoms: C_5  and  C_6
REMARK    5  A    between atoms: C_6  and  C_7
REMARK    6  A    between atoms: C_7  and  C_8
REMARK    7  A    between atoms: C_9  and  C_10
REMARK    8  A    between atoms: C_10  and  O_11
REMARK    9  A    between atoms: O_11  and  C_12
REMARK   10  A    between atoms: C_12  and  C_13
REMARK                            x       y       z     vdW  Elec       q    Type
REMARK                         _______ _______ _______ _____ _____    ______ ____
ROOT
ATOM      1  C   LIG A   1      -8.196  -2.910 127.336  0.00  0.00    -0.073 C 
ATOM      2  C   LIG A   1      -9.013  -4.066 127.852  0.00  0.00    +0.038 C 
ATOM      3  C   LIG A   1      -7.121  -2.388 127.967  0.00  0.00    +0.012 C 
ENDROOT
BRANCH   1   4
ATOM      4  C   LIG A   1      -8.691  -2.329 126.022  0.00  0.00    +0.034 C 
BRANCH   4   5
ATOM      5  C   LIG A   1      -8.515  -3.260 124.810  0.00  0.00    +0.031 C 
BRANCH   5   9
ATOM      6  C   LIG A   1      -4.819  -3.387 123.527  0.00  0.00    +0.038 C 
ATOM      7  C   LIG A   1      -6.235  -2.925 123.735  0.00  0.00    -0.080 C 
ATOM      8  C   LIG A   1      -6.605  -1.661 123.010  0.00  0.00    +0.038 C 
ATOM      9  C   LIG A   1      -7.076  -3.605 124.537  0.00  0.00    -0.028 C 
ENDBRANCH   5   9
ENDBRANCH   4   5
ENDBRANCH   1   4
BRANCH   3  10
ATOM     10  C   LIG A   1      -6.501  -2.880 129.244  0.00  0.00    +0.260 C 
BRANCH  10  11
ATOM     11  O   LIG A   1      -5.092  -3.038 129.040  0.00  0.00    -0.461 OA
BRANCH  11  12
ATOM     12  C   LIG A   1      -4.436  -3.714 130.024  0.00  0.00    +0.304 C 
ATOM     13  C   LIG A   1      -5.350  -4.705 130.678  0.00  0.00    +0.136 C 
ATOM     14  O   LIG A   1      -3.265  -3.582 130.330  0.00  0.00    -0.251 OA
ENDBRANCH  11  12
ENDBRANCH  10  11
ENDBRANCH   3  10
TORSDOF 6
ENDMDL
MODEL 4
REMARK VINA RESULT:      -5.0      3.190      4.957
REMARK  Name = NuBBE_1388
REMARK  10 active torsions:
REMARK  status: ('A' for Active; 'I' for Inactive)
REMARK    1  A    between atoms: C_1  and  C_2
REMARK    2  A    between atoms: C_2  and  C_3
REMARK    3  A    between atoms: C_4  and  C_5
REMARK    4  A    between atoms: C_5  and  C_6
REMARK    5  A    between atoms: C_6  and  C_7
REMARK    6  A    between atoms: C_7  and  C_8
REMARK    7  A    between atoms: C_9  and  C_10
REMARK    8  A    between atoms: C_10  and  O_11
REMARK    9  A    between atoms: O_11  and  C_12
REMARK   10  A    between atoms: C_12  and  C_13
REMARK                            x       y       z     vdW  Elec       q    Type
REMARK                         _______ _______ _______ _____ _____    ______ ____
ROOT
ATOM      1  C   LIG A   1      -8.462  -2.741 126.812  0.00  0.00    -0.073 C 
ATOM      2  C   LIG A   1      -7.862  -1.362 126.901  0.00  0.00    +0.038 C 
ATOM      3  C   LIG A   1      -8.860  -3.332 125.664  0.00  0.00    +0.012 C 
ENDROOT
BRANCH   1   4
ATOM      4  C   LIG A   1      -8.619  -3.446 128.150  0.00  0.00    +0.034 C 
BRANCH   4   5
ATOM      5  C   LIG A   1      -8.044  -2.670 129.347  0.00  0.00    +0.031 C 
BRANCH   5   9
ATOM      6  C   LIG A   1      -5.071  -4.573 131.039  0.00  0.00    +0.038 C 
ATOM      7  C   LIG A   1      -5.835  -3.678 130.103  0.00  0.00    -0.080 C 
ATOM      8  C   LIG A   1      -4.999  -2.983 129.065  0.00  0.00    +0.038 C 
ATOM      9  C   LIG A   1      -7.166  -3.516 130.229  0.00  0.00    -0.028 C 
ENDBRANCH   5   9
ENDBRANCH   4   5
ENDBRANCH   1   4
BRANCH   3  10
ATOM     10  C   LIG A   1      -8.733  -2.775 124.275  0.00  0.00    +0.260 C 
BRANCH  10  11
ATOM     11  O   LIG A   1      -7.514  -3.257 123.696  0.00  0.00    -0.461 OA
BRANCH  11  12
ATOM     12  C   LIG A   1      -6.541  -2.318 123.528  0.00  0.00    +0.304 C 
ATOM     13  C   LIG A   1      -5.185  -2.954 123.578  0.00  0.00    +0.136 C 
ATOM     14  O   LIG A   1      -6.715  -1.129 123.326  0.00  0.00    -0.251 OA
ENDBRANCH  11  12
ENDBRANCH  10  11
ENDBRANCH   3  10
TORSDOF 6
ENDMDL
MODEL 5
REMARK VINA RESULT:      -5.0      2.361      3.765
REMARK  Name = NuBBE_1388
REMARK  10 active torsions:
REMARK  status: ('A' for Active; 'I' for Inactive)
REMARK    1  A    between atoms: C_1  and  C_2
REMARK    2  A    between atoms: C_2  and  C_3
REMARK    3  A    between atoms: C_4  and  C_5
REMARK    4  A    between atoms: C_5  and  C_6
REMARK    5  A    between atoms: C_6  and  C_7
REMARK    6  A    between atoms: C_7  and  C_8
REMARK    7  A    between atoms: C_9  and  C_10
REMARK    8  A    between atoms: C_10  and  O_11
REMARK    9  A    between atoms: O_11  and  C_12
REMARK   10  A    between atoms: C_12  and  C_13
REMARK                            x       y       z     vdW  Elec       q    Type
REMARK                         _______ _______ _______ _____ _____    ______ ____
ROOT
ATOM      1  C   LIG A   1      -8.656  -2.729 125.928  0.00  0.00    -0.073 C 
ATOM      2  C   LIG A   1      -8.802  -3.564 124.683  0.00  0.00    +0.038 C 
ATOM      3  C   LIG A   1      -8.498  -1.387 125.938  0.00  0.00    +0.012 C 
ENDROOT
BRANCH   1   4
ATOM      4  C   LIG A   1      -8.678  -3.524 127.223  0.00  0.00    +0.034 C 
BRANCH   4   5
ATOM      5  C   LIG A   1      -8.290  -2.715 128.472  0.00  0.00    +0.031 C 
BRANCH   5   9
ATOM      6  C   LIG A   1      -5.645  -4.484 130.752  0.00  0.00    +0.038 C 
ATOM      7  C   LIG A   1      -6.241  -3.601 129.691  0.00  0.00    -0.080 C 
ATOM      8  C   LIG A   1      -5.247  -2.800 128.898  0.00  0.00    +0.038 C 
ATOM      9  C   LIG A   1      -7.574  -3.538 129.508  0.00  0.00    -0.028 C 
ENDBRANCH   5   9
ENDBRANCH   4   5
ENDBRANCH   1   4
BRANCH   3  10
ATOM     10  C   LIG A   1      -8.495  -0.474 124.746  0.00  0.00    +0.260 C 
BRANCH  10  11
ATOM     11  O   LIG A   1      -9.847  -0.109 124.443  0.00  0.00    -0.461 OA
BRANCH  11  12
ATOM     12  C   LIG A   1     -10.005   0.660 123.329  0.00  0.00    +0.304 C 
ATOM     13  C   LIG A   1      -9.181   1.907 123.432  0.00  0.00    +0.136 C 
ATOM     14  O   LIG A   1     -10.681   0.384 122.355  0.00  0.00    -0.251 OA
ENDBRANCH  11  12
ENDBRANCH  10  11
ENDBRANCH   3  10
TORSDOF 6
ENDMDL
MODEL 6
REMARK VINA RESULT:      -4.9      8.341     10.000
REMARK  Name = NuBBE_1388
REMARK  10 active torsions:
REMARK  status: ('A' for Active; 'I' for Inactive)
REMARK    1  A    between atoms: C_1  and  C_2
REMARK    2  A    between atoms: C_2  and  C_3
REMARK    3  A    between atoms: C_4  and  C_5
REMARK    4  A    between atoms: C_5  and  C_6
REMARK    5  A    between atoms: C_6  and  C_7
REMARK    6  A    between atoms: C_7  and  C_8
REMARK    7  A    between atoms: C_9  and  C_10
REMARK    8  A    between atoms: C_10  and  O_11
REMARK    9  A    between atoms: O_11  and  C_12
REMARK   10  A    between atoms: C_12  and  C_13
REMARK                            x       y       z     vdW  Elec       q    Type
REMARK                         _______ _______ _______ _____ _____    ______ ____
ROOT
ATOM      1  C   LIG A   1      -8.295   6.228 131.843  0.00  0.00    -0.073 C 
ATOM      2  C   LIG A   1      -6.988   6.715 131.274  0.00  0.00    +0.038 C 
ATOM      3  C   LIG A   1      -9.510   6.502 131.319  0.00  0.00    +0.012 C 
ENDROOT
BRANCH   1   4
ATOM      4  C   LIG A   1      -8.158   5.394 133.106  0.00  0.00    +0.034 C 
BRANCH   4   5
ATOM      5  C   LIG A   1      -9.376   4.507 133.418  0.00  0.00    +0.031 C 
BRANCH   5   9
ATOM      6  C   LIG A   1      -9.223   0.889 131.929  0.00  0.00    +0.038 C 
ATOM      7  C   LIG A   1      -9.520   2.357 132.066  0.00  0.00    -0.080 C 
ATOM      8  C   LIG A   1     -10.254   2.968 130.905  0.00  0.00    +0.038 C 
ATOM      9  C   LIG A   1      -9.123   3.048 133.152  0.00  0.00    -0.028 C 
ENDBRANCH   5   9
ENDBRANCH   4   5
ENDBRANCH   1   4
BRANCH   3  10
ATOM     10  C   LIG A   1      -9.793   7.276 130.063  0.00  0.00    +0.260 C 
BRANCH  10  11
ATOM     11  O   LIG A   1     -11.189   7.596 130.025  0.00  0.00    -0.461 OA
BRANCH  11  12
ATOM     12  C   LIG A   1     -11.562   8.447 129.029  0.00  0.00    +0.304 C 
ATOM     13  C   LIG A   1     -10.646   8.309 127.851  0.00  0.00    +0.136 C 
ATOM     14  O   LIG A   1     -12.519   9.200 129.047  0.00  0.00    -0.251 OA
ENDBRANCH  11  12
ENDBRANCH  10  11
ENDBRANCH   3  10
TORSDOF 6
ENDMDL
MODEL 7
REMARK VINA RESULT:      -4.9      9.804     10.450
REMARK  Name = NuBBE_1388
REMARK  10 active torsions:
REMARK  status: ('A' for Active; 'I' for Inactive)
REMARK    1  A    between atoms: C_1  and  C_2
REMARK    2  A    between atoms: C_2  and  C_3
REMARK    3  A    between atoms: C_4  and  C_5
REMARK    4  A    between atoms: C_5  and  C_6
REMARK    5  A    between atoms: C_6  and  C_7
REMARK    6  A    between atoms: C_7  and  C_8
REMARK    7  A    between atoms: C_9  and  C_10
REMARK    8  A    between atoms: C_10  and  O_11
REMARK    9  A    between atoms: O_11  and  C_12
REMARK   10  A    between atoms: C_12  and  C_13
REMARK                            x       y       z     vdW  Elec       q    Type
REMARK                         _______ _______ _______ _____ _____    ______ ____
ROOT
ATOM      1  C   LIG A   1      -9.079   6.630 131.348  0.00  0.00    -0.073 C 
ATOM      2  C   LIG A   1     -10.299   6.053 132.019  0.00  0.00    +0.038 C 
ATOM      3  C   LIG A   1      -9.095   7.314 130.184  0.00  0.00    +0.012 C 
ENDROOT
BRANCH   1   4
ATOM      4  C   LIG A   1      -7.774   6.363 132.081  0.00  0.00    +0.034 C 
BRANCH   4   5
ATOM      5  C   LIG A   1      -6.559   6.162 131.162  0.00  0.00    +0.031 C 
BRANCH   5   9
ATOM      6  C   LIG A   1      -3.012   7.538 132.083  0.00  0.00    +0.038 C 
ATOM      7  C   LIG A   1      -4.286   7.292 131.323  0.00  0.00    -0.080 C 
ATOM      8  C   LIG A   1      -4.388   8.005 130.004  0.00  0.00    +0.038 C 
ATOM      9  C   LIG A   1      -5.254   6.503 131.829  0.00  0.00    -0.028 C 
ENDBRANCH   5   9
ENDBRANCH   4   5
ENDBRANCH   1   4
BRANCH   3  10
ATOM     10  C   LIG A   1     -10.306   7.682 129.375  0.00  0.00    +0.260 C 
BRANCH  10  11
ATOM     11  O   LIG A   1      -9.980   7.574 127.984  0.00  0.00    -0.461 OA
BRANCH  11  12
ATOM     12  C   LIG A   1     -11.027   7.738 127.128  0.00  0.00    +0.304 C 
ATOM     13  C   LIG A   1     -12.302   7.933 127.891  0.00  0.00    +0.136 C 
ATOM     14  O   LIG A   1     -10.965   7.765 125.912  0.00  0.00    -0.251 OA
ENDBRANCH  11  12
ENDBRANCH  10  11
ENDBRANCH   3  10
TORSDOF 6
ENDMDL
MODEL 8
REMARK VINA RESULT:      -4.8      1.735      2.787
REMARK  Name = NuBBE_1388
REMARK  10 active torsions:
REMARK  status: ('A' for Active; 'I' for Inactive)
REMARK    1  A    between atoms: C_1  and  C_2
REMARK    2  A    between atoms: C_2  and  C_3
REMARK    3  A    between atoms: C_4  and  C_5
REMARK    4  A    between atoms: C_5  and  C_6
REMARK    5  A    between atoms: C_6  and  C_7
REMARK    6  A    between atoms: C_7  and  C_8
REMARK    7  A    between atoms: C_9  and  C_10
REMARK    8  A    between atoms: C_10  and  O_11
REMARK    9  A    between atoms: O_11  and  C_12
REMARK   10  A    between atoms: C_12  and  C_13
REMARK                            x       y       z     vdW  Elec       q    Type
REMARK                         _______ _______ _______ _____ _____    ______ ____
ROOT
ATOM      1  C   LIG A   1      -6.363  -0.228 125.247  0.00  0.00    -0.073 C 
ATOM      2  C   LIG A   1      -6.596  -0.197 126.735  0.00  0.00    +0.038 C 
ATOM      3  C   LIG A   1      -6.865   0.671 124.373  0.00  0.00    +0.012 C 
ENDROOT
BRANCH   1   4
ATOM      4  C   LIG A   1      -5.511  -1.393 124.769  0.00  0.00    +0.034 C 
BRANCH   4   5
ATOM      5  C   LIG A   1      -6.140  -2.777 125.001  0.00  0.00    +0.031 C 
BRANCH   5   9
ATOM      6  C   LIG A   1      -9.659  -3.406 123.405  0.00  0.00    +0.038 C 
ATOM      7  C   LIG A   1      -8.597  -3.088 124.421  0.00  0.00    -0.080 C 
ATOM      8  C   LIG A   1      -9.108  -2.789 125.803  0.00  0.00    +0.038 C 
ATOM      9  C   LIG A   1      -7.295  -3.059 124.078  0.00  0.00    -0.028 C 
ENDBRANCH   5   9
ENDBRANCH   4   5
ENDBRANCH   1   4
BRANCH   3  10
ATOM     10  C   LIG A   1      -7.686   1.885 124.704  0.00  0.00    +0.260 C 
BRANCH  10  11
ATOM     11  O   LIG A   1      -9.052   1.624 124.359  0.00  0.00    -0.461 OA
BRANCH  11  12
ATOM     12  C   LIG A   1      -9.349   1.745 123.035  0.00  0.00    +0.304 C 
ATOM     13  C   LIG A   1     -10.161   0.573 122.572  0.00  0.00    +0.136 C 
ATOM     14  O   LIG A   1      -9.046   2.676 122.312  0.00  0.00    -0.251 OA
ENDBRANCH  11  12
ENDBRANCH  10  11
ENDBRANCH   3  10
TORSDOF 6
ENDMDL
MODEL 9
REMARK VINA RESULT:      -4.7      4.978      6.873
REMARK  Name = NuBBE_1388
REMARK  10 active torsions:
REMARK  status: ('A' for Active; 'I' for Inactive)
REMARK    1  A    between atoms: C_1  and  C_2
REMARK    2  A    between atoms: C_2  and  C_3
REMARK    3  A    between atoms: C_4  and  C_5
REMARK    4  A    between atoms: C_5  and  C_6
REMARK    5  A    between atoms: C_6  and  C_7
REMARK    6  A    between atoms: C_7  and  C_8
REMARK    7  A    between atoms: C_9  and  C_10
REMARK    8  A    between atoms: C_10  and  O_11
REMARK    9  A    between atoms: O_11  and  C_12
REMARK   10  A    between atoms: C_12  and  C_13
REMARK                            x       y       z     vdW  Elec       q    Type
REMARK                         _______ _______ _______ _____ _____    ______ ____
ROOT
ATOM      1  C   LIG A   1      -6.726  -2.749 128.362  0.00  0.00    -0.073 C 
ATOM      2  C   LIG A   1      -5.564  -2.292 127.518  0.00  0.00    +0.038 C 
ATOM      3  C   LIG A   1      -6.611  -3.464 129.502  0.00  0.00    +0.012 C 
ENDROOT
BRANCH   1   4
ATOM      4  C   LIG A   1      -8.089  -2.357 127.817  0.00  0.00    +0.034 C 
BRANCH   4   5
ATOM      5  C   LIG A   1      -8.886  -3.521 127.203  0.00  0.00    +0.031 C 
BRANCH   5   9
ATOM      6  C   LIG A   1      -9.442  -2.964 123.368  0.00  0.00    +0.038 C 
ATOM      7  C   LIG A   1      -8.786  -3.341 124.668  0.00  0.00    -0.080 C 
ATOM      8  C   LIG A   1      -7.395  -3.896 124.541  0.00  0.00    +0.038 C 
ATOM      9  C   LIG A   1      -9.436  -3.201 125.840  0.00  0.00    -0.028 C 
ENDBRANCH   5   9
ENDBRANCH   4   5
ENDBRANCH   1   4
BRANCH   3  10
ATOM     10  C   LIG A   1      -5.336  -3.886 130.174  0.00  0.00    +0.260 C 
BRANCH  10  11
ATOM     11  O   LIG A   1      -5.075  -2.997 131.267  0.00  0.00    -0.461 OA
BRANCH  11  12
ATOM     12  C   LIG A   1      -3.758  -2.748 131.510  0.00  0.00    +0.304 C 
ATOM     13  C   LIG A   1      -3.157  -1.961 130.384  0.00  0.00    +0.136 C 
ATOM     14  O   LIG A   1      -3.136  -3.071 132.506  0.00  0.00    -0.251 OA
ENDBRANCH  11  12
ENDBRANCH  10  11
ENDBRANCH   3  10
TORSDOF 6
ENDMDL
