MODEL 1
REMARK VINA RESULT:      -8.5      0.000      0.000
REMARK  Name = NuBBE_1136
REMARK  7 active torsions:
REMARK  status: ('A' for Active; 'I' for Inactive)
REMARK    1  A    between atoms: O_1  and  C_2
REMARK    2  A    between atoms: C_2  and  C_3
REMARK    3  A    between atoms: C_3  and  C_4
REMARK    4  A    between atoms: C_5  and  C_6
REMARK    5  A    between atoms: C_26  and  C_28
REMARK    6  A    between atoms: C_29  and  C_30
REMARK    7  A    between atoms: C_29  and  C_31
REMARK                            x       y       z     vdW  Elec       q    Type
REMARK                         _______ _______ _______ _____ _____    ______ ____
ROOT
ATOM      1  C   LIG A   1      -9.273   4.533 131.187  0.00  0.00    +0.038 C 
ATOM      2  C   LIG A   1      -7.851   4.436 130.664  0.00  0.00    -0.029 A 
ATOM      3  C   LIG A   1      -6.887   5.444 130.678  0.00  0.00    +0.031 A 
ATOM      4  C   LIG A   1      -5.644   5.122 130.121  0.00  0.00    +0.047 A 
ATOM      5  C   LIG A   1      -5.344   3.858 129.604  0.00  0.00    -0.000 A 
ATOM      6  C   LIG A   1      -4.001   3.912 129.138  0.00  0.00    +0.027 A 
ATOM      7  C   LIG A   1      -3.524   5.184 129.361  0.00  0.00    +0.083 A 
ATOM      8  N   LIG A   1      -4.526   5.907 129.953  0.00  0.00    -0.361 N 
ATOM      9  H   LIG A   1      -4.465   6.878 130.223  0.00  0.00    +0.165 HD
ATOM     10  C   LIG A   1      -6.328   2.848 129.630  0.00  0.00    +0.014 A 
ATOM     11  C   LIG A   1      -7.578   3.163 130.160  0.00  0.00    -0.036 A 
ATOM     12  C   LIG A   1      -8.766   2.245 130.271  0.00  0.00    +0.043 C 
ATOM     13  C   LIG A   1      -9.908   3.231 130.615  0.00  0.00    +0.030 C 
ENDROOT
BRANCH  12  14
ATOM     14  C   LIG A   1      -8.582   1.173 131.316  0.00  0.00    -0.020 C 
ATOM     15  C   LIG A   1      -8.143  -0.090 131.141  0.00  0.00    -0.079 C 
ATOM     16  C   LIG A   1      -7.725  -0.700 129.832  0.00  0.00    +0.038 C 
ATOM     17  C   LIG A   1      -8.032  -1.027 132.317  0.00  0.00    +0.038 C 
ENDBRANCH  12  14
BRANCH   1  18
ATOM     18  C   LIG A   1     -10.053   5.736 130.667  0.00  0.00    -0.013 C 
ATOM     19  C   LIG A   1     -11.210   5.696 129.981  0.00  0.00    +0.005 C 
BRANCH  19  20
ATOM     20  C   LIG A   1     -11.932   6.879 129.497  0.00  0.00    -0.025 A 
ATOM     21  C   LIG A   1     -12.413   6.887 128.183  0.00  0.00    +0.010 A 
ATOM     22  C   LIG A   1     -13.090   7.992 127.654  0.00  0.00    +0.027 A 
ATOM     23  C   LIG A   1     -13.264   9.100 128.488  0.00  0.00    +0.046 A 
ATOM     24  N   LIG A   1     -13.887  10.303 128.253  0.00  0.00    -0.361 N 
ATOM     25  H   LIG A   1     -14.336  10.556 127.384  0.00  0.00    +0.165 HD
ATOM     26  C   LIG A   1     -13.814  11.102 129.365  0.00  0.00    +0.083 A 
ATOM     27  C   LIG A   1     -13.129  10.407 130.335  0.00  0.00    +0.027 A 
ATOM     28  C   LIG A   1     -12.781   9.140 129.796  0.00  0.00    +0.000 A 
ATOM     29  C   LIG A   1     -12.097   8.020 130.301  0.00  0.00    +0.018 A 
ENDBRANCH  19  20
ENDBRANCH   1  18
BRANCH   1  30
ATOM     30  C   LIG A   1      -9.224   4.537 132.737  0.00  0.00    +0.171 C 
BRANCH  30  31
ATOM     31  O   LIG A   1     -10.405   5.101 133.308  0.00  0.00    -0.394 OA
ATOM     32  H   LIG A   1     -10.114   5.757 133.965  0.00  0.00    +0.209 HD
ENDBRANCH  30  31
ENDBRANCH   1  30
TORSDOF 5
ENDMDL
MODEL 2
REMARK VINA RESULT:      -8.4      6.017      9.152
REMARK  Name = NuBBE_1136
REMARK  7 active torsions:
REMARK  status: ('A' for Active; 'I' for Inactive)
REMARK    1  A    between atoms: O_1  and  C_2
REMARK    2  A    between atoms: C_2  and  C_3
REMARK    3  A    between atoms: C_3  and  C_4
REMARK    4  A    between atoms: C_5  and  C_6
REMARK    5  A    between atoms: C_26  and  C_28
REMARK    6  A    between atoms: C_29  and  C_30
REMARK    7  A    between atoms: C_29  and  C_31
REMARK                            x       y       z     vdW  Elec       q    Type
REMARK                         _______ _______ _______ _____ _____    ______ ____
ROOT
ATOM      1  C   LIG A   1      -6.892   3.563 125.462  0.00  0.00    +0.038 C 
ATOM      2  C   LIG A   1      -7.093   2.068 125.292  0.00  0.00    -0.029 A 
ATOM      3  C   LIG A   1      -7.516   1.166 126.270  0.00  0.00    +0.031 A 
ATOM      4  C   LIG A   1      -7.612  -0.173 125.879  0.00  0.00    +0.047 A 
ATOM      5  C   LIG A   1      -7.340  -0.611 124.579  0.00  0.00    -0.000 A 
ATOM      6  C   LIG A   1      -7.549  -2.018 124.566  0.00  0.00    +0.027 A 
ATOM      7  C   LIG A   1      -7.922  -2.405 125.833  0.00  0.00    +0.083 A 
ATOM      8  N   LIG A   1      -7.954  -1.283 126.618  0.00  0.00    -0.361 N 
ATOM      9  H   LIG A   1      -8.187  -1.265 127.601  0.00  0.00    +0.165 HD
ATOM     10  C   LIG A   1      -6.942   0.326 123.602  0.00  0.00    +0.014 A 
ATOM     11  C   LIG A   1      -6.820   1.660 123.985  0.00  0.00    -0.036 A 
ATOM     12  C   LIG A   1      -6.399   2.812 123.111  0.00  0.00    +0.043 C 
ATOM     13  C   LIG A   1      -6.138   3.930 124.151  0.00  0.00    +0.030 C 
ENDROOT
BRANCH  12  14
ATOM     14  C   LIG A   1      -7.448   3.190 122.096  0.00  0.00    -0.020 C 
ATOM     15  C   LIG A   1      -7.266   3.769 120.891  0.00  0.00    -0.079 C 
ATOM     16  C   LIG A   1      -5.941   4.155 120.295  0.00  0.00    +0.038 C 
ATOM     17  C   LIG A   1      -8.449   4.080 120.009  0.00  0.00    +0.038 C 
ENDBRANCH  12  14
BRANCH   1  18
ATOM     18  C   LIG A   1      -6.027   3.948 126.657  0.00  0.00    -0.013 C 
ATOM     19  C   LIG A   1      -4.944   4.748 126.629  0.00  0.00    +0.005 C 
BRANCH  19  20
ATOM     20  C   LIG A   1      -4.136   5.096 127.804  0.00  0.00    -0.025 A 
ATOM     21  C   LIG A   1      -3.294   6.213 127.738  0.00  0.00    +0.010 A 
ATOM     22  C   LIG A   1      -2.483   6.585 128.816  0.00  0.00    +0.027 A 
ATOM     23  C   LIG A   1      -2.536   5.794 129.967  0.00  0.00    +0.046 A 
ATOM     24  N   LIG A   1      -1.874   5.917 131.166  0.00  0.00    -0.361 N 
ATOM     25  H   LIG A   1      -1.217   6.654 131.384  0.00  0.00    +0.165 HD
ATOM     26  C   LIG A   1      -2.234   4.904 132.015  0.00  0.00    +0.083 A 
ATOM     27  C   LIG A   1      -3.143   4.108 131.356  0.00  0.00    +0.027 A 
ATOM     28  C   LIG A   1      -3.345   4.663 130.064  0.00  0.00    +0.000 A 
ATOM     29  C   LIG A   1      -4.146   4.304 128.964  0.00  0.00    +0.018 A 
ENDBRANCH  19  20
ENDBRANCH   1  18
BRANCH   1  30
ATOM     30  C   LIG A   1      -8.287   4.235 125.553  0.00  0.00    +0.171 C 
BRANCH  30  31
ATOM     31  O   LIG A   1      -8.200   5.658 125.473  0.00  0.00    -0.394 OA
ATOM     32  H   LIG A   1      -7.680   5.952 126.241  0.00  0.00    +0.209 HD
ENDBRANCH  30  31
ENDBRANCH   1  30
TORSDOF 5
ENDMDL
MODEL 3
REMARK VINA RESULT:      -8.4      4.003      6.730
REMARK  Name = NuBBE_1136
REMARK  7 active torsions:
REMARK  status: ('A' for Active; 'I' for Inactive)
REMARK    1  A    between atoms: O_1  and  C_2
REMARK    2  A    between atoms: C_2  and  C_3
REMARK    3  A    between atoms: C_3  and  C_4
REMARK    4  A    between atoms: C_5  and  C_6
REMARK    5  A    between atoms: C_26  and  C_28
REMARK    6  A    between atoms: C_29  and  C_30
REMARK    7  A    between atoms: C_29  and  C_31
REMARK                            x       y       z     vdW  Elec       q    Type
REMARK                         _______ _______ _______ _____ _____    ______ ____
ROOT
ATOM      1  C   LIG A   1      -7.265  -0.421 128.742  0.00  0.00    +0.038 C 
ATOM      2  C   LIG A   1      -7.787  -1.163 127.525  0.00  0.00    -0.029 A 
ATOM      3  C   LIG A   1      -7.815  -0.695 126.211  0.00  0.00    +0.031 A 
ATOM      4  C   LIG A   1      -8.362  -1.558 125.255  0.00  0.00    +0.047 A 
ATOM      5  C   LIG A   1      -8.830  -2.839 125.563  0.00  0.00    -0.000 A 
ATOM      6  C   LIG A   1      -9.302  -3.408 124.347  0.00  0.00    +0.027 A 
ATOM      7  C   LIG A   1      -9.129  -2.479 123.348  0.00  0.00    +0.083 A 
ATOM      8  N   LIG A   1      -8.564  -1.364 123.908  0.00  0.00    -0.361 N 
ATOM      9  H   LIG A   1      -8.332  -0.514 123.412  0.00  0.00    +0.165 HD
ATOM     10  C   LIG A   1      -8.762  -3.300 126.895  0.00  0.00    +0.014 A 
ATOM     11  C   LIG A   1      -8.241  -2.440 127.860  0.00  0.00    -0.036 A 
ATOM     12  C   LIG A   1      -8.092  -2.724 129.331  0.00  0.00    +0.043 C 
ATOM     13  C   LIG A   1      -7.783  -1.319 129.903  0.00  0.00    +0.030 C 
ENDROOT
BRANCH  12  14
ATOM     14  C   LIG A   1      -7.006  -3.728 129.627  0.00  0.00    -0.020 C 
ATOM     15  C   LIG A   1      -6.434  -4.006 130.816  0.00  0.00    -0.079 C 
ATOM     16  C   LIG A   1      -6.780  -3.360 132.128  0.00  0.00    +0.038 C 
ATOM     17  C   LIG A   1      -5.348  -5.048 130.913  0.00  0.00    +0.038 C 
ENDBRANCH  12  14
BRANCH   1  18
ATOM     18  C   LIG A   1      -7.829   0.985 128.910  0.00  0.00    -0.013 C 
ATOM     19  C   LIG A   1      -7.745   1.747 130.017  0.00  0.00    +0.005 C 
BRANCH  19  20
ATOM     20  C   LIG A   1      -8.302   3.100 130.140  0.00  0.00    -0.025 A 
ATOM     21  C   LIG A   1      -7.425   4.181 130.283  0.00  0.00    +0.010 A 
ATOM     22  C   LIG A   1      -7.893   5.493 130.426  0.00  0.00    +0.027 A 
ATOM     23  C   LIG A   1      -9.278   5.687 130.428  0.00  0.00    +0.046 A 
ATOM     24  N   LIG A   1     -10.016   6.841 130.538  0.00  0.00    -0.361 N 
ATOM     25  H   LIG A   1      -9.622   7.766 130.635  0.00  0.00    +0.165 HD
ATOM     26  C   LIG A   1     -11.357   6.555 130.495  0.00  0.00    +0.083 A 
ATOM     27  C   LIG A   1     -11.489   5.192 130.358  0.00  0.00    +0.027 A 
ATOM     28  C   LIG A   1     -10.184   4.633 130.309  0.00  0.00    +0.000 A 
ATOM     29  C   LIG A   1      -9.688   3.323 130.175  0.00  0.00    +0.018 A 
ENDBRANCH  19  20
ENDBRANCH   1  18
BRANCH   1  30
ATOM     30  C   LIG A   1      -5.716  -0.387 128.665  0.00  0.00    +0.171 C 
BRANCH  30  31
ATOM     31  O   LIG A   1      -5.111  -0.741 129.909  0.00  0.00    -0.394 OA
ATOM     32  H   LIG A   1      -4.291  -1.220 129.696  0.00  0.00    +0.209 HD
ENDBRANCH  30  31
ENDBRANCH   1  30
TORSDOF 5
ENDMDL
MODEL 4
REMARK VINA RESULT:      -8.3      6.455      7.990
REMARK  Name = NuBBE_1136
REMARK  7 active torsions:
REMARK  status: ('A' for Active; 'I' for Inactive)
REMARK    1  A    between atoms: O_1  and  C_2
REMARK    2  A    between atoms: C_2  and  C_3
REMARK    3  A    between atoms: C_3  and  C_4
REMARK    4  A    between atoms: C_5  and  C_6
REMARK    5  A    between atoms: C_26  and  C_28
REMARK    6  A    between atoms: C_29  and  C_30
REMARK    7  A    between atoms: C_29  and  C_31
REMARK                            x       y       z     vdW  Elec       q    Type
REMARK                         _______ _______ _______ _____ _____    ______ ____
ROOT
ATOM      1  C   LIG A   1      -7.619   0.701 125.567  0.00  0.00    +0.038 C 
ATOM      2  C   LIG A   1      -6.722   1.019 126.750  0.00  0.00    -0.029 A 
ATOM      3  C   LIG A   1      -6.460   2.282 127.283  0.00  0.00    +0.031 A 
ATOM      4  C   LIG A   1      -5.583   2.327 128.372  0.00  0.00    +0.047 A 
ATOM      5  C   LIG A   1      -5.011   1.184 128.939  0.00  0.00    -0.000 A 
ATOM      6  C   LIG A   1      -4.190   1.624 130.014  0.00  0.00    +0.027 A 
ATOM      7  C   LIG A   1      -4.263   2.997 130.070  0.00  0.00    +0.083 A 
ATOM      8  N   LIG A   1      -5.105   3.411 129.072  0.00  0.00    -0.361 N 
ATOM      9  H   LIG A   1      -5.341   4.372 128.867  0.00  0.00    +0.165 HD
ATOM     10  C   LIG A   1      -5.317  -0.084 128.400  0.00  0.00    +0.014 A 
ATOM     11  C   LIG A   1      -6.171  -0.140 127.300  0.00  0.00    -0.036 A 
ATOM     12  C   LIG A   1      -6.614  -1.378 126.567  0.00  0.00    +0.043 C 
ATOM     13  C   LIG A   1      -7.255  -0.787 125.288  0.00  0.00    +0.030 C 
ENDROOT
BRANCH  12  14
ATOM     14  C   LIG A   1      -7.574  -2.221 127.368  0.00  0.00    -0.020 C 
ATOM     15  C   LIG A   1      -8.356  -3.230 126.931  0.00  0.00    -0.079 C 
ATOM     16  C   LIG A   1      -8.422  -3.740 125.519  0.00  0.00    +0.038 C 
ATOM     17  C   LIG A   1      -9.265  -3.957 127.889  0.00  0.00    +0.038 C 
ENDBRANCH  12  14
BRANCH   1  18
ATOM     18  C   LIG A   1      -7.328   1.527 124.319  0.00  0.00    -0.013 C 
ATOM     19  C   LIG A   1      -8.243   2.090 123.508  0.00  0.00    +0.005 C 
BRANCH  19  20
ATOM     20  C   LIG A   1      -7.922   2.880 122.313  0.00  0.00    -0.025 A 
ATOM     21  C   LIG A   1      -8.937   3.146 121.386  0.00  0.00    +0.010 A 
ATOM     22  C   LIG A   1      -8.691   3.875 120.217  0.00  0.00    +0.027 A 
ATOM     23  C   LIG A   1      -7.386   4.326 120.000  0.00  0.00    +0.046 A 
ATOM     24  N   LIG A   1      -6.856   5.062 118.966  0.00  0.00    -0.361 N 
ATOM     25  H   LIG A   1      -7.385   5.398 118.174  0.00  0.00    +0.165 HD
ATOM     26  C   LIG A   1      -5.517   5.273 119.169  0.00  0.00    +0.083 A 
ATOM     27  C   LIG A   1      -5.171   4.661 120.352  0.00  0.00    +0.027 A 
ATOM     28  C   LIG A   1      -6.343   4.064 120.889  0.00  0.00    +0.000 A 
ATOM     29  C   LIG A   1      -6.614   3.322 122.053  0.00  0.00    +0.018 A 
ENDBRANCH  19  20
ENDBRANCH   1  18
BRANCH   1  30
ATOM     30  C   LIG A   1      -9.094   0.878 126.012  0.00  0.00    +0.171 C 
BRANCH  30  31
ATOM     31  O   LIG A   1      -9.915  -0.210 125.584  0.00  0.00    -0.394 OA
ATOM     32  H   LIG A   1     -10.501   0.137 124.890  0.00  0.00    +0.209 HD
ENDBRANCH  30  31
ENDBRANCH   1  30
TORSDOF 5
ENDMDL
MODEL 5
REMARK VINA RESULT:      -8.3      3.845      6.807
REMARK  Name = NuBBE_1136
REMARK  7 active torsions:
REMARK  status: ('A' for Active; 'I' for Inactive)
REMARK    1  A    between atoms: O_1  and  C_2
REMARK    2  A    between atoms: C_2  and  C_3
REMARK    3  A    between atoms: C_3  and  C_4
REMARK    4  A    between atoms: C_5  and  C_6
REMARK    5  A    between atoms: C_26  and  C_28
REMARK    6  A    between atoms: C_29  and  C_30
REMARK    7  A    between atoms: C_29  and  C_31
REMARK                            x       y       z     vdW  Elec       q    Type
REMARK                         _______ _______ _______ _____ _____    ______ ____
ROOT
ATOM      1  C   LIG A   1      -6.544  -0.651 131.130  0.00  0.00    +0.038 C 
ATOM      2  C   LIG A   1      -7.152  -1.388 129.951  0.00  0.00    -0.029 A 
ATOM      3  C   LIG A   1      -7.329  -0.893 128.658  0.00  0.00    +0.031 A 
ATOM      4  C   LIG A   1      -7.930  -1.758 127.738  0.00  0.00    +0.047 A 
ATOM      5  C   LIG A   1      -8.311  -3.065 128.056  0.00  0.00    -0.000 A 
ATOM      6  C   LIG A   1      -8.875  -3.628 126.877  0.00  0.00    +0.027 A 
ATOM      7  C   LIG A   1      -8.842  -2.670 125.890  0.00  0.00    +0.083 A 
ATOM      8  N   LIG A   1      -8.271  -1.544 126.422  0.00  0.00    -0.361 N 
ATOM      9  H   LIG A   1      -8.125  -0.674 125.929  0.00  0.00    +0.165 HD
ATOM     10  C   LIG A   1      -8.093  -3.552 129.362  0.00  0.00    +0.014 A 
ATOM     11  C   LIG A   1      -7.517  -2.691 130.295  0.00  0.00    -0.036 A 
ATOM     12  C   LIG A   1      -7.212  -3.001 131.737  0.00  0.00    +0.043 C 
ATOM     13  C   LIG A   1      -6.908  -1.596 132.313  0.00  0.00    +0.030 C 
ENDROOT
BRANCH  12  14
ATOM     14  C   LIG A   1      -6.061  -3.962 131.898  0.00  0.00    -0.020 C 
ATOM     15  C   LIG A   1      -5.753  -4.714 132.974  0.00  0.00    -0.079 C 
ATOM     16  C   LIG A   1      -6.524  -4.757 134.264  0.00  0.00    +0.038 C 
ATOM     17  C   LIG A   1      -4.547  -5.619 132.951  0.00  0.00    +0.038 C 
ENDBRANCH  12  14
BRANCH   1  18
ATOM     18  C   LIG A   1      -7.148   0.725 131.389  0.00  0.00    -0.013 C 
ATOM     19  C   LIG A   1      -8.364   0.973 131.911  0.00  0.00    +0.005 C 
BRANCH  19  20
ATOM     20  C   LIG A   1      -8.911   2.315 132.146  0.00  0.00    -0.025 A 
ATOM     21  C   LIG A   1      -8.727   2.909 133.399  0.00  0.00    +0.010 A 
ATOM     22  C   LIG A   1      -9.241   4.177 133.694  0.00  0.00    +0.027 A 
ATOM     23  C   LIG A   1      -9.957   4.832 132.687  0.00  0.00    +0.046 A 
ATOM     24  N   LIG A   1     -10.560   6.068 132.681  0.00  0.00    -0.361 N 
ATOM     25  H   LIG A   1     -10.558   6.710 133.462  0.00  0.00    +0.165 HD
ATOM     26  C   LIG A   1     -11.157   6.301 131.469  0.00  0.00    +0.083 A 
ATOM     27  C   LIG A   1     -10.941   5.197 130.677  0.00  0.00    +0.027 A 
ATOM     28  C   LIG A   1     -10.181   4.265 131.433  0.00  0.00    +0.000 A 
ATOM     29  C   LIG A   1      -9.660   2.985 131.165  0.00  0.00    +0.018 A 
ENDBRANCH  19  20
ENDBRANCH   1  18
BRANCH   1  30
ATOM     30  C   LIG A   1      -5.014  -0.546 130.904  0.00  0.00    +0.171 C 
BRANCH  30  31
ATOM     31  O   LIG A   1      -4.632   0.742 130.421  0.00  0.00    -0.394 OA
ATOM     32  H   LIG A   1      -5.066   0.859 129.558  0.00  0.00    +0.209 HD
ENDBRANCH  30  31
ENDBRANCH   1  30
TORSDOF 5
ENDMDL
MODEL 6
REMARK VINA RESULT:      -8.1      2.341      3.219
REMARK  Name = NuBBE_1136
REMARK  7 active torsions:
REMARK  status: ('A' for Active; 'I' for Inactive)
REMARK    1  A    between atoms: O_1  and  C_2
REMARK    2  A    between atoms: C_2  and  C_3
REMARK    3  A    between atoms: C_3  and  C_4
REMARK    4  A    between atoms: C_5  and  C_6
REMARK    5  A    between atoms: C_26  and  C_28
REMARK    6  A    between atoms: C_29  and  C_30
REMARK    7  A    between atoms: C_29  and  C_31
REMARK                            x       y       z     vdW  Elec       q    Type
REMARK                         _______ _______ _______ _____ _____    ______ ____
ROOT
ATOM      1  C   LIG A   1      -6.444   5.368 132.276  0.00  0.00    +0.038 C 
ATOM      2  C   LIG A   1      -5.360   5.486 131.220  0.00  0.00    -0.029 A 
ATOM      3  C   LIG A   1      -4.870   6.665 130.655  0.00  0.00    +0.031 A 
ATOM      4  C   LIG A   1      -3.875   6.521 129.683  0.00  0.00    +0.047 A 
ATOM      5  C   LIG A   1      -3.355   5.280 129.301  0.00  0.00    -0.000 A 
ATOM      6  C   LIG A   1      -2.372   5.534 128.305  0.00  0.00    +0.027 A 
ATOM      7  C   LIG A   1      -2.324   6.893 128.092  0.00  0.00    +0.083 A 
ATOM      8  N   LIG A   1      -3.238   7.478 128.927  0.00  0.00    -0.361 N 
ATOM      9  H   LIG A   1      -3.430   8.469 128.982  0.00  0.00    +0.165 HD
ATOM     10  C   LIG A   1      -3.846   4.106 129.910  0.00  0.00    +0.014 A 
ATOM     11  C   LIG A   1      -4.855   4.235 130.863  0.00  0.00    -0.036 A 
ATOM     12  C   LIG A   1      -5.526   3.119 131.619  0.00  0.00    +0.043 C 
ATOM     13  C   LIG A   1      -6.741   3.840 132.251  0.00  0.00    +0.030 C 
ENDROOT
BRANCH  12  14
ATOM     14  C   LIG A   1      -4.624   2.481 132.646  0.00  0.00    -0.020 C 
ATOM     15  C   LIG A   1      -3.999   1.288 132.575  0.00  0.00    -0.079 C 
ATOM     16  C   LIG A   1      -4.070   0.329 131.420  0.00  0.00    +0.038 C 
ATOM     17  C   LIG A   1      -3.136   0.812 133.716  0.00  0.00    +0.038 C 
ENDBRANCH  12  14
BRANCH   1  18
ATOM     18  C   LIG A   1      -7.725   6.129 131.949  0.00  0.00    -0.013 C 
ATOM     19  C   LIG A   1      -8.739   5.684 131.183  0.00  0.00    +0.005 C 
BRANCH  19  20
ATOM     20  C   LIG A   1      -9.958   6.449 130.892  0.00  0.00    -0.025 A 
ATOM     21  C   LIG A   1     -11.038   6.361 131.777  0.00  0.00    +0.010 A 
ATOM     22  C   LIG A   1     -12.236   7.047 131.546  0.00  0.00    +0.027 A 
ATOM     23  C   LIG A   1     -12.320   7.825 130.387  0.00  0.00    +0.046 A 
ATOM     24  N   LIG A   1     -13.346   8.605 129.909  0.00  0.00    -0.361 N 
ATOM     25  H   LIG A   1     -14.236   8.728 130.372  0.00  0.00    +0.165 HD
ATOM     26  C   LIG A   1     -12.986   9.190 128.722  0.00  0.00    +0.083 A 
ATOM     27  C   LIG A   1     -11.707   8.779 128.424  0.00  0.00    +0.027 A 
ATOM     28  C   LIG A   1     -11.274   7.921 129.470  0.00  0.00    +0.000 A 
ATOM     29  C   LIG A   1     -10.083   7.215 129.721  0.00  0.00    +0.018 A 
ENDBRANCH  19  20
ENDBRANCH   1  18
BRANCH   1  30
ATOM     30  C   LIG A   1      -5.857   5.836 133.632  0.00  0.00    +0.171 C 
BRANCH  30  31
ATOM     31  O   LIG A   1      -6.285   5.009 134.715  0.00  0.00    -0.394 OA
ATOM     32  H   LIG A   1      -6.994   4.439 134.370  0.00  0.00    +0.209 HD
ENDBRANCH  30  31
ENDBRANCH   1  30
TORSDOF 5
ENDMDL
MODEL 7
REMARK VINA RESULT:      -8.0      3.160      8.011
REMARK  Name = NuBBE_1136
REMARK  7 active torsions:
REMARK  status: ('A' for Active; 'I' for Inactive)
REMARK    1  A    between atoms: O_1  and  C_2
REMARK    2  A    between atoms: C_2  and  C_3
REMARK    3  A    between atoms: C_3  and  C_4
REMARK    4  A    between atoms: C_5  and  C_6
REMARK    5  A    between atoms: C_26  and  C_28
REMARK    6  A    between atoms: C_29  and  C_30
REMARK    7  A    between atoms: C_29  and  C_31
REMARK                            x       y       z     vdW  Elec       q    Type
REMARK                         _______ _______ _______ _____ _____    ______ ____
ROOT
ATOM      1  C   LIG A   1      -7.375   5.692 132.218  0.00  0.00    +0.038 C 
ATOM      2  C   LIG A   1      -7.586   4.519 131.276  0.00  0.00    -0.029 A 
ATOM      3  C   LIG A   1      -7.035   3.243 131.396  0.00  0.00    +0.031 A 
ATOM      4  C   LIG A   1      -7.364   2.328 130.391  0.00  0.00    +0.047 A 
ATOM      5  C   LIG A   1      -8.221   2.634 129.330  0.00  0.00    -0.000 A 
ATOM      6  C   LIG A   1      -8.315   1.465 128.525  0.00  0.00    +0.027 A 
ATOM      7  C   LIG A   1      -7.519   0.495 129.089  0.00  0.00    +0.083 A 
ATOM      8  N   LIG A   1      -6.947   1.028 130.214  0.00  0.00    -0.361 N 
ATOM      9  H   LIG A   1      -6.304   0.546 130.827  0.00  0.00    +0.165 HD
ATOM     10  C   LIG A   1      -8.789   3.923 129.249  0.00  0.00    +0.014 A 
ATOM     11  C   LIG A   1      -8.451   4.851 130.232  0.00  0.00    -0.036 A 
ATOM     12  C   LIG A   1      -8.929   6.276 130.326  0.00  0.00    +0.043 C 
ATOM     13  C   LIG A   1      -7.978   6.868 131.394  0.00  0.00    +0.030 C 
ENDROOT
BRANCH  12  14
ATOM     14  C   LIG A   1     -10.383   6.382 130.713  0.00  0.00    -0.020 C 
ATOM     15  C   LIG A   1     -11.323   7.198 130.194  0.00  0.00    -0.079 C 
ATOM     16  C   LIG A   1     -11.107   8.189 129.084  0.00  0.00    +0.038 C 
ATOM     17  C   LIG A   1     -12.735   7.165 130.721  0.00  0.00    +0.038 C 
ENDBRANCH  12  14
BRANCH   1  18
ATOM     18  C   LIG A   1      -5.913   5.996 132.523  0.00  0.00    -0.013 C 
ATOM     19  C   LIG A   1      -4.968   6.333 131.626  0.00  0.00    +0.005 C 
BRANCH  19  20
ATOM     20  C   LIG A   1      -3.567   6.619 131.961  0.00  0.00    -0.025 A 
ATOM     21  C   LIG A   1      -2.621   5.595 131.842  0.00  0.00    +0.010 A 
ATOM     22  C   LIG A   1      -1.275   5.797 132.166  0.00  0.00    +0.027 A 
ATOM     23  C   LIG A   1      -0.905   7.065 132.622  0.00  0.00    +0.046 A 
ATOM     24  N   LIG A   1       0.324   7.555 132.998  0.00  0.00    -0.361 N 
ATOM     25  H   LIG A   1       1.181   7.019 132.988  0.00  0.00    +0.165 HD
ATOM     26  C   LIG A   1       0.217   8.866 133.384  0.00  0.00    +0.083 A 
ATOM     27  C   LIG A   1      -1.103   9.232 133.259  0.00  0.00    +0.027 A 
ATOM     28  C   LIG A   1      -1.821   8.106 132.774  0.00  0.00    +0.000 A 
ATOM     29  C   LIG A   1      -3.170   7.875 132.450  0.00  0.00    +0.018 A 
ENDBRANCH  19  20
ENDBRANCH   1  18
BRANCH   1  30
ATOM     30  C   LIG A   1      -8.165   5.416 133.524  0.00  0.00    +0.171 C 
BRANCH  30  31
ATOM     31  O   LIG A   1      -9.210   6.368 133.728  0.00  0.00    -0.394 OA
ATOM     32  H   LIG A   1     -10.038   5.864 133.801  0.00  0.00    +0.209 HD
ENDBRANCH  30  31
ENDBRANCH   1  30
TORSDOF 5
ENDMDL
MODEL 8
REMARK VINA RESULT:      -8.0      3.958      5.774
REMARK  Name = NuBBE_1136
REMARK  7 active torsions:
REMARK  status: ('A' for Active; 'I' for Inactive)
REMARK    1  A    between atoms: O_1  and  C_2
REMARK    2  A    between atoms: C_2  and  C_3
REMARK    3  A    between atoms: C_3  and  C_4
REMARK    4  A    between atoms: C_5  and  C_6
REMARK    5  A    between atoms: C_26  and  C_28
REMARK    6  A    between atoms: C_29  and  C_30
REMARK    7  A    between atoms: C_29  and  C_31
REMARK                            x       y       z     vdW  Elec       q    Type
REMARK                         _______ _______ _______ _____ _____    ______ ____
ROOT
ATOM      1  C   LIG A   1      -7.184   5.162 133.460  0.00  0.00    +0.038 C 
ATOM      2  C   LIG A   1      -6.846   5.687 134.845  0.00  0.00    -0.029 A 
ATOM      3  C   LIG A   1      -7.696   5.729 135.951  0.00  0.00    +0.031 A 
ATOM      4  C   LIG A   1      -7.162   6.274 137.123  0.00  0.00    +0.047 A 
ATOM      5  C   LIG A   1      -5.843   6.728 137.222  0.00  0.00    -0.000 A 
ATOM      6  C   LIG A   1      -5.670   7.203 138.552  0.00  0.00    +0.027 A 
ATOM      7  C   LIG A   1      -6.863   7.047 139.218  0.00  0.00    +0.083 A 
ATOM      8  N   LIG A   1      -7.758   6.488 138.345  0.00  0.00    -0.361 N 
ATOM      9  H   LIG A   1      -8.722   6.268 138.556  0.00  0.00    +0.165 HD
ATOM     10  C   LIG A   1      -4.996   6.646 136.097  0.00  0.00    +0.014 A 
ATOM     11  C   LIG A   1      -5.523   6.127 134.916  0.00  0.00    -0.036 A 
ATOM     12  C   LIG A   1      -4.803   5.964 133.604  0.00  0.00    +0.043 C 
ATOM     13  C   LIG A   1      -5.967   5.664 132.629  0.00  0.00    +0.030 C 
ENDROOT
BRANCH  12  14
ATOM     14  C   LIG A   1      -3.769   4.867 133.636  0.00  0.00    -0.020 C 
ATOM     15  C   LIG A   1      -2.821   4.592 132.716  0.00  0.00    -0.079 C 
ATOM     16  C   LIG A   1      -2.591   5.353 131.441  0.00  0.00    +0.038 C 
ATOM     17  C   LIG A   1      -1.873   3.438 132.922  0.00  0.00    +0.038 C 
ENDBRANCH  12  14
BRANCH   1  18
ATOM     18  C   LIG A   1      -8.464   5.739 132.866  0.00  0.00    -0.013 C 
ATOM     19  C   LIG A   1      -8.641   6.131 131.590  0.00  0.00    +0.005 C 
BRANCH  19  20
ATOM     20  C   LIG A   1      -9.892   6.682 131.055  0.00  0.00    -0.025 A 
ATOM     21  C   LIG A   1     -11.081   6.471 131.763  0.00  0.00    +0.010 A 
ATOM     22  C   LIG A   1     -12.309   6.952 131.296  0.00  0.00    +0.027 A 
ATOM     23  C   LIG A   1     -12.310   7.649 130.084  0.00  0.00    +0.046 A 
ATOM     24  N   LIG A   1     -13.344   8.236 129.394  0.00  0.00    -0.361 N 
ATOM     25  H   LIG A   1     -14.307   8.243 129.701  0.00  0.00    +0.165 HD
ATOM     26  C   LIG A   1     -12.880   8.811 128.239  0.00  0.00    +0.083 A 
ATOM     27  C   LIG A   1     -11.524   8.589 128.177  0.00  0.00    +0.027 A 
ATOM     28  C   LIG A   1     -11.151   7.861 129.338  0.00  0.00    +0.000 A 
ATOM     29  C   LIG A   1      -9.930   7.361 129.826  0.00  0.00    +0.018 A 
ENDBRANCH  19  20
ENDBRANCH   1  18
BRANCH   1  30
ATOM     30  C   LIG A   1      -7.258   3.615 133.530  0.00  0.00    +0.171 C 
BRANCH  30  31
ATOM     31  O   LIG A   1      -6.892   3.006 132.290  0.00  0.00    -0.394 OA
ATOM     32  H   LIG A   1      -7.254   3.568 131.584  0.00  0.00    +0.209 HD
ENDBRANCH  30  31
ENDBRANCH   1  30
TORSDOF 5
ENDMDL
MODEL 9
REMARK VINA RESULT:      -8.0      4.738      6.341
REMARK  Name = NuBBE_1136
REMARK  7 active torsions:
REMARK  status: ('A' for Active; 'I' for Inactive)
REMARK    1  A    between atoms: O_1  and  C_2
REMARK    2  A    between atoms: C_2  and  C_3
REMARK    3  A    between atoms: C_3  and  C_4
REMARK    4  A    between atoms: C_5  and  C_6
REMARK    5  A    between atoms: C_26  and  C_28
REMARK    6  A    between atoms: C_29  and  C_30
REMARK    7  A    between atoms: C_29  and  C_31
REMARK                            x       y       z     vdW  Elec       q    Type
REMARK                         _______ _______ _______ _____ _____    ______ ____
ROOT
ATOM      1  C   LIG A   1      -7.650   1.066 127.196  0.00  0.00    +0.038 C 
ATOM      2  C   LIG A   1      -7.265   1.632 125.841  0.00  0.00    -0.029 A 
ATOM      3  C   LIG A   1      -6.527   2.793 125.601  0.00  0.00    +0.031 A 
ATOM      4  C   LIG A   1      -6.310   3.123 124.260  0.00  0.00    +0.047 A 
ATOM      5  C   LIG A   1      -6.762   2.337 123.196  0.00  0.00    -0.000 A 
ATOM      6  C   LIG A   1      -6.351   2.986 121.999  0.00  0.00    +0.027 A 
ATOM      7  C   LIG A   1      -5.684   4.138 122.348  0.00  0.00    +0.083 A 
ATOM      8  N   LIG A   1      -5.667   4.212 123.715  0.00  0.00    -0.361 N 
ATOM      9  H   LIG A   1      -5.253   4.959 124.255  0.00  0.00    +0.165 HD
ATOM     10  C   LIG A   1      -7.479   1.152 123.467  0.00  0.00    +0.014 A 
ATOM     11  C   LIG A   1      -7.723   0.824 124.800  0.00  0.00    -0.036 A 
ATOM     12  C   LIG A   1      -8.475  -0.378 125.307  0.00  0.00    +0.043 C 
ATOM     13  C   LIG A   1      -8.692  -0.020 126.797  0.00  0.00    +0.030 C 
ENDROOT
BRANCH  12  14
ATOM     14  C   LIG A   1      -7.714  -1.667 125.119  0.00  0.00    -0.020 C 
ATOM     15  C   LIG A   1      -8.085  -2.755 124.414  0.00  0.00    -0.079 C 
ATOM     16  C   LIG A   1      -9.366  -2.903 123.641  0.00  0.00    +0.038 C 
ATOM     17  C   LIG A   1      -7.185  -3.962 124.348  0.00  0.00    +0.038 C 
ENDBRANCH  12  14
BRANCH   1  18
ATOM     18  C   LIG A   1      -8.313   2.071 128.131  0.00  0.00    -0.013 C 
ATOM     19  C   LIG A   1      -7.966   2.316 129.409  0.00  0.00    +0.005 C 
BRANCH  19  20
ATOM     20  C   LIG A   1      -8.629   3.295 130.279  0.00  0.00    -0.025 A 
ATOM     21  C   LIG A   1      -8.144   3.483 131.578  0.00  0.00    +0.010 A 
ATOM     22  C   LIG A   1      -8.744   4.385 132.463  0.00  0.00    +0.027 A 
ATOM     23  C   LIG A   1      -9.860   5.092 132.005  0.00  0.00    +0.046 A 
ATOM     24  N   LIG A   1     -10.638   6.036 132.634  0.00  0.00    -0.361 N 
ATOM     25  H   LIG A   1     -10.487   6.366 133.577  0.00  0.00    +0.165 HD
ATOM     26  C   LIG A   1     -11.637   6.462 131.798  0.00  0.00    +0.083 A 
ATOM     27  C   LIG A   1     -11.508   5.782 130.610  0.00  0.00    +0.027 A 
ATOM     28  C   LIG A   1     -10.387   4.917 130.726  0.00  0.00    +0.000 A 
ATOM     29  C   LIG A   1      -9.770   3.998 129.858  0.00  0.00    +0.018 A 
ENDBRANCH  19  20
ENDBRANCH   1  18
BRANCH   1  30
ATOM     30  C   LIG A   1      -6.382   0.459 127.850  0.00  0.00    +0.171 C 
BRANCH  30  31
ATOM     31  O   LIG A   1      -6.632  -0.833 128.405  0.00  0.00    -0.394 OA
ATOM     32  H   LIG A   1      -7.596  -0.914 128.505  0.00  0.00    +0.209 HD
ENDBRANCH  30  31
ENDBRANCH   1  30
TORSDOF 5
ENDMDL
