MODEL 1
REMARK VINA RESULT:      -6.6      0.000      0.000
REMARK  Name = NuBBE_348
REMARK  5 active torsions:
REMARK  status: ('A' for Active; 'I' for Inactive)
REMARK    1  A    between atoms: C_3  and  C_4
REMARK    2  A    between atoms: C_3  and  O_5
REMARK    3  A    between atoms: C_6  and  O_8
REMARK    4  A    between atoms: C_12  and  C_13
REMARK    5  A    between atoms: C_16  and  C_17
REMARK                            x       y       z     vdW  Elec       q    Type
REMARK                         _______ _______ _______ _____ _____    ______ ____
ROOT
ATOM      1  O   LIG A   1      -8.920   5.074 128.485  0.00  0.00    -0.289 OA
ATOM      2  C   LIG A   1      -9.834   5.592 129.130  0.00  0.00    +0.201 C 
ATOM      3  C   LIG A   1     -10.414   4.946 130.398  0.00  0.00    +0.155 C 
ATOM      4  C   LIG A   1      -9.429   3.914 130.959  0.00  0.00    +0.053 C 
ATOM      5  C   LIG A   1     -10.685   6.062 131.422  0.00  0.00    +0.187 C 
ATOM      6  C   LIG A   1     -11.526   7.149 130.817  0.00  0.00    +0.027 C 
ATOM      7  C   LIG A   1     -12.496   7.770 131.512  0.00  0.00    +0.202 C 
ATOM      8  O   LIG A   1     -13.269   8.801 131.021  0.00  0.00    -0.468 OA
ATOM      9  C   LIG A   1     -12.946   9.323 129.772  0.00  0.00    +0.102 C 
ATOM     10  C   LIG A   1     -13.726  10.542 129.398  0.00  0.00    +0.086 C 
ATOM     11  C   LIG A   1     -12.006   8.770 128.982  0.00  0.00    +0.050 C 
ATOM     12  C   LIG A   1     -11.304   7.555 129.416  0.00  0.00    +0.000 C 
ATOM     13  C   LIG A   1     -10.475   6.846 128.612  0.00  0.00    +0.067 C 
ENDROOT
BRANCH   3  14
ATOM     14  O   LIG A   1     -11.620   4.226 130.104  0.00  0.00    -0.378 OA
ATOM     15  H   LIG A   1     -11.942   4.482 129.221  0.00  0.00    +0.211 HD
ENDBRANCH   3  14
BRANCH   5  16
ATOM     16  O   LIG A   1      -9.476   6.669 131.878  0.00  0.00    -0.384 OA
ATOM     17  H   LIG A   1      -9.708   7.528 132.275  0.00  0.00    +0.210 HD
ENDBRANCH   5  16
BRANCH  13  18
ATOM     18  C   LIG A   1     -10.144   7.205 127.199  0.00  0.00    +0.263 C 
ATOM     19  O   LIG A   1     -10.771   6.835 126.214  0.00  0.00    -0.296 OA
ENDBRANCH  13  18
TORSDOF 3
ENDMDL
MODEL 2
REMARK VINA RESULT:      -6.1      8.851     11.773
REMARK  Name = NuBBE_348
REMARK  5 active torsions:
REMARK  status: ('A' for Active; 'I' for Inactive)
REMARK    1  A    between atoms: C_3  and  C_4
REMARK    2  A    between atoms: C_3  and  O_5
REMARK    3  A    between atoms: C_6  and  O_8
REMARK    4  A    between atoms: C_12  and  C_13
REMARK    5  A    between atoms: C_16  and  C_17
REMARK                            x       y       z     vdW  Elec       q    Type
REMARK                         _______ _______ _______ _____ _____    ______ ____
ROOT
ATOM      1  O   LIG A   1      -9.964  -0.230 125.994  0.00  0.00    -0.289 OA
ATOM      2  C   LIG A   1      -9.189  -0.609 125.113  0.00  0.00    +0.201 C 
ATOM      3  C   LIG A   1      -9.218  -0.030 123.689  0.00  0.00    +0.155 C 
ATOM      4  C   LIG A   1      -9.952   1.316 123.684  0.00  0.00    +0.053 C 
ATOM      5  C   LIG A   1      -7.766   0.132 123.210  0.00  0.00    +0.187 C 
ATOM      6  C   LIG A   1      -7.006  -1.154 123.361  0.00  0.00    +0.027 C 
ATOM      7  C   LIG A   1      -6.115  -1.568 122.443  0.00  0.00    +0.202 C 
ATOM      8  O   LIG A   1      -5.360  -2.717 122.551  0.00  0.00    -0.468 OA
ATOM      9  C   LIG A   1      -5.427  -3.432 123.742  0.00  0.00    +0.102 C 
ATOM     10  C   LIG A   1      -4.451  -4.562 123.832  0.00  0.00    +0.086 C 
ATOM     11  C   LIG A   1      -6.294  -3.119 124.722  0.00  0.00    +0.050 C 
ATOM     12  C   LIG A   1      -7.238  -2.009 124.542  0.00  0.00    +0.000 C 
ATOM     13  C   LIG A   1      -8.249  -1.740 125.403  0.00  0.00    +0.067 C 
ENDROOT
BRANCH   3  14
ATOM     14  O   LIG A   1      -9.952  -0.886 122.800  0.00  0.00    -0.378 OA
ATOM     15  H   LIG A   1      -9.372  -1.607 122.494  0.00  0.00    +0.211 HD
ENDBRANCH   3  14
BRANCH   5  16
ATOM     16  O   LIG A   1      -7.067   1.126 123.960  0.00  0.00    -0.384 OA
ATOM     17  H   LIG A   1      -6.155   1.164 123.622  0.00  0.00    +0.210 HD
ENDBRANCH   5  16
BRANCH  13  18
ATOM     18  C   LIG A   1      -8.531  -2.512 126.652  0.00  0.00    +0.263 C 
ATOM     19  O   LIG A   1      -9.266  -3.490 126.724  0.00  0.00    -0.296 OA
ENDBRANCH  13  18
TORSDOF 3
ENDMDL
MODEL 3
REMARK VINA RESULT:      -6.1      8.616     10.038
REMARK  Name = NuBBE_348
REMARK  5 active torsions:
REMARK  status: ('A' for Active; 'I' for Inactive)
REMARK    1  A    between atoms: C_3  and  C_4
REMARK    2  A    between atoms: C_3  and  O_5
REMARK    3  A    between atoms: C_6  and  O_8
REMARK    4  A    between atoms: C_12  and  C_13
REMARK    5  A    between atoms: C_16  and  C_17
REMARK                            x       y       z     vdW  Elec       q    Type
REMARK                         _______ _______ _______ _____ _____    ______ ____
ROOT
ATOM      1  O   LIG A   1     -10.179  -0.485 122.474  0.00  0.00    -0.289 OA
ATOM      2  C   LIG A   1      -9.251  -0.499 123.285  0.00  0.00    +0.201 C 
ATOM      3  C   LIG A   1      -8.831  -1.776 124.030  0.00  0.00    +0.155 C 
ATOM      4  C   LIG A   1      -9.365  -3.012 123.298  0.00  0.00    +0.053 C 
ATOM      5  C   LIG A   1      -7.295  -1.802 124.105  0.00  0.00    +0.187 C 
ATOM      6  C   LIG A   1      -6.766  -0.521 124.684  0.00  0.00    +0.027 C 
ATOM      7  C   LIG A   1      -5.721  -0.499 125.531  0.00  0.00    +0.202 C 
ATOM      8  O   LIG A   1      -5.169   0.649 126.059  0.00  0.00    -0.468 OA
ATOM      9  C   LIG A   1      -5.637   1.873 125.591  0.00  0.00    +0.102 C 
ATOM     10  C   LIG A   1      -4.867   3.053 126.092  0.00  0.00    +0.086 C 
ATOM     11  C   LIG A   1      -6.688   1.971 124.756  0.00  0.00    +0.050 C 
ATOM     12  C   LIG A   1      -7.405   0.762 124.333  0.00  0.00    +0.000 C 
ATOM     13  C   LIG A   1      -8.568   0.788 123.637  0.00  0.00    +0.067 C 
ENDROOT
BRANCH   3  14
ATOM     14  O   LIG A   1      -9.402  -1.817 125.347  0.00  0.00    -0.378 OA
ATOM     15  H   LIG A   1      -8.977  -2.527 125.861  0.00  0.00    +0.211 HD
ENDBRANCH   3  14
BRANCH   5  16
ATOM     16  O   LIG A   1      -6.703  -1.957 122.815  0.00  0.00    -0.384 OA
ATOM     17  H   LIG A   1      -5.885  -2.476 122.925  0.00  0.00    +0.210 HD
ENDBRANCH   5  16
BRANCH  13  18
ATOM     18  C   LIG A   1      -9.264   2.034 123.189  0.00  0.00    +0.263 C 
ATOM     19  O   LIG A   1      -8.975   2.679 122.188  0.00  0.00    -0.296 OA
ENDBRANCH  13  18
TORSDOF 3
ENDMDL
MODEL 4
REMARK VINA RESULT:      -6.0      1.610      5.225
REMARK  Name = NuBBE_348
REMARK  5 active torsions:
REMARK  status: ('A' for Active; 'I' for Inactive)
REMARK    1  A    between atoms: C_3  and  C_4
REMARK    2  A    between atoms: C_3  and  O_5
REMARK    3  A    between atoms: C_6  and  O_8
REMARK    4  A    between atoms: C_12  and  C_13
REMARK    5  A    between atoms: C_16  and  C_17
REMARK                            x       y       z     vdW  Elec       q    Type
REMARK                         _______ _______ _______ _____ _____    ______ ____
ROOT
ATOM      1  O   LIG A   1     -12.959   8.359 131.009  0.00  0.00    -0.289 OA
ATOM      2  C   LIG A   1     -12.326   7.797 130.114  0.00  0.00    +0.201 C 
ATOM      3  C   LIG A   1     -12.656   7.994 128.626  0.00  0.00    +0.155 C 
ATOM      4  C   LIG A   1     -13.489   9.267 128.437  0.00  0.00    +0.053 C 
ATOM      5  C   LIG A   1     -11.332   8.081 127.849  0.00  0.00    +0.187 C 
ATOM      6  C   LIG A   1     -10.452   6.904 128.157  0.00  0.00    +0.027 C 
ATOM      7  C   LIG A   1      -9.708   6.302 127.212  0.00  0.00    +0.202 C 
ATOM      8  O   LIG A   1      -8.853   5.247 127.448  0.00  0.00    -0.468 OA
ATOM      9  C   LIG A   1      -8.646   4.855 128.767  0.00  0.00    +0.102 C 
ATOM     10  C   LIG A   1      -7.579   3.821 128.936  0.00  0.00    +0.086 C 
ATOM     11  C   LIG A   1      -9.347   5.375 129.790  0.00  0.00    +0.050 C 
ATOM     12  C   LIG A   1     -10.397   6.369 129.532  0.00  0.00    +0.000 C 
ATOM     13  C   LIG A   1     -11.258   6.811 130.482  0.00  0.00    +0.067 C 
ENDROOT
BRANCH   3  14
ATOM     14  O   LIG A   1     -13.463   6.914 128.130  0.00  0.00    -0.378 OA
ATOM     15  H   LIG A   1     -13.768   6.370 128.878  0.00  0.00    +0.211 HD
ENDBRANCH   3  14
BRANCH   5  16
ATOM     16  O   LIG A   1     -10.596   9.257 128.186  0.00  0.00    -0.384 OA
ATOM     17  H   LIG A   1     -10.480   9.777 127.370  0.00  0.00    +0.210 HD
ENDBRANCH   5  16
BRANCH  13  18
ATOM     18  C   LIG A   1     -11.247   6.372 131.911  0.00  0.00    +0.263 C 
ATOM     19  O   LIG A   1     -10.324   6.554 132.696  0.00  0.00    -0.296 OA
ENDBRANCH  13  18
TORSDOF 3
ENDMDL
MODEL 5
REMARK VINA RESULT:      -5.8     10.199     11.152
REMARK  Name = NuBBE_348
REMARK  5 active torsions:
REMARK  status: ('A' for Active; 'I' for Inactive)
REMARK    1  A    between atoms: C_3  and  C_4
REMARK    2  A    between atoms: C_3  and  O_5
REMARK    3  A    between atoms: C_6  and  O_8
REMARK    4  A    between atoms: C_12  and  C_13
REMARK    5  A    between atoms: C_16  and  C_17
REMARK                            x       y       z     vdW  Elec       q    Type
REMARK                         _______ _______ _______ _____ _____    ______ ____
ROOT
ATOM      1  O   LIG A   1      -6.573  -1.008 123.697  0.00  0.00    -0.289 OA
ATOM      2  C   LIG A   1      -7.212  -1.515 124.621  0.00  0.00    +0.201 C 
ATOM      3  C   LIG A   1      -8.659  -2.002 124.450  0.00  0.00    +0.155 C 
ATOM      4  C   LIG A   1      -8.973  -2.202 122.963  0.00  0.00    +0.053 C 
ATOM      5  C   LIG A   1      -8.815  -3.320 125.227  0.00  0.00    +0.187 C 
ATOM      6  C   LIG A   1      -8.360  -3.158 126.649  0.00  0.00    +0.027 C 
ATOM      7  C   LIG A   1      -9.005  -3.742 127.675  0.00  0.00    +0.202 C 
ATOM      8  O   LIG A   1      -8.607  -3.662 128.993  0.00  0.00    -0.468 OA
ATOM      9  C   LIG A   1      -7.391  -3.046 129.272  0.00  0.00    +0.102 C 
ATOM     10  C   LIG A   1      -6.965  -3.156 130.701  0.00  0.00    +0.086 C 
ATOM     11  C   LIG A   1      -6.670  -2.415 128.327  0.00  0.00    +0.050 C 
ATOM     12  C   LIG A   1      -7.177  -2.330 126.951  0.00  0.00    +0.000 C 
ATOM     13  C   LIG A   1      -6.598  -1.571 125.989  0.00  0.00    +0.067 C 
ENDROOT
BRANCH   3  14
ATOM     14  O   LIG A   1      -9.593  -1.021 124.925  0.00  0.00    -0.378 OA
ATOM     15  H   LIG A   1      -9.237  -0.599 125.728  0.00  0.00    +0.211 HD
ENDBRANCH   3  14
BRANCH   5  16
ATOM     16  O   LIG A   1      -8.038  -4.371 124.652  0.00  0.00    -0.384 OA
ATOM     17  H   LIG A   1      -8.148  -4.324 123.685  0.00  0.00    +0.210 HD
ENDBRANCH   5  16
BRANCH  13  18
ATOM     18  C   LIG A   1      -5.369  -0.742 126.181  0.00  0.00    +0.263 C 
ATOM     19  O   LIG A   1      -5.362   0.445 126.483  0.00  0.00    -0.296 OA
ENDBRANCH  13  18
TORSDOF 3
ENDMDL
MODEL 6
REMARK VINA RESULT:      -5.7      6.804      9.786
REMARK  Name = NuBBE_348
REMARK  5 active torsions:
REMARK  status: ('A' for Active; 'I' for Inactive)
REMARK    1  A    between atoms: C_3  and  C_4
REMARK    2  A    between atoms: C_3  and  O_5
REMARK    3  A    between atoms: C_6  and  O_8
REMARK    4  A    between atoms: C_12  and  C_13
REMARK    5  A    between atoms: C_16  and  C_17
REMARK                            x       y       z     vdW  Elec       q    Type
REMARK                         _______ _______ _______ _____ _____    ______ ____
ROOT
ATOM      1  O   LIG A   1      -8.493   2.993 125.397  0.00  0.00    -0.289 OA
ATOM      2  C   LIG A   1      -8.757   1.800 125.238  0.00  0.00    +0.201 C 
ATOM      3  C   LIG A   1      -9.386   1.263 123.942  0.00  0.00    +0.155 C 
ATOM      4  C   LIG A   1      -9.182   2.269 122.804  0.00  0.00    +0.053 C 
ATOM      5  C   LIG A   1      -8.722  -0.085 123.612  0.00  0.00    +0.187 C 
ATOM      6  C   LIG A   1      -8.789  -1.016 124.788  0.00  0.00    +0.027 C 
ATOM      7  C   LIG A   1      -9.023  -2.333 124.644  0.00  0.00    +0.202 C 
ATOM      8  O   LIG A   1      -9.053  -3.238 125.683  0.00  0.00    -0.468 OA
ATOM      9  C   LIG A   1      -8.695  -2.790 126.950  0.00  0.00    +0.102 C 
ATOM     10  C   LIG A   1      -8.594  -3.875 127.975  0.00  0.00    +0.086 C 
ATOM     11  C   LIG A   1      -8.458  -1.493 127.215  0.00  0.00    +0.050 C 
ATOM     12  C   LIG A   1      -8.606  -0.488 126.154  0.00  0.00    +0.000 C 
ATOM     13  C   LIG A   1      -8.552   0.848 126.378  0.00  0.00    +0.067 C 
ENDROOT
BRANCH   3  14
ATOM     14  O   LIG A   1     -10.805   1.106 124.085  0.00  0.00    -0.378 OA
ATOM     15  H   LIG A   1     -10.991   0.511 124.833  0.00  0.00    +0.211 HD
ENDBRANCH   3  14
BRANCH   5  16
ATOM     16  O   LIG A   1      -7.343   0.071 123.276  0.00  0.00    -0.384 OA
ATOM     17  H   LIG A   1      -7.230   0.962 122.899  0.00  0.00    +0.210 HD
ENDBRANCH   5  16
BRANCH  13  18
ATOM     18  C   LIG A   1      -8.317   1.479 127.714  0.00  0.00    +0.263 C 
ATOM     19  O   LIG A   1      -9.161   2.084 128.364  0.00  0.00    -0.296 OA
ENDBRANCH  13  18
TORSDOF 3
ENDMDL
MODEL 7
REMARK VINA RESULT:      -5.7      7.032      8.759
REMARK  Name = NuBBE_348
REMARK  5 active torsions:
REMARK  status: ('A' for Active; 'I' for Inactive)
REMARK    1  A    between atoms: C_3  and  C_4
REMARK    2  A    between atoms: C_3  and  O_5
REMARK    3  A    between atoms: C_6  and  O_8
REMARK    4  A    between atoms: C_12  and  C_13
REMARK    5  A    between atoms: C_16  and  C_17
REMARK                            x       y       z     vdW  Elec       q    Type
REMARK                         _______ _______ _______ _____ _____    ______ ____
ROOT
ATOM      1  O   LIG A   1      -6.357   2.523 127.349  0.00  0.00    -0.289 OA
ATOM      2  C   LIG A   1      -6.669   2.509 126.156  0.00  0.00    +0.201 C 
ATOM      3  C   LIG A   1      -7.849   1.680 125.626  0.00  0.00    +0.155 C 
ATOM      4  C   LIG A   1      -8.792   1.311 126.777  0.00  0.00    +0.053 C 
ATOM      5  C   LIG A   1      -8.581   2.516 124.562  0.00  0.00    +0.187 C 
ATOM      6  C   LIG A   1      -7.622   3.005 123.515  0.00  0.00    +0.027 C 
ATOM      7  C   LIG A   1      -7.951   3.052 122.211  0.00  0.00    +0.202 C 
ATOM      8  O   LIG A   1      -7.127   3.531 121.215  0.00  0.00    -0.468 OA
ATOM      9  C   LIG A   1      -5.924   4.122 121.590  0.00  0.00    +0.102 C 
ATOM     10  C   LIG A   1      -5.180   4.760 120.461  0.00  0.00    +0.086 C 
ATOM     11  C   LIG A   1      -5.486   4.116 122.862  0.00  0.00    +0.050 C 
ATOM     12  C   LIG A   1      -6.268   3.443 123.906  0.00  0.00    +0.000 C 
ATOM     13  C   LIG A   1      -5.815   3.246 125.169  0.00  0.00    +0.067 C 
ENDROOT
BRANCH   3  14
ATOM     14  O   LIG A   1      -7.396   0.437 125.069  0.00  0.00    -0.378 OA
ATOM     15  H   LIG A   1      -6.423   0.438 125.024  0.00  0.00    +0.211 HD
ENDBRANCH   3  14
BRANCH   5  16
ATOM     16  O   LIG A   1      -9.209   3.665 125.129  0.00  0.00    -0.384 OA
ATOM     17  H   LIG A   1      -9.362   4.304 124.409  0.00  0.00    +0.210 HD
ENDBRANCH   5  16
BRANCH  13  18
ATOM     18  C   LIG A   1      -4.484   3.700 125.676  0.00  0.00    +0.263 C 
ATOM     19  O   LIG A   1      -4.298   4.683 126.384  0.00  0.00    -0.296 OA
ENDBRANCH  13  18
TORSDOF 3
ENDMDL
MODEL 8
REMARK VINA RESULT:      -5.7      2.525      3.812
REMARK  Name = NuBBE_348
REMARK  5 active torsions:
REMARK  status: ('A' for Active; 'I' for Inactive)
REMARK    1  A    between atoms: C_3  and  C_4
REMARK    2  A    between atoms: C_3  and  O_5
REMARK    3  A    between atoms: C_6  and  O_8
REMARK    4  A    between atoms: C_12  and  C_13
REMARK    5  A    between atoms: C_16  and  C_17
REMARK                            x       y       z     vdW  Elec       q    Type
REMARK                         _______ _______ _______ _____ _____    ______ ____
ROOT
ATOM      1  O   LIG A   1      -6.359   4.937 132.908  0.00  0.00    -0.289 OA
ATOM      2  C   LIG A   1      -7.377   4.925 132.213  0.00  0.00    +0.201 C 
ATOM      3  C   LIG A   1      -8.300   3.699 132.129  0.00  0.00    +0.155 C 
ATOM      4  C   LIG A   1      -8.049   2.770 133.322  0.00  0.00    +0.053 C 
ATOM      5  C   LIG A   1      -9.755   4.196 132.114  0.00  0.00    +0.187 C 
ATOM      6  C   LIG A   1      -9.958   5.222 131.037  0.00  0.00    +0.027 C 
ATOM      7  C   LIG A   1     -11.081   5.268 130.297  0.00  0.00    +0.202 C 
ATOM      8  O   LIG A   1     -11.337   6.213 129.326  0.00  0.00    -0.468 OA
ATOM      9  C   LIG A   1     -10.437   7.265 129.185  0.00  0.00    +0.102 C 
ATOM     10  C   LIG A   1     -10.883   8.325 128.230  0.00  0.00    +0.086 C 
ATOM     11  C   LIG A   1      -9.274   7.313 129.860  0.00  0.00    +0.050 C 
ATOM     12  C   LIG A   1      -8.901   6.215 130.760  0.00  0.00    +0.000 C 
ATOM     13  C   LIG A   1      -7.681   6.106 131.340  0.00  0.00    +0.067 C 
ENDROOT
BRANCH   3  14
ATOM     14  O   LIG A   1      -8.019   2.922 130.955  0.00  0.00    -0.378 OA
ATOM     15  H   LIG A   1      -7.459   3.441 130.350  0.00  0.00    +0.211 HD
ENDBRANCH   3  14
BRANCH   5  16
ATOM     16  O   LIG A   1     -10.121   4.805 133.352  0.00  0.00    -0.384 OA
ATOM     17  H   LIG A   1     -10.238   4.094 134.008  0.00  0.00    +0.210 HD
ENDBRANCH   5  16
BRANCH  13  18
ATOM     18  C   LIG A   1      -6.565   7.086 131.166  0.00  0.00    +0.263 C 
ATOM     19  O   LIG A   1      -5.717   7.036 130.284  0.00  0.00    -0.296 OA
ENDBRANCH  13  18
TORSDOF 3
ENDMDL
MODEL 9
REMARK VINA RESULT:      -5.6      2.714      5.808
REMARK  Name = NuBBE_348
REMARK  5 active torsions:
REMARK  status: ('A' for Active; 'I' for Inactive)
REMARK    1  A    between atoms: C_3  and  C_4
REMARK    2  A    between atoms: C_3  and  O_5
REMARK    3  A    between atoms: C_6  and  O_8
REMARK    4  A    between atoms: C_12  and  C_13
REMARK    5  A    between atoms: C_16  and  C_17
REMARK                            x       y       z     vdW  Elec       q    Type
REMARK                         _______ _______ _______ _____ _____    ______ ____
ROOT
ATOM      1  O   LIG A   1      -9.285   7.377 129.897  0.00  0.00    -0.289 OA
ATOM      2  C   LIG A   1      -9.381   6.379 130.615  0.00  0.00    +0.201 C 
ATOM      3  C   LIG A   1     -10.723   5.672 130.863  0.00  0.00    +0.155 C 
ATOM      4  C   LIG A   1     -11.733   6.066 129.779  0.00  0.00    +0.053 C 
ATOM      5  C   LIG A   1     -10.472   4.155 130.856  0.00  0.00    +0.187 C 
ATOM      6  C   LIG A   1      -9.372   3.791 131.812  0.00  0.00    +0.027 C 
ATOM      7  C   LIG A   1      -9.424   2.681 132.569  0.00  0.00    +0.202 C 
ATOM      8  O   LIG A   1      -8.425   2.277 133.430  0.00  0.00    -0.468 OA
ATOM      9  C   LIG A   1      -7.231   2.992 133.427  0.00  0.00    +0.102 C 
ATOM     10  C   LIG A   1      -6.153   2.383 134.264  0.00  0.00    +0.086 C 
ATOM     11  C   LIG A   1      -7.074   4.127 132.722  0.00  0.00    +0.050 C 
ATOM     12  C   LIG A   1      -8.195   4.672 131.946  0.00  0.00    +0.000 C 
ATOM     13  C   LIG A   1      -8.171   5.890 131.352  0.00  0.00    +0.067 C 
ENDROOT
BRANCH   3  14
ATOM     14  O   LIG A   1     -11.300   6.084 132.111  0.00  0.00    -0.378 OA
ATOM     15  H   LIG A   1     -10.938   6.953 132.363  0.00  0.00    +0.211 HD
ENDBRANCH   3  14
BRANCH   5  16
ATOM     16  O   LIG A   1     -10.081   3.687 129.566  0.00  0.00    -0.384 OA
ATOM     17  H   LIG A   1      -9.270   3.159 129.676  0.00  0.00    +0.210 HD
ENDBRANCH   5  16
BRANCH  13  18
ATOM     18  C   LIG A   1      -7.008   6.830 131.384  0.00  0.00    +0.263 C 
ATOM     19  O   LIG A   1      -6.121   6.879 130.541  0.00  0.00    -0.296 OA
ENDBRANCH  13  18
TORSDOF 3
ENDMDL
