MODEL 1
REMARK VINA RESULT:      -8.1      0.000      0.000
REMARK  Name = NuBBE_1400
REMARK  7 active torsions:
REMARK  status: ('A' for Active; 'I' for Inactive)
REMARK    1  A    between atoms: C_10  and  C_13
REMARK    2  A    between atoms: C_13  and  C_14
REMARK    3  A    between atoms: C_14  and  C_15
REMARK    4  A    between atoms: C_16  and  C_17
REMARK    5  A    between atoms: C_17  and  C_18
REMARK    6  A    between atoms: C_21  and  O_23
REMARK    7  A    between atoms: O_23  and  C_24
REMARK                            x       y       z     vdW  Elec       q    Type
REMARK                         _______ _______ _______ _____ _____    ______ ____
ROOT
ATOM      1  O   LIG A   1      -4.774   3.947 124.644  0.00  0.00    -0.287 OA
ATOM      2  C   LIG A   1      -5.864   3.527 124.296  0.00  0.00    +0.190 A 
ATOM      3  C   LIG A   1      -6.350   3.635 122.897  0.00  0.00    +0.049 A 
ATOM      4  C   LIG A   1      -7.599   3.078 122.560  0.00  0.00    +0.053 A 
ATOM      5  N   LIG A   1      -8.335   2.364 123.523  0.00  0.00    -0.343 N 
ATOM      6  C   LIG A   1      -7.923   2.361 124.855  0.00  0.00    +0.023 A 
ATOM      7  C   LIG A   1      -6.774   2.901 125.283  0.00  0.00    +0.072 A 
ATOM      8  C   LIG A   1      -8.854   1.652 125.806  0.00  0.00    +0.054 C 
ATOM      9  C   LIG A   1      -9.143   0.223 125.321  0.00  0.00    +0.011 C 
ATOM     10  C   LIG A   1      -9.192   0.067 123.777  0.00  0.00    +0.009 C 
ATOM     11  C   LIG A   1      -9.403   1.439 123.101  0.00  0.00    +0.125 C 
ATOM     12  C   LIG A   1      -8.061   3.291 121.256  0.00  0.00    +0.030 A 
ATOM     13  C   LIG A   1      -7.283   3.957 120.306  0.00  0.00    +0.048 A 
ATOM     14  C   LIG A   1      -6.029   4.458 120.644  0.00  0.00    +0.121 A 
ATOM     15  C   LIG A   1      -5.558   4.293 121.944  0.00  0.00    +0.059 A 
ENDROOT
BRANCH  14  16
ATOM     16  O   LIG A   1      -5.194   5.110 119.779  0.00  0.00    -0.495 OA
ATOM     17  C   LIG A   1      -5.839   5.775 118.697  0.00  0.00    +0.277 C 
ENDBRANCH  14  16
BRANCH  10  18
ATOM     18  C   LIG A   1      -7.928  -0.672 123.250  0.00  0.00    +0.009 C 
BRANCH  18  19
ATOM     19  C   LIG A   1      -8.155  -2.152 122.896  0.00  0.00    +0.027 C 
BRANCH  19  20
ATOM     20  C   LIG A   1      -7.753  -3.068 124.021  0.00  0.00    -0.031 C 
ATOM     21  C   LIG A   1      -6.517  -3.509 124.313  0.00  0.00    -0.031 C 
BRANCH  21  22
ATOM     22  C   LIG A   1      -5.236  -3.228 123.574  0.00  0.00    +0.023 C 
ATOM     23  C   LIG A   1      -4.236  -4.376 123.632  0.00  0.00    +0.008 C 
ENDBRANCH  21  22
ENDBRANCH  19  20
ENDBRANCH  18  19
ENDBRANCH  10  18
TORSDOF 5
ENDMDL
MODEL 2
REMARK VINA RESULT:      -8.0      1.284      1.531
REMARK  Name = NuBBE_1400
REMARK  7 active torsions:
REMARK  status: ('A' for Active; 'I' for Inactive)
REMARK    1  A    between atoms: C_10  and  C_13
REMARK    2  A    between atoms: C_13  and  C_14
REMARK    3  A    between atoms: C_14  and  C_15
REMARK    4  A    between atoms: C_16  and  C_17
REMARK    5  A    between atoms: C_17  and  C_18
REMARK    6  A    between atoms: C_21  and  O_23
REMARK    7  A    between atoms: O_23  and  C_24
REMARK                            x       y       z     vdW  Elec       q    Type
REMARK                         _______ _______ _______ _____ _____    ______ ____
ROOT
ATOM      1  O   LIG A   1      -4.629   3.927 124.846  0.00  0.00    -0.287 OA
ATOM      2  C   LIG A   1      -5.728   3.506 124.523  0.00  0.00    +0.190 A 
ATOM      3  C   LIG A   1      -6.235   3.590 123.130  0.00  0.00    +0.049 A 
ATOM      4  C   LIG A   1      -7.493   3.034 122.824  0.00  0.00    +0.053 A 
ATOM      5  N   LIG A   1      -8.217   2.342 123.812  0.00  0.00    -0.343 N 
ATOM      6  C   LIG A   1      -7.783   2.362 125.137  0.00  0.00    +0.023 A 
ATOM      7  C   LIG A   1      -6.624   2.904 125.536  0.00  0.00    +0.072 A 
ATOM      8  C   LIG A   1      -8.702   1.677 126.116  0.00  0.00    +0.054 C 
ATOM      9  C   LIG A   1      -9.007   0.241 125.663  0.00  0.00    +0.011 C 
ATOM     10  C   LIG A   1      -9.081   0.055 124.123  0.00  0.00    +0.009 C 
ATOM     11  C   LIG A   1      -9.296   1.416 123.425  0.00  0.00    +0.125 C 
ATOM     12  C   LIG A   1      -7.974   3.225 121.523  0.00  0.00    +0.030 A 
ATOM     13  C   LIG A   1      -7.209   3.869 120.549  0.00  0.00    +0.048 A 
ATOM     14  C   LIG A   1      -5.947   4.369 120.857  0.00  0.00    +0.121 A 
ATOM     15  C   LIG A   1      -5.455   4.226 122.153  0.00  0.00    +0.059 A 
ENDROOT
BRANCH  14  16
ATOM     16  O   LIG A   1      -5.122   4.999 119.967  0.00  0.00    -0.495 OA
ATOM     17  C   LIG A   1      -5.783   5.696 118.914  0.00  0.00    +0.277 C 
ENDBRANCH  14  16
BRANCH  10  18
ATOM     18  C   LIG A   1      -7.830  -0.700 123.591  0.00  0.00    +0.009 C 
BRANCH  18  19
ATOM     19  C   LIG A   1      -8.144  -1.842 122.609  0.00  0.00    +0.027 C 
BRANCH  19  20
ATOM     20  C   LIG A   1      -9.338  -2.648 123.045  0.00  0.00    -0.031 C 
ATOM     21  C   LIG A   1      -9.412  -3.503 124.080  0.00  0.00    -0.031 C 
BRANCH  21  22
ATOM     22  C   LIG A   1      -8.318  -3.894 125.038  0.00  0.00    +0.023 C 
ATOM     23  C   LIG A   1      -8.610  -3.512 126.483  0.00  0.00    +0.008 C 
ENDBRANCH  21  22
ENDBRANCH  19  20
ENDBRANCH  18  19
ENDBRANCH  10  18
TORSDOF 5
ENDMDL
MODEL 3
REMARK VINA RESULT:      -7.4      2.895      7.047
REMARK  Name = NuBBE_1400
REMARK  7 active torsions:
REMARK  status: ('A' for Active; 'I' for Inactive)
REMARK    1  A    between atoms: C_10  and  C_13
REMARK    2  A    between atoms: C_13  and  C_14
REMARK    3  A    between atoms: C_14  and  C_15
REMARK    4  A    between atoms: C_16  and  C_17
REMARK    5  A    between atoms: C_17  and  C_18
REMARK    6  A    between atoms: C_21  and  O_23
REMARK    7  A    between atoms: O_23  and  C_24
REMARK                            x       y       z     vdW  Elec       q    Type
REMARK                         _______ _______ _______ _____ _____    ______ ____
ROOT
ATOM      1  O   LIG A   1      -5.563  -2.596 123.234  0.00  0.00    -0.287 OA
ATOM      2  C   LIG A   1      -6.529  -2.025 123.710  0.00  0.00    +0.190 A 
ATOM      3  C   LIG A   1      -6.649  -1.736 125.161  0.00  0.00    +0.049 A 
ATOM      4  C   LIG A   1      -7.772  -1.025 125.629  0.00  0.00    +0.053 A 
ATOM      5  N   LIG A   1      -8.723  -0.532 124.717  0.00  0.00    -0.343 N 
ATOM      6  C   LIG A   1      -8.658  -0.900 123.374  0.00  0.00    +0.023 A 
ATOM      7  C   LIG A   1      -7.655  -1.611 122.842  0.00  0.00    +0.072 A 
ATOM      8  C   LIG A   1      -9.795  -0.395 122.522  0.00  0.00    +0.054 C 
ATOM      9  C   LIG A   1      -9.949   1.127 122.663  0.00  0.00    +0.011 C 
ATOM     10  C   LIG A   1      -9.608   1.677 124.075  0.00  0.00    +0.009 C 
ATOM     11  C   LIG A   1      -9.647   0.543 125.122  0.00  0.00    +0.125 C 
ATOM     12  C   LIG A   1      -7.892  -0.862 127.014  0.00  0.00    +0.030 A 
ATOM     13  C   LIG A   1      -6.904  -1.315 127.890  0.00  0.00    +0.048 A 
ATOM     14  C   LIG A   1      -5.777  -1.973 127.406  0.00  0.00    +0.121 A 
ATOM     15  C   LIG A   1      -5.646  -2.181 126.035  0.00  0.00    +0.059 A 
ENDROOT
BRANCH  14  16
ATOM     16  O   LIG A   1      -4.753  -2.438 128.186  0.00  0.00    -0.495 OA
ATOM     17  C   LIG A   1      -5.153  -3.113 129.374  0.00  0.00    +0.277 C 
ENDBRANCH  14  16
BRANCH  10  18
ATOM     18  C   LIG A   1      -8.249   2.436 124.065  0.00  0.00    +0.009 C 
BRANCH  18  19
ATOM     19  C   LIG A   1      -7.894   3.091 122.719  0.00  0.00    +0.027 C 
BRANCH  19  20
ATOM     20  C   LIG A   1      -6.409   3.113 122.478  0.00  0.00    -0.031 C 
ATOM     21  C   LIG A   1      -5.764   3.585 121.397  0.00  0.00    -0.031 C 
BRANCH  21  22
ATOM     22  C   LIG A   1      -6.360   4.176 120.148  0.00  0.00    +0.023 C 
ATOM     23  C   LIG A   1      -5.513   5.285 119.536  0.00  0.00    +0.008 C 
ENDBRANCH  21  22
ENDBRANCH  19  20
ENDBRANCH  18  19
ENDBRANCH  10  18
TORSDOF 5
ENDMDL
MODEL 4
REMARK VINA RESULT:      -7.4      3.365      5.180
REMARK  Name = NuBBE_1400
REMARK  7 active torsions:
REMARK  status: ('A' for Active; 'I' for Inactive)
REMARK    1  A    between atoms: C_10  and  C_13
REMARK    2  A    between atoms: C_13  and  C_14
REMARK    3  A    between atoms: C_14  and  C_15
REMARK    4  A    between atoms: C_16  and  C_17
REMARK    5  A    between atoms: C_17  and  C_18
REMARK    6  A    between atoms: C_21  and  O_23
REMARK    7  A    between atoms: O_23  and  C_24
REMARK                            x       y       z     vdW  Elec       q    Type
REMARK                         _______ _______ _______ _____ _____    ______ ____
ROOT
ATOM      1  O   LIG A   1      -9.241   2.227 124.079  0.00  0.00    -0.287 OA
ATOM      2  C   LIG A   1      -8.650   1.162 124.142  0.00  0.00    +0.190 A 
ATOM      3  C   LIG A   1      -7.376   1.002 124.886  0.00  0.00    +0.049 A 
ATOM      4  C   LIG A   1      -6.779  -0.273 124.958  0.00  0.00    +0.053 A 
ATOM      5  N   LIG A   1      -7.428  -1.387 124.396  0.00  0.00    -0.343 N 
ATOM      6  C   LIG A   1      -8.566  -1.209 123.610  0.00  0.00    +0.023 A 
ATOM      7  C   LIG A   1      -9.182  -0.030 123.444  0.00  0.00    +0.072 A 
ATOM      8  C   LIG A   1      -9.104  -2.467 122.977  0.00  0.00    +0.054 C 
ATOM      9  C   LIG A   1      -9.339  -3.553 124.037  0.00  0.00    +0.011 C 
ATOM     10  C   LIG A   1      -8.321  -3.535 125.211  0.00  0.00    +0.009 C 
ATOM     11  C   LIG A   1      -7.052  -2.750 124.814  0.00  0.00    +0.125 C 
ATOM     12  C   LIG A   1      -5.530  -0.357 125.584  0.00  0.00    +0.030 A 
ATOM     13  C   LIG A   1      -4.936   0.757 126.180  0.00  0.00    +0.048 A 
ATOM     14  C   LIG A   1      -5.563   1.999 126.141  0.00  0.00    +0.121 A 
ATOM     15  C   LIG A   1      -6.791   2.122 125.495  0.00  0.00    +0.059 A 
ENDROOT
BRANCH  14  16
ATOM     16  O   LIG A   1      -5.065   3.139 126.709  0.00  0.00    -0.495 OA
ATOM     17  C   LIG A   1      -3.675   3.367 126.495  0.00  0.00    +0.277 C 
ENDBRANCH  14  16
BRANCH  10  18
ATOM     18  C   LIG A   1      -8.978  -2.992 126.512  0.00  0.00    +0.009 C 
BRANCH  18  19
ATOM     19  C   LIG A   1      -8.858  -3.929 127.726  0.00  0.00    +0.027 C 
BRANCH  19  20
ATOM     20  C   LIG A   1      -8.487  -3.182 128.979  0.00  0.00    -0.031 C 
ATOM     21  C   LIG A   1      -7.306  -2.606 129.266  0.00  0.00    -0.031 C 
BRANCH  21  22
ATOM     22  C   LIG A   1      -6.056  -2.591 128.429  0.00  0.00    +0.023 C 
ATOM     23  C   LIG A   1      -4.809  -3.024 129.189  0.00  0.00    +0.008 C 
ENDBRANCH  21  22
ENDBRANCH  19  20
ENDBRANCH  18  19
ENDBRANCH  10  18
TORSDOF 5
ENDMDL
MODEL 5
REMARK VINA RESULT:      -7.2      3.982      6.685
REMARK  Name = NuBBE_1400
REMARK  7 active torsions:
REMARK  status: ('A' for Active; 'I' for Inactive)
REMARK    1  A    between atoms: C_10  and  C_13
REMARK    2  A    between atoms: C_13  and  C_14
REMARK    3  A    between atoms: C_14  and  C_15
REMARK    4  A    between atoms: C_16  and  C_17
REMARK    5  A    between atoms: C_17  and  C_18
REMARK    6  A    between atoms: C_21  and  O_23
REMARK    7  A    between atoms: O_23  and  C_24
REMARK                            x       y       z     vdW  Elec       q    Type
REMARK                         _______ _______ _______ _____ _____    ______ ____
ROOT
ATOM      1  O   LIG A   1      -9.424   1.207 126.637  0.00  0.00    -0.287 OA
ATOM      2  C   LIG A   1      -8.419   0.627 126.262  0.00  0.00    +0.190 A 
ATOM      3  C   LIG A   1      -7.445   0.028 127.209  0.00  0.00    +0.049 A 
ATOM      4  C   LIG A   1      -6.335  -0.674 126.698  0.00  0.00    +0.053 A 
ATOM      5  N   LIG A   1      -6.200  -0.866 125.310  0.00  0.00    -0.343 N 
ATOM      6  C   LIG A   1      -7.059  -0.210 124.429  0.00  0.00    +0.023 A 
ATOM      7  C   LIG A   1      -8.116   0.516 124.817  0.00  0.00    +0.072 A 
ATOM      8  C   LIG A   1      -6.744  -0.412 122.968  0.00  0.00    +0.054 C 
ATOM      9  C   LIG A   1      -6.654  -1.908 122.631  0.00  0.00    +0.011 C 
ATOM     10  C   LIG A   1      -6.084  -2.790 123.775  0.00  0.00    +0.009 C 
ATOM     11  C   LIG A   1      -5.312  -1.923 124.794  0.00  0.00    +0.125 C 
ATOM     12  C   LIG A   1      -5.391  -1.135 127.623  0.00  0.00    +0.030 A 
ATOM     13  C   LIG A   1      -5.580  -0.976 128.997  0.00  0.00    +0.048 A 
ATOM     14  C   LIG A   1      -6.707  -0.323 129.486  0.00  0.00    +0.121 A 
ATOM     15  C   LIG A   1      -7.647   0.178 128.589  0.00  0.00    +0.059 A 
ENDROOT
BRANCH  14  16
ATOM     16  O   LIG A   1      -6.982  -0.134 130.813  0.00  0.00    -0.495 OA
ATOM     17  C   LIG A   1      -8.156  -0.787 131.289  0.00  0.00    +0.277 C 
ENDBRANCH  14  16
BRANCH  10  18
ATOM     18  C   LIG A   1      -7.206  -3.638 124.439  0.00  0.00    +0.009 C 
BRANCH  18  19
ATOM     19  C   LIG A   1      -8.612  -3.399 123.863  0.00  0.00    +0.027 C 
BRANCH  19  20
ATOM     20  C   LIG A   1      -9.538  -2.780 124.875  0.00  0.00    -0.031 C 
ATOM     21  C   LIG A   1      -9.509  -2.935 126.211  0.00  0.00    -0.031 C 
BRANCH  21  22
ATOM     22  C   LIG A   1      -8.571  -3.786 127.023  0.00  0.00    +0.023 C 
ATOM     23  C   LIG A   1      -8.574  -3.448 128.508  0.00  0.00    +0.008 C 
ENDBRANCH  21  22
ENDBRANCH  19  20
ENDBRANCH  18  19
ENDBRANCH  10  18
TORSDOF 5
ENDMDL
MODEL 6
REMARK VINA RESULT:      -7.2      1.787      2.400
REMARK  Name = NuBBE_1400
REMARK  7 active torsions:
REMARK  status: ('A' for Active; 'I' for Inactive)
REMARK    1  A    between atoms: C_10  and  C_13
REMARK    2  A    between atoms: C_13  and  C_14
REMARK    3  A    between atoms: C_14  and  C_15
REMARK    4  A    between atoms: C_16  and  C_17
REMARK    5  A    between atoms: C_17  and  C_18
REMARK    6  A    between atoms: C_21  and  O_23
REMARK    7  A    between atoms: O_23  and  C_24
REMARK                            x       y       z     vdW  Elec       q    Type
REMARK                         _______ _______ _______ _____ _____    ______ ____
ROOT
ATOM      1  O   LIG A   1      -5.247   5.377 126.486  0.00  0.00    -0.287 OA
ATOM      2  C   LIG A   1      -5.986   4.445 126.214  0.00  0.00    +0.190 A 
ATOM      3  C   LIG A   1      -6.140   3.930 124.830  0.00  0.00    +0.049 A 
ATOM      4  C   LIG A   1      -6.971   2.816 124.602  0.00  0.00    +0.053 A 
ATOM      5  N   LIG A   1      -7.582   2.159 125.685  0.00  0.00    -0.343 N 
ATOM      6  C   LIG A   1      -7.518   2.713 126.963  0.00  0.00    +0.023 A 
ATOM      7  C   LIG A   1      -6.791   3.795 127.272  0.00  0.00    +0.072 A 
ATOM      8  C   LIG A   1      -8.303   1.972 128.016  0.00  0.00    +0.054 C 
ATOM      9  C   LIG A   1      -7.910   0.488 128.045  0.00  0.00    +0.011 C 
ATOM     10  C   LIG A   1      -7.538  -0.105 126.659  0.00  0.00    +0.009 C 
ATOM     11  C   LIG A   1      -8.092   0.785 125.524  0.00  0.00    +0.125 C 
ATOM     12  C   LIG A   1      -7.165   2.427 123.271  0.00  0.00    +0.030 A 
ATOM     13  C   LIG A   1      -6.502   3.065 122.221  0.00  0.00    +0.048 A 
ATOM     14  C   LIG A   1      -5.646   4.134 122.470  0.00  0.00    +0.121 A 
ATOM     15  C   LIG A   1      -5.460   4.566 123.780  0.00  0.00    +0.059 A 
ENDROOT
BRANCH  14  16
ATOM     16  O   LIG A   1      -4.944   4.808 121.508  0.00  0.00    -0.495 OA
ATOM     17  C   LIG A   1      -5.487   4.730 120.193  0.00  0.00    +0.277 C 
ENDBRANCH  14  16
BRANCH  10  18
ATOM     18  C   LIG A   1      -6.005  -0.337 126.543  0.00  0.00    +0.009 C 
BRANCH  18  19
ATOM     19  C   LIG A   1      -5.608  -1.715 125.984  0.00  0.00    +0.027 C 
BRANCH  19  20
ATOM     20  C   LIG A   1      -5.573  -1.723 124.479  0.00  0.00    -0.031 C 
ATOM     21  C   LIG A   1      -5.449  -2.790 123.670  0.00  0.00    -0.031 C 
BRANCH  21  22
ATOM     22  C   LIG A   1      -5.281  -4.233 124.062  0.00  0.00    +0.023 C 
ATOM     23  C   LIG A   1      -4.086  -4.908 123.400  0.00  0.00    +0.008 C 
ENDBRANCH  21  22
ENDBRANCH  19  20
ENDBRANCH  18  19
ENDBRANCH  10  18
TORSDOF 5
ENDMDL
MODEL 7
REMARK VINA RESULT:      -7.1      7.594     10.110
REMARK  Name = NuBBE_1400
REMARK  7 active torsions:
REMARK  status: ('A' for Active; 'I' for Inactive)
REMARK    1  A    between atoms: C_10  and  C_13
REMARK    2  A    between atoms: C_13  and  C_14
REMARK    3  A    between atoms: C_14  and  C_15
REMARK    4  A    between atoms: C_16  and  C_17
REMARK    5  A    between atoms: C_17  and  C_18
REMARK    6  A    between atoms: C_21  and  O_23
REMARK    7  A    between atoms: O_23  and  C_24
REMARK                            x       y       z     vdW  Elec       q    Type
REMARK                         _______ _______ _______ _____ _____    ______ ____
ROOT
ATOM      1  O   LIG A   1      -6.192   7.404 130.345  0.00  0.00    -0.287 OA
ATOM      2  C   LIG A   1      -6.737   6.834 131.275  0.00  0.00    +0.190 A 
ATOM      3  C   LIG A   1      -8.209   6.657 131.349  0.00  0.00    +0.049 A 
ATOM      4  C   LIG A   1      -8.761   5.941 132.429  0.00  0.00    +0.053 A 
ATOM      5  N   LIG A   1      -7.916   5.339 133.380  0.00  0.00    -0.343 N 
ATOM      6  C   LIG A   1      -6.547   5.600 133.362  0.00  0.00    +0.023 A 
ATOM      7  C   LIG A   1      -5.934   6.307 132.402  0.00  0.00    +0.072 A 
ATOM      8  C   LIG A   1      -5.768   4.983 134.496  0.00  0.00    +0.054 C 
ATOM      9  C   LIG A   1      -6.034   3.473 134.581  0.00  0.00    +0.011 C 
ATOM     10  C   LIG A   1      -7.475   3.051 134.184  0.00  0.00    +0.009 C 
ATOM     11  C   LIG A   1      -8.430   4.263 134.248  0.00  0.00    +0.125 C 
ATOM     12  C   LIG A   1     -10.157   5.886 132.510  0.00  0.00    +0.030 A 
ATOM     13  C   LIG A   1     -10.968   6.447 131.522  0.00  0.00    +0.048 A 
ATOM     14  C   LIG A   1     -10.404   7.110 130.436  0.00  0.00    +0.121 A 
ATOM     15  C   LIG A   1      -9.018   7.212 130.346  0.00  0.00    +0.059 A 
ENDROOT
BRANCH  14  16
ATOM     16  O   LIG A   1     -11.117   7.676 129.415  0.00  0.00    -0.495 OA
ATOM     17  C   LIG A   1     -12.375   8.232 129.788  0.00  0.00    +0.277 C 
ENDBRANCH  14  16
BRANCH  10  18
ATOM     18  C   LIG A   1      -7.489   2.350 132.795  0.00  0.00    +0.009 C 
BRANCH  18  19
ATOM     19  C   LIG A   1      -8.895   2.035 132.254  0.00  0.00    +0.027 C 
BRANCH  19  20
ATOM     20  C   LIG A   1      -8.846   1.435 130.875  0.00  0.00    -0.031 C 
ATOM     21  C   LIG A   1      -8.747   2.087 129.703  0.00  0.00    -0.031 C 
BRANCH  21  22
ATOM     22  C   LIG A   1      -8.694   3.574 129.473  0.00  0.00    +0.023 C 
ATOM     23  C   LIG A   1      -7.383   4.048 128.858  0.00  0.00    +0.008 C 
ENDBRANCH  21  22
ENDBRANCH  19  20
ENDBRANCH  18  19
ENDBRANCH  10  18
TORSDOF 5
ENDMDL
MODEL 8
REMARK VINA RESULT:      -7.0      1.689      2.383
REMARK  Name = NuBBE_1400
REMARK  7 active torsions:
REMARK  status: ('A' for Active; 'I' for Inactive)
REMARK    1  A    between atoms: C_10  and  C_13
REMARK    2  A    between atoms: C_13  and  C_14
REMARK    3  A    between atoms: C_14  and  C_15
REMARK    4  A    between atoms: C_16  and  C_17
REMARK    5  A    between atoms: C_17  and  C_18
REMARK    6  A    between atoms: C_21  and  O_23
REMARK    7  A    between atoms: O_23  and  C_24
REMARK                            x       y       z     vdW  Elec       q    Type
REMARK                         _______ _______ _______ _____ _____    ______ ____
ROOT
ATOM      1  O   LIG A   1      -4.199   4.730 122.349  0.00  0.00    -0.287 OA
ATOM      2  C   LIG A   1      -5.157   4.217 122.902  0.00  0.00    +0.190 A 
ATOM      3  C   LIG A   1      -6.416   3.899 122.181  0.00  0.00    +0.049 A 
ATOM      4  C   LIG A   1      -7.461   3.259 122.876  0.00  0.00    +0.053 A 
ATOM      5  N   LIG A   1      -7.278   2.861 124.213  0.00  0.00    -0.343 N 
ATOM      6  C   LIG A   1      -6.138   3.259 124.909  0.00  0.00    +0.023 A 
ATOM      7  C   LIG A   1      -5.109   3.910 124.349  0.00  0.00    +0.072 A 
ATOM      8  C   LIG A   1      -6.111   2.861 126.363  0.00  0.00    +0.054 C 
ATOM      9  C   LIG A   1      -6.346   1.351 126.520  0.00  0.00    +0.011 C 
ATOM     10  C   LIG A   1      -7.311   0.740 125.467  0.00  0.00    +0.009 C 
ATOM     11  C   LIG A   1      -8.165   1.845 124.809  0.00  0.00    +0.125 C 
ATOM     12  C   LIG A   1      -8.663   3.068 122.185  0.00  0.00    +0.030 A 
ATOM     13  C   LIG A   1      -8.796   3.425 120.841  0.00  0.00    +0.048 A 
ATOM     14  C   LIG A   1      -7.736   4.012 120.156  0.00  0.00    +0.121 A 
ATOM     15  C   LIG A   1      -6.539   4.247 120.827  0.00  0.00    +0.059 A 
ENDROOT
BRANCH  14  16
ATOM     16  O   LIG A   1      -7.771   4.380 118.839  0.00  0.00    -0.495 OA
ATOM     17  C   LIG A   1      -6.597   5.030 118.359  0.00  0.00    +0.277 C 
ENDBRANCH  14  16
BRANCH  10  18
ATOM     18  C   LIG A   1      -6.532  -0.114 124.426  0.00  0.00    +0.009 C 
BRANCH  18  19
ATOM     19  C   LIG A   1      -6.069  -1.487 124.945  0.00  0.00    +0.027 C 
BRANCH  19  20
ATOM     20  C   LIG A   1      -7.077  -2.106 125.876  0.00  0.00    -0.031 C 
ATOM     21  C   LIG A   1      -7.980  -3.059 125.585  0.00  0.00    -0.031 C 
BRANCH  21  22
ATOM     22  C   LIG A   1      -8.233  -3.720 124.257  0.00  0.00    +0.023 C 
ATOM     23  C   LIG A   1      -9.466  -3.188 123.539  0.00  0.00    +0.008 C 
ENDBRANCH  21  22
ENDBRANCH  19  20
ENDBRANCH  18  19
ENDBRANCH  10  18
TORSDOF 5
ENDMDL
MODEL 9
REMARK VINA RESULT:      -6.9      7.407      9.397
REMARK  Name = NuBBE_1400
REMARK  7 active torsions:
REMARK  status: ('A' for Active; 'I' for Inactive)
REMARK    1  A    between atoms: C_10  and  C_13
REMARK    2  A    between atoms: C_13  and  C_14
REMARK    3  A    between atoms: C_14  and  C_15
REMARK    4  A    between atoms: C_16  and  C_17
REMARK    5  A    between atoms: C_17  and  C_18
REMARK    6  A    between atoms: C_21  and  O_23
REMARK    7  A    between atoms: O_23  and  C_24
REMARK                            x       y       z     vdW  Elec       q    Type
REMARK                         _______ _______ _______ _____ _____    ______ ____
ROOT
ATOM      1  O   LIG A   1      -8.939   5.421 127.995  0.00  0.00    -0.287 OA
ATOM      2  C   LIG A   1      -8.954   5.445 129.214  0.00  0.00    +0.190 A 
ATOM      3  C   LIG A   1     -10.133   5.910 129.987  0.00  0.00    +0.049 A 
ATOM      4  C   LIG A   1     -10.094   5.858 131.395  0.00  0.00    +0.053 A 
ATOM      5  N   LIG A   1      -8.980   5.301 132.049  0.00  0.00    -0.343 N 
ATOM      6  C   LIG A   1      -7.838   4.968 131.321  0.00  0.00    +0.023 A 
ATOM      7  C   LIG A   1      -7.761   5.024 129.984  0.00  0.00    +0.072 A 
ATOM      8  C   LIG A   1      -6.677   4.482 132.150  0.00  0.00    +0.054 C 
ATOM      9  C   LIG A   1      -7.103   3.319 133.058  0.00  0.00    +0.011 C 
ATOM     10  C   LIG A   1      -8.564   3.412 133.577  0.00  0.00    +0.009 C 
ATOM     11  C   LIG A   1      -9.091   4.858 133.451  0.00  0.00    +0.125 C 
ATOM     12  C   LIG A   1     -11.187   6.399 132.083  0.00  0.00    +0.030 A 
ATOM     13  C   LIG A   1     -12.302   6.896 131.406  0.00  0.00    +0.048 A 
ATOM     14  C   LIG A   1     -12.344   6.894 130.014  0.00  0.00    +0.121 A 
ATOM     15  C   LIG A   1     -11.256   6.395 129.301  0.00  0.00    +0.059 A 
ENDROOT
BRANCH  14  16
ATOM     16  O   LIG A   1     -13.397   7.346 129.268  0.00  0.00    -0.495 OA
ATOM     17  C   LIG A   1     -13.057   8.255 128.225  0.00  0.00    +0.277 C 
ENDBRANCH  14  16
BRANCH  10  18
ATOM     18  C   LIG A   1      -9.478   2.377 132.860  0.00  0.00    +0.009 C 
BRANCH  18  19
ATOM     19  C   LIG A   1      -8.721   1.251 132.135  0.00  0.00    +0.027 C 
BRANCH  19  20
ATOM     20  C   LIG A   1      -8.788   1.401 130.639  0.00  0.00    -0.031 C 
ATOM     21  C   LIG A   1      -7.777   1.284 129.760  0.00  0.00    -0.031 C 
BRANCH  21  22
ATOM     22  C   LIG A   1      -6.326   1.009 130.050  0.00  0.00    +0.023 C 
ATOM     23  C   LIG A   1      -5.392   2.116 129.580  0.00  0.00    +0.008 C 
ENDBRANCH  21  22
ENDBRANCH  19  20
ENDBRANCH  18  19
ENDBRANCH  10  18
TORSDOF 5
ENDMDL
