MODEL 1
REMARK VINA RESULT:      -5.9      0.000      0.000
REMARK  Name = NuBBE_642
REMARK  16 active torsions:
REMARK  status: ('A' for Active; 'I' for Inactive)
REMARK    1  A    between atoms: O_1  and  C_2
REMARK    2  A    between atoms: C_2  and  C_3
REMARK    3  A    between atoms: C_3  and  C_4
REMARK    4  A    between atoms: C_4  and  C_5
REMARK    5  A    between atoms: C_5  and  C_6
REMARK    6  A    between atoms: C_6  and  C_7
REMARK    7  A    between atoms: C_7  and  C_8
REMARK    8  A    between atoms: C_8  and  C_9
REMARK    9  A    between atoms: C_9  and  C_10
REMARK   10  A    between atoms: C_10  and  C_11
REMARK   11  A    between atoms: C_11  and  C_12
REMARK   12  A    between atoms: C_12  and  C_13
REMARK   13  A    between atoms: C_13  and  C_14
REMARK   14  A    between atoms: C_14  and  C_15
REMARK   15  A    between atoms: C_15  and  C_16
REMARK   16  A    between atoms: C_16  and  C_17
REMARK                            x       y       z     vdW  Elec       q    Type
REMARK                         _______ _______ _______ _____ _____    ______ ____
ROOT
ATOM      1  C   LIG A   1      -7.533  -2.501 130.606  0.00  0.00    -0.000 C 
ENDROOT
BRANCH   1   2
ATOM      2  C   LIG A   1      -7.413  -3.321 129.305  0.00  0.00    -0.000 C 
BRANCH   2   3
ATOM      3  C   LIG A   1      -8.730  -3.589 128.554  0.00  0.00    -0.000 C 
BRANCH   3   4
ATOM      4  C   LIG A   1      -8.602  -3.811 127.042  0.00  0.00    -0.000 C 
BRANCH   4   5
ATOM      5  C   LIG A   1      -9.360  -2.792 126.222  0.00  0.00    -0.000 C 
BRANCH   5   6
ATOM      6  C   LIG A   1      -9.314  -3.038 124.700  0.00  0.00    -0.000 C 
BRANCH   6   7
ATOM      7  C   LIG A   1      -7.974  -3.539 124.095  0.00  0.00    +0.000 C 
BRANCH   7   8
ATOM      8  C   LIG A   1      -7.152  -2.368 123.509  0.00  0.00    +0.000 C 
BRANCH   8   9
ATOM      9  C   LIG A   1      -5.647  -2.339 123.845  0.00  0.00    +0.011 C 
BRANCH   9  10
ATOM     10  C   LIG A   1      -4.759  -3.211 122.965  0.00  0.00    +0.120 C 
BRANCH  10  11
ATOM     11  C   LIG A   1      -4.329  -4.478 123.706  0.00  0.00    +0.305 C 
ATOM     12  O   LIG A   1      -4.200  -4.574 124.897  0.00  0.00    -0.251 OA
BRANCH  11  13
ATOM     13  O   LIG A   1      -4.127  -5.519 122.850  0.00  0.00    -0.481 OA
ATOM     14  H   LIG A   1      -4.260  -5.303 121.912  0.00  0.00    +0.295 HD
ENDBRANCH  11  13
ENDBRANCH  10  11
ENDBRANCH   9  10
ENDBRANCH   8   9
ENDBRANCH   7   8
ENDBRANCH   6   7
ENDBRANCH   5   6
ENDBRANCH   4   5
ENDBRANCH   3   4
ENDBRANCH   2   3
ENDBRANCH   1   2
BRANCH   1  15
ATOM     15  C   LIG A   1      -7.106  -1.045 130.433  0.00  0.00    +0.000 C 
BRANCH  15  16
ATOM     16  C   LIG A   1      -8.162   0.033 130.395  0.00  0.00    +0.000 C 
BRANCH  16  17
ATOM     17  C   LIG A   1      -7.970   0.955 129.220  0.00  0.00    +0.005 C 
BRANCH  17  18
ATOM     18  C   LIG A   1      -7.108   0.333 128.133  0.00  0.00    +0.035 C 
BRANCH  18  19
ATOM     19  C   LIG A   1      -7.589   0.550 126.714  0.00  0.00    -0.044 A 
ATOM     20  C   LIG A   1      -8.951   0.567 126.363  0.00  0.00    +0.053 A 
ATOM     21  C   LIG A   1      -9.278   0.852 125.048  0.00  0.00    +0.167 A 
ATOM     22  O   LIG A   1     -10.530   0.872 124.512  0.00  0.00    -0.453 OA
ATOM     23  C   LIG A   1     -10.242   1.273 123.153  0.00  0.00    +0.466 C 
ATOM     24  O   LIG A   1      -8.835   1.428 122.887  0.00  0.00    -0.453 OA
ATOM     25  C   LIG A   1      -8.316   1.152 124.112  0.00  0.00    +0.166 A 
ATOM     26  C   LIG A   1      -6.977   1.132 124.415  0.00  0.00    +0.050 A 
ATOM     27  C   LIG A   1      -6.615   0.786 125.717  0.00  0.00    +0.007 A 
ENDBRANCH  18  19
ENDBRANCH  17  18
ENDBRANCH  16  17
ENDBRANCH  15  16
ENDBRANCH   1  15
TORSDOF 16
ENDMDL
MODEL 2
REMARK VINA RESULT:      -5.9      2.615      6.191
REMARK  Name = NuBBE_642
REMARK  16 active torsions:
REMARK  status: ('A' for Active; 'I' for Inactive)
REMARK    1  A    between atoms: O_1  and  C_2
REMARK    2  A    between atoms: C_2  and  C_3
REMARK    3  A    between atoms: C_3  and  C_4
REMARK    4  A    between atoms: C_4  and  C_5
REMARK    5  A    between atoms: C_5  and  C_6
REMARK    6  A    between atoms: C_6  and  C_7
REMARK    7  A    between atoms: C_7  and  C_8
REMARK    8  A    between atoms: C_8  and  C_9
REMARK    9  A    between atoms: C_9  and  C_10
REMARK   10  A    between atoms: C_10  and  C_11
REMARK   11  A    between atoms: C_11  and  C_12
REMARK   12  A    between atoms: C_12  and  C_13
REMARK   13  A    between atoms: C_13  and  C_14
REMARK   14  A    between atoms: C_14  and  C_15
REMARK   15  A    between atoms: C_15  and  C_16
REMARK   16  A    between atoms: C_16  and  C_17
REMARK                            x       y       z     vdW  Elec       q    Type
REMARK                         _______ _______ _______ _____ _____    ______ ____
ROOT
ATOM      1  C   LIG A   1      -8.885  -2.974 123.578  0.00  0.00    -0.000 C 
ENDROOT
BRANCH   1   2
ATOM      2  C   LIG A   1      -7.563  -2.330 123.113  0.00  0.00    -0.000 C 
BRANCH   2   3
ATOM      3  C   LIG A   1      -6.296  -2.778 123.865  0.00  0.00    -0.000 C 
BRANCH   3   4
ATOM      4  C   LIG A   1      -5.696  -1.750 124.833  0.00  0.00    -0.000 C 
BRANCH   4   5
ATOM      5  C   LIG A   1      -6.368  -0.398 124.760  0.00  0.00    -0.000 C 
BRANCH   5   6
ATOM      6  C   LIG A   1      -6.909   0.118 126.109  0.00  0.00    -0.000 C 
BRANCH   6   7
ATOM      7  C   LIG A   1      -8.433   0.395 126.211  0.00  0.00    +0.000 C 
BRANCH   7   8
ATOM      8  C   LIG A   1      -9.071   0.538 124.811  0.00  0.00    +0.000 C 
BRANCH   8   9
ATOM      9  C   LIG A   1      -9.582   1.940 124.420  0.00  0.00    +0.011 C 
BRANCH   9  10
ATOM     10  C   LIG A   1      -8.510   3.013 124.268  0.00  0.00    +0.120 C 
BRANCH  10  11
ATOM     11  C   LIG A   1      -7.893   2.975 122.868  0.00  0.00    +0.305 C 
ATOM     12  O   LIG A   1      -6.926   2.333 122.555  0.00  0.00    -0.251 OA
BRANCH  11  13
ATOM     13  O   LIG A   1      -8.590   3.748 121.989  0.00  0.00    -0.481 OA
ATOM     14  H   LIG A   1      -8.996   4.540 122.379  0.00  0.00    +0.295 HD
ENDBRANCH  11  13
ENDBRANCH  10  11
ENDBRANCH   9  10
ENDBRANCH   8   9
ENDBRANCH   7   8
ENDBRANCH   6   7
ENDBRANCH   5   6
ENDBRANCH   4   5
ENDBRANCH   3   4
ENDBRANCH   2   3
ENDBRANCH   1   2
BRANCH   1  15
ATOM     15  C   LIG A   1      -8.729  -3.798 124.854  0.00  0.00    +0.000 C 
BRANCH  15  16
ATOM     16  C   LIG A   1      -9.049  -3.162 126.186  0.00  0.00    +0.000 C 
BRANCH  16  17
ATOM     17  C   LIG A   1      -8.487  -3.963 127.331  0.00  0.00    +0.005 C 
BRANCH  17  18
ATOM     18  C   LIG A   1      -8.565  -3.213 128.651  0.00  0.00    +0.035 C 
BRANCH  18  19
ATOM     19  C   LIG A   1      -7.443  -2.232 128.913  0.00  0.00    -0.044 A 
ATOM     20  C   LIG A   1      -7.635  -1.014 129.589  0.00  0.00    +0.053 A 
ATOM     21  C   LIG A   1      -6.521  -0.230 129.841  0.00  0.00    +0.167 A 
ATOM     22  O   LIG A   1      -6.512   0.993 130.441  0.00  0.00    -0.453 OA
ATOM     23  C   LIG A   1      -5.095   1.277 130.468  0.00  0.00    +0.466 C 
ATOM     24  O   LIG A   1      -4.294   0.258 129.840  0.00  0.00    -0.453 OA
ATOM     25  C   LIG A   1      -5.256  -0.634 129.485  0.00  0.00    +0.166 A 
ATOM     26  C   LIG A   1      -5.033  -1.810 128.813  0.00  0.00    +0.050 A 
ATOM     27  C   LIG A   1      -6.143  -2.590 128.489  0.00  0.00    +0.007 A 
ENDBRANCH  18  19
ENDBRANCH  17  18
ENDBRANCH  16  17
ENDBRANCH  15  16
ENDBRANCH   1  15
TORSDOF 16
ENDMDL
MODEL 3
REMARK VINA RESULT:      -5.8      3.415      5.774
REMARK  Name = NuBBE_642
REMARK  16 active torsions:
REMARK  status: ('A' for Active; 'I' for Inactive)
REMARK    1  A    between atoms: O_1  and  C_2
REMARK    2  A    between atoms: C_2  and  C_3
REMARK    3  A    between atoms: C_3  and  C_4
REMARK    4  A    between atoms: C_4  and  C_5
REMARK    5  A    between atoms: C_5  and  C_6
REMARK    6  A    between atoms: C_6  and  C_7
REMARK    7  A    between atoms: C_7  and  C_8
REMARK    8  A    between atoms: C_8  and  C_9
REMARK    9  A    between atoms: C_9  and  C_10
REMARK   10  A    between atoms: C_10  and  C_11
REMARK   11  A    between atoms: C_11  and  C_12
REMARK   12  A    between atoms: C_12  and  C_13
REMARK   13  A    between atoms: C_13  and  C_14
REMARK   14  A    between atoms: C_14  and  C_15
REMARK   15  A    between atoms: C_15  and  C_16
REMARK   16  A    between atoms: C_16  and  C_17
REMARK                            x       y       z     vdW  Elec       q    Type
REMARK                         _______ _______ _______ _____ _____    ______ ____
ROOT
ATOM      1  C   LIG A   1      -9.239  -0.859 122.874  0.00  0.00    -0.000 C 
ENDROOT
BRANCH   1   2
ATOM      2  C   LIG A   1      -8.633  -2.275 122.955  0.00  0.00    -0.000 C 
BRANCH   2   3
ATOM      3  C   LIG A   1      -9.282  -3.225 123.978  0.00  0.00    -0.000 C 
BRANCH   3   4
ATOM      4  C   LIG A   1      -8.370  -3.706 125.114  0.00  0.00    -0.000 C 
BRANCH   4   5
ATOM      5  C   LIG A   1      -8.953  -3.472 126.488  0.00  0.00    -0.000 C 
BRANCH   5   6
ATOM      6  C   LIG A   1      -8.034  -2.685 127.445  0.00  0.00    -0.000 C 
BRANCH   6   7
ATOM      7  C   LIG A   1      -7.573  -1.272 126.995  0.00  0.00    +0.000 C 
BRANCH   7   8
ATOM      8  C   LIG A   1      -6.031  -1.164 126.984  0.00  0.00    +0.000 C 
BRANCH   8   9
ATOM      9  C   LIG A   1      -5.424   0.166 127.476  0.00  0.00    +0.011 C 
BRANCH   9  10
ATOM     10  C   LIG A   1      -6.015   1.428 126.859  0.00  0.00    +0.120 C 
BRANCH  10  11
ATOM     11  C   LIG A   1      -4.920   2.301 126.242  0.00  0.00    +0.305 C 
ATOM     12  O   LIG A   1      -5.108   3.317 125.628  0.00  0.00    -0.251 OA
BRANCH  11  13
ATOM     13  O   LIG A   1      -3.677   1.802 126.490  0.00  0.00    -0.481 OA
ATOM     14  H   LIG A   1      -3.631   0.831 126.529  0.00  0.00    +0.295 HD
ENDBRANCH  11  13
ENDBRANCH  10  11
ENDBRANCH   9  10
ENDBRANCH   8   9
ENDBRANCH   7   8
ENDBRANCH   6   7
ENDBRANCH   5   6
ENDBRANCH   4   5
ENDBRANCH   3   4
ENDBRANCH   2   3
ENDBRANCH   1   2
BRANCH   1  15
ATOM     15  C   LIG A   1      -9.119  -0.084 124.185  0.00  0.00    +0.000 C 
BRANCH  15  16
ATOM     16  C   LIG A   1      -9.942   1.167 124.380  0.00  0.00    +0.000 C 
BRANCH  16  17
ATOM     17  C   LIG A   1      -9.073   2.392 124.478  0.00  0.00    +0.005 C 
BRANCH  17  18
ATOM     18  C   LIG A   1      -7.748   2.219 123.753  0.00  0.00    +0.035 C 
BRANCH  18  19
ATOM     19  C   LIG A   1      -7.604   2.995 122.461  0.00  0.00    -0.044 A 
ATOM     20  C   LIG A   1      -6.370   3.489 122.000  0.00  0.00    +0.053 A 
ATOM     21  C   LIG A   1      -6.343   4.117 120.766  0.00  0.00    +0.167 A 
ATOM     22  O   LIG A   1      -5.260   4.693 120.175  0.00  0.00    -0.453 OA
ATOM     23  C   LIG A   1      -5.828   5.122 118.917  0.00  0.00    +0.466 C 
ATOM     24  O   LIG A   1      -7.237   4.850 118.801  0.00  0.00    -0.453 OA
ATOM     25  C   LIG A   1      -7.470   4.226 119.985  0.00  0.00    +0.166 A 
ATOM     26  C   LIG A   1      -8.693   3.767 120.409  0.00  0.00    +0.050 A 
ATOM     27  C   LIG A   1      -8.762   3.187 121.675  0.00  0.00    +0.007 A 
ENDBRANCH  18  19
ENDBRANCH  17  18
ENDBRANCH  16  17
ENDBRANCH  15  16
ENDBRANCH   1  15
TORSDOF 16
ENDMDL
MODEL 4
REMARK VINA RESULT:      -5.8      7.297      9.338
REMARK  Name = NuBBE_642
REMARK  16 active torsions:
REMARK  status: ('A' for Active; 'I' for Inactive)
REMARK    1  A    between atoms: O_1  and  C_2
REMARK    2  A    between atoms: C_2  and  C_3
REMARK    3  A    between atoms: C_3  and  C_4
REMARK    4  A    between atoms: C_4  and  C_5
REMARK    5  A    between atoms: C_5  and  C_6
REMARK    6  A    between atoms: C_6  and  C_7
REMARK    7  A    between atoms: C_7  and  C_8
REMARK    8  A    between atoms: C_8  and  C_9
REMARK    9  A    between atoms: C_9  and  C_10
REMARK   10  A    between atoms: C_10  and  C_11
REMARK   11  A    between atoms: C_11  and  C_12
REMARK   12  A    between atoms: C_12  and  C_13
REMARK   13  A    between atoms: C_13  and  C_14
REMARK   14  A    between atoms: C_14  and  C_15
REMARK   15  A    between atoms: C_15  and  C_16
REMARK   16  A    between atoms: C_16  and  C_17
REMARK                            x       y       z     vdW  Elec       q    Type
REMARK                         _______ _______ _______ _____ _____    ______ ____
ROOT
ATOM      1  C   LIG A   1      -8.473   1.910 132.756  0.00  0.00    -0.000 C 
ENDROOT
BRANCH   1   2
ATOM      2  C   LIG A   1      -9.796   1.927 131.965  0.00  0.00    -0.000 C 
BRANCH   2   3
ATOM      3  C   LIG A   1      -9.895   2.977 130.842  0.00  0.00    -0.000 C 
BRANCH   3   4
ATOM      4  C   LIG A   1      -8.987   2.743 129.628  0.00  0.00    -0.000 C 
BRANCH   4   5
ATOM      5  C   LIG A   1      -8.067   3.906 129.336  0.00  0.00    -0.000 C 
BRANCH   5   6
ATOM      6  C   LIG A   1      -6.567   3.548 129.337  0.00  0.00    -0.000 C 
BRANCH   6   7
ATOM      7  C   LIG A   1      -5.552   4.713 129.482  0.00  0.00    +0.000 C 
BRANCH   7   8
ATOM      8  C   LIG A   1      -5.643   5.365 130.881  0.00  0.00    +0.000 C 
BRANCH   8   9
ATOM      9  C   LIG A   1      -5.513   6.900 130.942  0.00  0.00    +0.011 C 
BRANCH   9  10
ATOM     10  C   LIG A   1      -4.432   7.506 130.056  0.00  0.00    +0.120 C 
BRANCH  10  11
ATOM     11  C   LIG A   1      -3.043   7.282 130.657  0.00  0.00    +0.305 C 
ATOM     12  O   LIG A   1      -2.190   6.575 130.187  0.00  0.00    -0.251 OA
BRANCH  11  13
ATOM     13  O   LIG A   1      -2.863   8.005 131.797  0.00  0.00    -0.481 OA
ATOM     14  H   LIG A   1      -1.964   7.963 132.165  0.00  0.00    +0.295 HD
ENDBRANCH  11  13
ENDBRANCH  10  11
ENDBRANCH   9  10
ENDBRANCH   8   9
ENDBRANCH   7   8
ENDBRANCH   6   7
ENDBRANCH   5   6
ENDBRANCH   4   5
ENDBRANCH   3   4
ENDBRANCH   2   3
ENDBRANCH   1   2
BRANCH   1  15
ATOM     15  C   LIG A   1      -7.936   3.309 133.048  0.00  0.00    +0.000 C 
BRANCH  15  16
ATOM     16  C   LIG A   1      -8.438   4.054 134.261  0.00  0.00    +0.000 C 
BRANCH  16  17
ATOM     17  C   LIG A   1      -9.106   5.348 133.880  0.00  0.00    +0.005 C 
BRANCH  17  18
ATOM     18  C   LIG A   1      -8.523   5.946 132.609  0.00  0.00    +0.035 C 
BRANCH  18  19
ATOM     19  C   LIG A   1      -9.531   6.514 131.633  0.00  0.00    -0.044 A 
ATOM     20  C   LIG A   1      -9.158   7.160 130.440  0.00  0.00    +0.053 A 
ATOM     21  C   LIG A   1     -10.166   7.571 129.584  0.00  0.00    +0.167 A 
ATOM     22  O   LIG A   1     -10.006   8.246 128.411  0.00  0.00    -0.453 OA
ATOM     23  C   LIG A   1     -11.376   8.343 127.960  0.00  0.00    +0.466 C 
ATOM     24  O   LIG A   1     -12.326   7.784 128.886  0.00  0.00    -0.453 OA
ATOM     25  C   LIG A   1     -11.492   7.327 129.856  0.00  0.00    +0.166 A 
ATOM     26  C   LIG A   1     -11.892   6.711 131.016  0.00  0.00    +0.050 A 
ATOM     27  C   LIG A   1     -10.902   6.343 131.927  0.00  0.00    +0.007 A 
ENDBRANCH  18  19
ENDBRANCH  17  18
ENDBRANCH  16  17
ENDBRANCH  15  16
ENDBRANCH   1  15
TORSDOF 16
ENDMDL
MODEL 5
REMARK VINA RESULT:      -5.8      2.984      5.653
REMARK  Name = NuBBE_642
REMARK  16 active torsions:
REMARK  status: ('A' for Active; 'I' for Inactive)
REMARK    1  A    between atoms: O_1  and  C_2
REMARK    2  A    between atoms: C_2  and  C_3
REMARK    3  A    between atoms: C_3  and  C_4
REMARK    4  A    between atoms: C_4  and  C_5
REMARK    5  A    between atoms: C_5  and  C_6
REMARK    6  A    between atoms: C_6  and  C_7
REMARK    7  A    between atoms: C_7  and  C_8
REMARK    8  A    between atoms: C_8  and  C_9
REMARK    9  A    between atoms: C_9  and  C_10
REMARK   10  A    between atoms: C_10  and  C_11
REMARK   11  A    between atoms: C_11  and  C_12
REMARK   12  A    between atoms: C_12  and  C_13
REMARK   13  A    between atoms: C_13  and  C_14
REMARK   14  A    between atoms: C_14  and  C_15
REMARK   15  A    between atoms: C_15  and  C_16
REMARK   16  A    between atoms: C_16  and  C_17
REMARK                            x       y       z     vdW  Elec       q    Type
REMARK                         _______ _______ _______ _____ _____    ______ ____
ROOT
ATOM      1  C   LIG A   1      -7.968   0.498 130.047  0.00  0.00    -0.000 C 
ENDROOT
BRANCH   1   2
ATOM      2  C   LIG A   1      -7.914   0.893 128.557  0.00  0.00    -0.000 C 
BRANCH   2   3
ATOM      3  C   LIG A   1      -6.747   1.810 128.147  0.00  0.00    -0.000 C 
BRANCH   3   4
ATOM      4  C   LIG A   1      -5.800   1.248 127.079  0.00  0.00    -0.000 C 
BRANCH   4   5
ATOM      5  C   LIG A   1      -5.844   2.015 125.777  0.00  0.00    -0.000 C 
BRANCH   5   6
ATOM      6  C   LIG A   1      -6.957   1.564 124.810  0.00  0.00    -0.000 C 
BRANCH   6   7
ATOM      7  C   LIG A   1      -7.446   2.590 123.752  0.00  0.00    +0.000 C 
BRANCH   7   8
ATOM      8  C   LIG A   1      -6.536   2.583 122.502  0.00  0.00    +0.000 C 
BRANCH   8   9
ATOM      9  C   LIG A   1      -5.864   3.919 122.123  0.00  0.00    +0.011 C 
BRANCH   9  10
ATOM     10  C   LIG A   1      -5.082   3.915 120.815  0.00  0.00    +0.120 C 
BRANCH  10  11
ATOM     11  C   LIG A   1      -4.996   5.324 120.225  0.00  0.00    +0.305 C 
ATOM     12  O   LIG A   1      -5.566   5.695 119.233  0.00  0.00    -0.251 OA
BRANCH  11  13
ATOM     13  O   LIG A   1      -4.203   6.139 120.975  0.00  0.00    -0.481 OA
ATOM     14  H   LIG A   1      -4.023   5.813 121.874  0.00  0.00    +0.295 HD
ENDBRANCH  11  13
ENDBRANCH  10  11
ENDBRANCH   9  10
ENDBRANCH   8   9
ENDBRANCH   7   8
ENDBRANCH   6   7
ENDBRANCH   5   6
ENDBRANCH   4   5
ENDBRANCH   3   4
ENDBRANCH   2   3
ENDBRANCH   1   2
BRANCH   1  15
ATOM     15  C   LIG A   1      -7.445  -0.914 130.307  0.00  0.00    +0.000 C 
BRANCH  15  16
ATOM     16  C   LIG A   1      -8.154  -2.089 129.678  0.00  0.00    +0.000 C 
BRANCH  16  17
ATOM     17  C   LIG A   1      -7.183  -3.035 129.022  0.00  0.00    +0.005 C 
BRANCH  17  18
ATOM     18  C   LIG A   1      -6.234  -2.322 128.072  0.00  0.00    +0.035 C 
BRANCH  18  19
ATOM     19  C   LIG A   1      -6.669  -2.282 126.623  0.00  0.00    -0.044 A 
ATOM     20  C   LIG A   1      -8.015  -2.368 126.226  0.00  0.00    +0.053 A 
ATOM     21  C   LIG A   1      -8.303  -2.242 124.877  0.00  0.00    +0.167 A 
ATOM     22  O   LIG A   1      -9.533  -2.339 124.300  0.00  0.00    -0.453 OA
ATOM     23  C   LIG A   1      -9.211  -2.074 122.916  0.00  0.00    +0.466 C 
ATOM     24  O   LIG A   1      -7.803  -1.883 122.682  0.00  0.00    -0.453 OA
ATOM     25  C   LIG A   1      -7.320  -2.000 123.947  0.00  0.00    +0.166 A 
ATOM     26  C   LIG A   1      -5.994  -1.923 124.296  0.00  0.00    +0.050 A 
ATOM     27  C   LIG A   1      -5.668  -2.110 125.639  0.00  0.00    +0.007 A 
ENDBRANCH  18  19
ENDBRANCH  17  18
ENDBRANCH  16  17
ENDBRANCH  15  16
ENDBRANCH   1  15
TORSDOF 16
ENDMDL
MODEL 6
REMARK VINA RESULT:      -5.7      4.914      6.640
REMARK  Name = NuBBE_642
REMARK  16 active torsions:
REMARK  status: ('A' for Active; 'I' for Inactive)
REMARK    1  A    between atoms: O_1  and  C_2
REMARK    2  A    between atoms: C_2  and  C_3
REMARK    3  A    between atoms: C_3  and  C_4
REMARK    4  A    between atoms: C_4  and  C_5
REMARK    5  A    between atoms: C_5  and  C_6
REMARK    6  A    between atoms: C_6  and  C_7
REMARK    7  A    between atoms: C_7  and  C_8
REMARK    8  A    between atoms: C_8  and  C_9
REMARK    9  A    between atoms: C_9  and  C_10
REMARK   10  A    between atoms: C_10  and  C_11
REMARK   11  A    between atoms: C_11  and  C_12
REMARK   12  A    between atoms: C_12  and  C_13
REMARK   13  A    between atoms: C_13  and  C_14
REMARK   14  A    between atoms: C_14  and  C_15
REMARK   15  A    between atoms: C_15  and  C_16
REMARK   16  A    between atoms: C_16  and  C_17
REMARK                            x       y       z     vdW  Elec       q    Type
REMARK                         _______ _______ _______ _____ _____    ______ ____
ROOT
ATOM      1  C   LIG A   1      -9.586   2.879 130.322  0.00  0.00    -0.000 C 
ENDROOT
BRANCH   1   2
ATOM      2  C   LIG A   1      -8.503   1.965 129.714  0.00  0.00    -0.000 C 
BRANCH   2   3
ATOM      3  C   LIG A   1      -8.612   1.708 128.200  0.00  0.00    -0.000 C 
BRANCH   3   4
ATOM      4  C   LIG A   1      -7.407   1.014 127.552  0.00  0.00    -0.000 C 
BRANCH   4   5
ATOM      5  C   LIG A   1      -6.628   0.147 128.514  0.00  0.00    -0.000 C 
BRANCH   5   6
ATOM      6  C   LIG A   1      -7.193  -1.278 128.686  0.00  0.00    -0.000 C 
BRANCH   6   7
ATOM      7  C   LIG A   1      -7.230  -2.190 127.431  0.00  0.00    +0.000 C 
BRANCH   7   8
ATOM      8  C   LIG A   1      -8.425  -3.169 127.484  0.00  0.00    +0.000 C 
BRANCH   8   9
ATOM      9  C   LIG A   1      -9.267  -3.309 126.199  0.00  0.00    +0.011 C 
BRANCH   9  10
ATOM     10  C   LIG A   1      -8.508  -3.772 124.962  0.00  0.00    +0.120 C 
BRANCH  10  11
ATOM     11  C   LIG A   1      -8.992  -3.030 123.714  0.00  0.00    +0.305 C 
ATOM     12  O   LIG A   1      -8.375  -2.178 123.132  0.00  0.00    -0.251 OA
BRANCH  11  13
ATOM     13  O   LIG A   1     -10.217  -3.468 123.309  0.00  0.00    -0.481 OA
ATOM     14  H   LIG A   1     -10.370  -4.419 123.440  0.00  0.00    +0.295 HD
ENDBRANCH  11  13
ENDBRANCH  10  11
ENDBRANCH   9  10
ENDBRANCH   8   9
ENDBRANCH   7   8
ENDBRANCH   6   7
ENDBRANCH   5   6
ENDBRANCH   4   5
ENDBRANCH   3   4
ENDBRANCH   2   3
ENDBRANCH   1   2
BRANCH   1  15
ATOM     15  C   LIG A   1      -9.822   2.615 131.808  0.00  0.00    +0.000 C 
BRANCH  15  16
ATOM     16  C   LIG A   1      -8.744   2.980 132.801  0.00  0.00    +0.000 C 
BRANCH  16  17
ATOM     17  C   LIG A   1      -9.076   4.253 133.535  0.00  0.00    +0.005 C 
BRANCH  17  18
ATOM     18  C   LIG A   1      -8.484   5.479 132.859  0.00  0.00    +0.035 C 
BRANCH  18  19
ATOM     19  C   LIG A   1      -9.407   6.210 131.907  0.00  0.00    -0.044 A 
ATOM     20  C   LIG A   1      -8.943   6.905 130.776  0.00  0.00    +0.053 A 
ATOM     21  C   LIG A   1      -9.885   7.470 129.932  0.00  0.00    +0.167 A 
ATOM     22  O   LIG A   1      -9.631   8.213 128.818  0.00  0.00    -0.453 OA
ATOM     23  C   LIG A   1     -10.972   8.470 128.346  0.00  0.00    +0.466 C 
ATOM     24  O   LIG A   1     -11.996   7.934 129.206  0.00  0.00    -0.453 OA
ATOM     25  C   LIG A   1     -11.234   7.332 130.156  0.00  0.00    +0.166 A 
ATOM     26  C   LIG A   1     -11.722   6.671 131.257  0.00  0.00    +0.050 A 
ATOM     27  C   LIG A   1     -10.797   6.146 132.158  0.00  0.00    +0.007 A 
ENDBRANCH  18  19
ENDBRANCH  17  18
ENDBRANCH  16  17
ENDBRANCH  15  16
ENDBRANCH   1  15
TORSDOF 16
ENDMDL
MODEL 7
REMARK VINA RESULT:      -5.6      2.507      5.352
REMARK  Name = NuBBE_642
REMARK  16 active torsions:
REMARK  status: ('A' for Active; 'I' for Inactive)
REMARK    1  A    between atoms: O_1  and  C_2
REMARK    2  A    between atoms: C_2  and  C_3
REMARK    3  A    between atoms: C_3  and  C_4
REMARK    4  A    between atoms: C_4  and  C_5
REMARK    5  A    between atoms: C_5  and  C_6
REMARK    6  A    between atoms: C_6  and  C_7
REMARK    7  A    between atoms: C_7  and  C_8
REMARK    8  A    between atoms: C_8  and  C_9
REMARK    9  A    between atoms: C_9  and  C_10
REMARK   10  A    between atoms: C_10  and  C_11
REMARK   11  A    between atoms: C_11  and  C_12
REMARK   12  A    between atoms: C_12  and  C_13
REMARK   13  A    between atoms: C_13  and  C_14
REMARK   14  A    between atoms: C_14  and  C_15
REMARK   15  A    between atoms: C_15  and  C_16
REMARK   16  A    between atoms: C_16  and  C_17
REMARK                            x       y       z     vdW  Elec       q    Type
REMARK                         _______ _______ _______ _____ _____    ______ ____
ROOT
ATOM      1  C   LIG A   1      -6.429  -1.448 128.551  0.00  0.00    -0.000 C 
ENDROOT
BRANCH   1   2
ATOM      2  C   LIG A   1      -5.289  -1.123 127.564  0.00  0.00    -0.000 C 
BRANCH   2   3
ATOM      3  C   LIG A   1      -5.718  -0.822 126.116  0.00  0.00    -0.000 C 
BRANCH   3   4
ATOM      4  C   LIG A   1      -5.760   0.662 125.728  0.00  0.00    -0.000 C 
BRANCH   4   5
ATOM      5  C   LIG A   1      -6.966   1.389 126.276  0.00  0.00    -0.000 C 
BRANCH   5   6
ATOM      6  C   LIG A   1      -7.430   2.586 125.421  0.00  0.00    -0.000 C 
BRANCH   6   7
ATOM      7  C   LIG A   1      -7.174   4.010 125.985  0.00  0.00    +0.000 C 
BRANCH   7   8
ATOM      8  C   LIG A   1      -6.218   4.811 125.071  0.00  0.00    +0.000 C 
BRANCH   8   9
ATOM      9  C   LIG A   1      -5.334   3.996 124.104  0.00  0.00    +0.011 C 
BRANCH   9  10
ATOM     10  C   LIG A   1      -5.299   4.495 122.665  0.00  0.00    +0.120 C 
BRANCH  10  11
ATOM     11  C   LIG A   1      -6.096   3.570 121.744  0.00  0.00    +0.305 C 
ATOM     12  O   LIG A   1      -5.618   2.792 120.961  0.00  0.00    -0.251 OA
BRANCH  11  13
ATOM     13  O   LIG A   1      -7.439   3.708 121.928  0.00  0.00    -0.481 OA
ATOM     14  H   LIG A   1      -7.721   4.599 122.196  0.00  0.00    +0.295 HD
ENDBRANCH  11  13
ENDBRANCH  10  11
ENDBRANCH   9  10
ENDBRANCH   8   9
ENDBRANCH   7   8
ENDBRANCH   6   7
ENDBRANCH   5   6
ENDBRANCH   4   5
ENDBRANCH   3   4
ENDBRANCH   2   3
ENDBRANCH   1   2
BRANCH   1  15
ATOM     15  C   LIG A   1      -6.174  -2.719 129.358  0.00  0.00    +0.000 C 
BRANCH  15  16
ATOM     16  C   LIG A   1      -7.316  -3.676 129.606  0.00  0.00    +0.000 C 
BRANCH  16  17
ATOM     17  C   LIG A   1      -8.556  -3.264 128.858  0.00  0.00    +0.005 C 
BRANCH  17  18
ATOM     18  C   LIG A   1      -8.780  -4.100 127.608  0.00  0.00    +0.035 C 
BRANCH  18  19
ATOM     19  C   LIG A   1      -8.753  -3.340 126.300  0.00  0.00    -0.044 A 
ATOM     20  C   LIG A   1      -9.262  -2.035 126.164  0.00  0.00    +0.053 A 
ATOM     21  C   LIG A   1      -9.114  -1.406 124.939  0.00  0.00    +0.167 A 
ATOM     22  O   LIG A   1      -9.575  -0.169 124.604  0.00  0.00    -0.453 OA
ATOM     23  C   LIG A   1      -9.082  -0.048 123.251  0.00  0.00    +0.466 C 
ATOM     24  O   LIG A   1      -8.392  -1.222 122.784  0.00  0.00    -0.453 OA
ATOM     25  C   LIG A   1      -8.456  -2.007 123.891  0.00  0.00    +0.166 A 
ATOM     26  C   LIG A   1      -7.959  -3.284 123.984  0.00  0.00    +0.050 A 
ATOM     27  C   LIG A   1      -8.150  -3.965 125.185  0.00  0.00    +0.007 A 
ENDBRANCH  18  19
ENDBRANCH  17  18
ENDBRANCH  16  17
ENDBRANCH  15  16
ENDBRANCH   1  15
TORSDOF 16
ENDMDL
MODEL 8
REMARK VINA RESULT:      -5.6      2.197      5.123
REMARK  Name = NuBBE_642
REMARK  16 active torsions:
REMARK  status: ('A' for Active; 'I' for Inactive)
REMARK    1  A    between atoms: O_1  and  C_2
REMARK    2  A    between atoms: C_2  and  C_3
REMARK    3  A    between atoms: C_3  and  C_4
REMARK    4  A    between atoms: C_4  and  C_5
REMARK    5  A    between atoms: C_5  and  C_6
REMARK    6  A    between atoms: C_6  and  C_7
REMARK    7  A    between atoms: C_7  and  C_8
REMARK    8  A    between atoms: C_8  and  C_9
REMARK    9  A    between atoms: C_9  and  C_10
REMARK   10  A    between atoms: C_10  and  C_11
REMARK   11  A    between atoms: C_11  and  C_12
REMARK   12  A    between atoms: C_12  and  C_13
REMARK   13  A    between atoms: C_13  and  C_14
REMARK   14  A    between atoms: C_14  and  C_15
REMARK   15  A    between atoms: C_15  and  C_16
REMARK   16  A    between atoms: C_16  and  C_17
REMARK                            x       y       z     vdW  Elec       q    Type
REMARK                         _______ _______ _______ _____ _____    ______ ____
ROOT
ATOM      1  C   LIG A   1      -4.805  -3.617 130.118  0.00  0.00    -0.000 C 
ENDROOT
BRANCH   1   2
ATOM      2  C   LIG A   1      -4.676  -2.222 130.764  0.00  0.00    -0.000 C 
BRANCH   2   3
ATOM      3  C   LIG A   1      -4.238  -1.084 129.824  0.00  0.00    -0.000 C 
BRANCH   3   4
ATOM      4  C   LIG A   1      -5.361  -0.403 129.032  0.00  0.00    -0.000 C 
BRANCH   4   5
ATOM      5  C   LIG A   1      -6.230   0.497 129.880  0.00  0.00    -0.000 C 
BRANCH   5   6
ATOM      6  C   LIG A   1      -7.702   0.571 129.429  0.00  0.00    -0.000 C 
BRANCH   6   7
ATOM      7  C   LIG A   1      -8.058   1.586 128.309  0.00  0.00    +0.000 C 
BRANCH   7   8
ATOM      8  C   LIG A   1      -8.609   0.867 127.056  0.00  0.00    +0.000 C 
BRANCH   8   9
ATOM      9  C   LIG A   1      -8.979   1.756 125.851  0.00  0.00    +0.011 C 
BRANCH   9  10
ATOM     10  C   LIG A   1      -7.913   1.874 124.768  0.00  0.00    +0.120 C 
BRANCH  10  11
ATOM     11  C   LIG A   1      -8.483   2.525 123.507  0.00  0.00    +0.305 C 
ATOM     12  O   LIG A   1      -9.137   1.960 122.671  0.00  0.00    -0.251 OA
BRANCH  11  13
ATOM     13  O   LIG A   1      -8.183   3.853 123.444  0.00  0.00    -0.481 OA
ATOM     14  H   LIG A   1      -8.529   4.381 124.183  0.00  0.00    +0.295 HD
ENDBRANCH  11  13
ENDBRANCH  10  11
ENDBRANCH   9  10
ENDBRANCH   8   9
ENDBRANCH   7   8
ENDBRANCH   6   7
ENDBRANCH   5   6
ENDBRANCH   4   5
ENDBRANCH   3   4
ENDBRANCH   2   3
ENDBRANCH   1   2
BRANCH   1  15
ATOM     15  C   LIG A   1      -6.253  -4.093 130.015  0.00  0.00    +0.000 C 
BRANCH  15  16
ATOM     16  C   LIG A   1      -7.353  -3.235 130.591  0.00  0.00    +0.000 C 
BRANCH  16  17
ATOM     17  C   LIG A   1      -8.262  -2.703 129.515  0.00  0.00    +0.005 C 
BRANCH  17  18
ATOM     18  C   LIG A   1      -8.420  -3.679 128.359  0.00  0.00    +0.035 C 
BRANCH  18  19
ATOM     19  C   LIG A   1      -8.205  -3.095 126.979  0.00  0.00    -0.044 A 
ATOM     20  C   LIG A   1      -9.200  -3.098 125.985  0.00  0.00    +0.053 A 
ATOM     21  C   LIG A   1      -8.919  -2.466 124.785  0.00  0.00    +0.167 A 
ATOM     22  O   LIG A   1      -9.734  -2.400 123.695  0.00  0.00    -0.453 OA
ATOM     23  C   LIG A   1      -8.936  -1.592 122.802  0.00  0.00    +0.466 C 
ATOM     24  O   LIG A   1      -7.648  -1.240 123.343  0.00  0.00    -0.453 OA
ATOM     25  C   LIG A   1      -7.725  -1.818 124.570  0.00  0.00    +0.166 A 
ATOM     26  C   LIG A   1      -6.726  -1.807 125.512  0.00  0.00    +0.050 A 
ATOM     27  C   LIG A   1      -6.957  -2.489 126.706  0.00  0.00    +0.007 A 
ENDBRANCH  18  19
ENDBRANCH  17  18
ENDBRANCH  16  17
ENDBRANCH  15  16
ENDBRANCH   1  15
TORSDOF 16
ENDMDL
MODEL 9
REMARK VINA RESULT:      -5.6      3.245      5.508
REMARK  Name = NuBBE_642
REMARK  16 active torsions:
REMARK  status: ('A' for Active; 'I' for Inactive)
REMARK    1  A    between atoms: O_1  and  C_2
REMARK    2  A    between atoms: C_2  and  C_3
REMARK    3  A    between atoms: C_3  and  C_4
REMARK    4  A    between atoms: C_4  and  C_5
REMARK    5  A    between atoms: C_5  and  C_6
REMARK    6  A    between atoms: C_6  and  C_7
REMARK    7  A    between atoms: C_7  and  C_8
REMARK    8  A    between atoms: C_8  and  C_9
REMARK    9  A    between atoms: C_9  and  C_10
REMARK   10  A    between atoms: C_10  and  C_11
REMARK   11  A    between atoms: C_11  and  C_12
REMARK   12  A    between atoms: C_12  and  C_13
REMARK   13  A    between atoms: C_13  and  C_14
REMARK   14  A    between atoms: C_14  and  C_15
REMARK   15  A    between atoms: C_15  and  C_16
REMARK   16  A    between atoms: C_16  and  C_17
REMARK                            x       y       z     vdW  Elec       q    Type
REMARK                         _______ _______ _______ _____ _____    ______ ____
ROOT
ATOM      1  C   LIG A   1      -9.008  -3.078 126.230  0.00  0.00    -0.000 C 
ENDROOT
BRANCH   1   2
ATOM      2  C   LIG A   1      -8.632  -3.569 124.817  0.00  0.00    -0.000 C 
BRANCH   2   3
ATOM      3  C   LIG A   1      -7.148  -3.428 124.429  0.00  0.00    -0.000 C 
BRANCH   3   4
ATOM      4  C   LIG A   1      -6.332  -2.432 125.263  0.00  0.00    -0.000 C 
BRANCH   4   5
ATOM      5  C   LIG A   1      -5.811  -1.264 124.457  0.00  0.00    -0.000 C 
BRANCH   5   6
ATOM      6  C   LIG A   1      -6.600  -0.982 123.163  0.00  0.00    -0.000 C 
BRANCH   6   7
ATOM      7  C   LIG A   1      -7.695   0.118 123.216  0.00  0.00    +0.000 C 
BRANCH   7   8
ATOM      8  C   LIG A   1      -7.364   1.186 124.283  0.00  0.00    +0.000 C 
BRANCH   8   9
ATOM      9  C   LIG A   1      -7.112   2.621 123.775  0.00  0.00    +0.011 C 
BRANCH   9  10
ATOM     10  C   LIG A   1      -6.466   2.729 122.399  0.00  0.00    +0.120 C 
BRANCH  10  11
ATOM     11  C   LIG A   1      -7.344   3.540 121.445  0.00  0.00    +0.305 C 
ATOM     12  O   LIG A   1      -6.989   3.983 120.385  0.00  0.00    -0.251 OA
BRANCH  11  13
ATOM     13  O   LIG A   1      -8.610   3.690 121.926  0.00  0.00    -0.481 OA
ATOM     14  H   LIG A   1      -8.806   3.163 122.720  0.00  0.00    +0.295 HD
ENDBRANCH  11  13
ENDBRANCH  10  11
ENDBRANCH   9  10
ENDBRANCH   8   9
ENDBRANCH   7   8
ENDBRANCH   6   7
ENDBRANCH   5   6
ENDBRANCH   4   5
ENDBRANCH   3   4
ENDBRANCH   2   3
ENDBRANCH   1   2
BRANCH   1  15
ATOM     15  C   LIG A   1      -8.471  -3.983 127.337  0.00  0.00    +0.000 C 
BRANCH  15  16
ATOM     16  C   LIG A   1      -8.906  -3.740 128.763  0.00  0.00    +0.000 C 
BRANCH  16  17
ATOM     17  C   LIG A   1      -7.774  -3.213 129.605  0.00  0.00    +0.005 C 
BRANCH  17  18
ATOM     18  C   LIG A   1      -6.999  -2.109 128.903  0.00  0.00    +0.035 C 
BRANCH  18  19
ATOM     19  C   LIG A   1      -7.615  -0.728 128.981  0.00  0.00    -0.044 A 
ATOM     20  C   LIG A   1      -7.962  -0.114 130.198  0.00  0.00    +0.053 A 
ATOM     21  C   LIG A   1      -8.447   1.183 130.154  0.00  0.00    +0.167 A 
ATOM     22  O   LIG A   1      -8.872   1.924 131.215  0.00  0.00    -0.453 OA
ATOM     23  C   LIG A   1      -9.201   3.173 130.565  0.00  0.00    +0.466 C 
ATOM     24  O   LIG A   1      -9.025   3.140 129.136  0.00  0.00    -0.453 OA
ATOM     25  C   LIG A   1      -8.553   1.876 128.971  0.00  0.00    +0.166 A 
ATOM     26  C   LIG A   1      -8.237   1.304 127.764  0.00  0.00    +0.050 A 
ATOM     27  C   LIG A   1      -7.806  -0.022 127.771  0.00  0.00    +0.007 A 
ENDBRANCH  18  19
ENDBRANCH  17  18
ENDBRANCH  16  17
ENDBRANCH  15  16
ENDBRANCH   1  15
TORSDOF 16
ENDMDL
