MODEL 1
REMARK VINA RESULT:      -8.3      0.000      0.000
REMARK  Name = NuBBE_1054
REMARK  9 active torsions:
REMARK  status: ('A' for Active; 'I' for Inactive)
REMARK    1  A    between atoms: C_12  and  C_25
REMARK    2  A    between atoms: C_13  and  C_20
REMARK    3  A    between atoms: C_15  and  C_16
REMARK    4  A    between atoms: C_15  and  C_19
REMARK    5  A    between atoms: C_20  and  C_21
REMARK    6  A    between atoms: C_21  and  O_22
REMARK    7  A    between atoms: O_22  and  C_23
REMARK    8  A    between atoms: C_29  and  C_30
REMARK    9  A    between atoms: C_32  and  C_34
REMARK                            x       y       z     vdW  Elec       q    Type
REMARK                         _______ _______ _______ _____ _____    ______ ____
ROOT
ATOM      1  O   LIG A   1      -5.261  -3.918 123.773  0.00  0.00    -0.251 OA
ATOM      2  C   LIG A   1      -6.059  -3.146 124.304  0.00  0.00    +0.312 C 
ATOM      3  C   LIG A   1      -5.665  -1.696 124.585  0.00  0.00    +0.152 C 
ATOM      4  C   LIG A   1      -6.730  -0.779 125.169  0.00  0.00    -0.050 C 
ATOM      5  C   LIG A   1      -6.456   0.272 125.986  0.00  0.00    -0.064 C 
ATOM      6  C   LIG A   1      -5.024   0.626 126.363  0.00  0.00    +0.049 C 
ATOM      7  C   LIG A   1      -4.900   1.636 127.491  0.00  0.00    +0.126 C 
ATOM      8  C   LIG A   1      -5.758   2.780 127.112  0.00  0.00    +0.150 C 
ATOM      9  O   LIG A   1      -5.274   3.863 126.798  0.00  0.00    -0.296 OA
ATOM     10  C   LIG A   1      -7.591   1.073 126.639  0.00  0.00    +0.028 C 
ATOM     11  C   LIG A   1      -7.252   2.503 127.218  0.00  0.00    +0.037 C 
ATOM     12  C   LIG A   1      -7.491   2.564 128.784  0.00  0.00    +0.026 C 
ATOM     13  C   LIG A   1      -6.477   1.625 129.617  0.00  0.00    +0.028 C 
ATOM     14  C   LIG A   1      -5.796   2.484 130.707  0.00  0.00    +0.019 C 
ATOM     15  C   LIG A   1      -5.301   1.022 128.803  0.00  0.00    +0.150 C 
ATOM     16  O   LIG A   1      -4.646   0.068 129.234  0.00  0.00    -0.296 OA
ATOM     17  C   LIG A   1      -7.165   0.433 130.327  0.00  0.00    +0.019 C 
ATOM     18  C   LIG A   1      -7.938   3.655 126.453  0.00  0.00    +0.020 C 
ATOM     19  C   LIG A   1      -8.834   1.050 125.730  0.00  0.00    +0.010 C 
ATOM     20  C   LIG A   1      -9.268  -0.388 125.482  0.00  0.00    +0.015 C 
ATOM     21  C   LIG A   1      -8.148  -1.241 124.837  0.00  0.00    +0.031 C 
ATOM     22  C   LIG A   1      -8.361  -1.153 123.299  0.00  0.00    +0.020 C 
ATOM     23  O   LIG A   1      -7.309  -3.563 124.604  0.00  0.00    -0.455 OA
ATOM     24  C   LIG A   1      -8.243  -2.723 125.319  0.00  0.00    +0.219 C 
ENDROOT
BRANCH  24  25
ATOM     25  C   LIG A   1      -8.111  -2.953 126.815  0.00  0.00    +0.031 A 
ATOM     26  C   LIG A   1      -8.968  -3.641 127.656  0.00  0.00    +0.202 A 
ATOM     27  O   LIG A   1      -8.525  -3.624 128.936  0.00  0.00    -0.471 OA
ATOM     28  C   LIG A   1      -7.382  -2.899 128.947  0.00  0.00    +0.195 A 
ATOM     29  C   LIG A   1      -7.078  -2.468 127.677  0.00  0.00    +0.048 A 
ENDBRANCH  24  25
BRANCH  12  30
ATOM     30  C   LIG A   1      -8.981   2.371 129.208  0.00  0.00    +0.126 C 
BRANCH  30  31
ATOM     31  C   LIG A   1      -9.507   3.341 130.246  0.00  0.00    +0.307 C 
ATOM     32  O   LIG A   1      -9.491   3.129 131.446  0.00  0.00    -0.251 OA
BRANCH  31  33
ATOM     33  O   LIG A   1     -10.116   4.400 129.636  0.00  0.00    -0.468 OA
ATOM     34  C   LIG A   1     -11.166   4.978 130.415  0.00  0.00    +0.280 C 
ENDBRANCH  31  33
ENDBRANCH  30  31
ENDBRANCH  12  30
TORSDOF 4
ENDMDL
MODEL 2
REMARK VINA RESULT:      -8.1      4.179      8.449
REMARK  Name = NuBBE_1054
REMARK  9 active torsions:
REMARK  status: ('A' for Active; 'I' for Inactive)
REMARK    1  A    between atoms: C_12  and  C_25
REMARK    2  A    between atoms: C_13  and  C_20
REMARK    3  A    between atoms: C_15  and  C_16
REMARK    4  A    between atoms: C_15  and  C_19
REMARK    5  A    between atoms: C_20  and  C_21
REMARK    6  A    between atoms: C_21  and  O_22
REMARK    7  A    between atoms: O_22  and  C_23
REMARK    8  A    between atoms: C_29  and  C_30
REMARK    9  A    between atoms: C_32  and  C_34
REMARK                            x       y       z     vdW  Elec       q    Type
REMARK                         _______ _______ _______ _____ _____    ______ ____
ROOT
ATOM      1  O   LIG A   1      -1.966   8.934 132.557  0.00  0.00    -0.251 OA
ATOM      2  C   LIG A   1      -2.359   7.864 132.097  0.00  0.00    +0.312 C 
ATOM      3  C   LIG A   1      -3.742   7.757 131.453  0.00  0.00    +0.152 C 
ATOM      4  C   LIG A   1      -4.128   6.421 130.833  0.00  0.00    -0.050 C 
ATOM      5  C   LIG A   1      -5.406   5.964 130.761  0.00  0.00    -0.064 C 
ATOM      6  C   LIG A   1      -6.571   6.790 131.288  0.00  0.00    +0.049 C 
ATOM      7  C   LIG A   1      -7.885   6.034 131.390  0.00  0.00    +0.126 C 
ATOM      8  C   LIG A   1      -8.098   5.405 130.068  0.00  0.00    +0.150 C 
ATOM      9  O   LIG A   1      -8.988   5.791 129.316  0.00  0.00    -0.296 OA
ATOM     10  C   LIG A   1      -5.703   4.552 130.238  0.00  0.00    +0.028 C 
ATOM     11  C   LIG A   1      -7.179   4.225 129.782  0.00  0.00    +0.037 C 
ATOM     12  C   LIG A   1      -7.820   3.080 130.671  0.00  0.00    +0.026 C 
ATOM     13  C   LIG A   1      -8.043   3.522 132.207  0.00  0.00    +0.028 C 
ATOM     14  C   LIG A   1      -9.516   3.247 132.588  0.00  0.00    +0.019 C 
ATOM     15  C   LIG A   1      -7.836   5.030 132.508  0.00  0.00    +0.150 C 
ATOM     16  O   LIG A   1      -7.679   5.438 133.663  0.00  0.00    -0.296 OA
ATOM     17  C   LIG A   1      -7.152   2.755 133.217  0.00  0.00    +0.019 C 
ATOM     18  C   LIG A   1      -7.311   3.962 128.266  0.00  0.00    +0.020 C 
ATOM     19  C   LIG A   1      -4.630   4.139 129.213  0.00  0.00    +0.010 C 
ATOM     20  C   LIG A   1      -3.252   4.192 129.857  0.00  0.00    +0.015 C 
ATOM     21  C   LIG A   1      -2.912   5.596 130.413  0.00  0.00    +0.031 C 
ATOM     22  C   LIG A   1      -2.160   6.348 129.278  0.00  0.00    +0.020 C 
ATOM     23  O   LIG A   1      -1.553   6.779 132.117  0.00  0.00    -0.455 OA
ATOM     24  C   LIG A   1      -2.011   5.479 131.683  0.00  0.00    +0.219 C 
ENDROOT
BRANCH  24  25
ATOM     25  C   LIG A   1      -2.599   4.713 132.855  0.00  0.00    +0.031 A 
ATOM     26  C   LIG A   1      -3.008   5.205 134.083  0.00  0.00    +0.202 A 
ATOM     27  O   LIG A   1      -3.472   4.216 134.883  0.00  0.00    -0.471 OA
ATOM     28  C   LIG A   1      -3.346   3.059 134.192  0.00  0.00    +0.195 A 
ATOM     29  C   LIG A   1      -2.823   3.303 132.944  0.00  0.00    +0.048 A 
ENDBRANCH  24  25
BRANCH  12  30
ATOM     30  C   LIG A   1      -7.109   1.696 130.537  0.00  0.00    +0.126 C 
BRANCH  30  31
ATOM     31  C   LIG A   1      -7.975   0.549 130.057  0.00  0.00    +0.307 C 
ATOM     32  O   LIG A   1      -7.972   0.125 128.915  0.00  0.00    -0.251 OA
BRANCH  31  33
ATOM     33  O   LIG A   1      -8.841   0.168 131.043  0.00  0.00    -0.468 OA
ATOM     34  C   LIG A   1      -8.222  -0.601 132.076  0.00  0.00    +0.280 C 
ENDBRANCH  31  33
ENDBRANCH  30  31
ENDBRANCH  12  30
TORSDOF 4
ENDMDL
MODEL 3
REMARK VINA RESULT:      -8.0      2.102      4.729
REMARK  Name = NuBBE_1054
REMARK  9 active torsions:
REMARK  status: ('A' for Active; 'I' for Inactive)
REMARK    1  A    between atoms: C_12  and  C_25
REMARK    2  A    between atoms: C_13  and  C_20
REMARK    3  A    between atoms: C_15  and  C_16
REMARK    4  A    between atoms: C_15  and  C_19
REMARK    5  A    between atoms: C_20  and  C_21
REMARK    6  A    between atoms: C_21  and  O_22
REMARK    7  A    between atoms: O_22  and  C_23
REMARK    8  A    between atoms: C_29  and  C_30
REMARK    9  A    between atoms: C_32  and  C_34
REMARK                            x       y       z     vdW  Elec       q    Type
REMARK                         _______ _______ _______ _____ _____    ______ ____
ROOT
ATOM      1  O   LIG A   1      -9.893  -3.047 125.588  0.00  0.00    -0.251 OA
ATOM      2  C   LIG A   1      -9.001  -2.204 125.675  0.00  0.00    +0.312 C 
ATOM      3  C   LIG A   1      -8.480  -1.764 127.043  0.00  0.00    +0.152 C 
ATOM      4  C   LIG A   1      -7.321  -0.778 127.071  0.00  0.00    -0.050 C 
ATOM      5  C   LIG A   1      -7.124   0.127 128.066  0.00  0.00    -0.064 C 
ATOM      6  C   LIG A   1      -8.061   0.200 129.264  0.00  0.00    +0.049 C 
ATOM      7  C   LIG A   1      -7.874   1.430 130.136  0.00  0.00    +0.126 C 
ATOM      8  C   LIG A   1      -6.430   1.491 130.453  0.00  0.00    +0.150 C 
ATOM      9  O   LIG A   1      -6.018   1.274 131.589  0.00  0.00    -0.296 OA
ATOM     10  C   LIG A   1      -6.007   1.174 127.961  0.00  0.00    +0.028 C 
ATOM     11  C   LIG A   1      -5.550   1.907 129.283  0.00  0.00    +0.037 C 
ATOM     12  C   LIG A   1      -5.818   3.467 129.202  0.00  0.00    +0.026 C 
ATOM     13  C   LIG A   1      -7.388   3.837 129.150  0.00  0.00    +0.028 C 
ATOM     14  C   LIG A   1      -7.687   4.867 130.263  0.00  0.00    +0.019 C 
ATOM     15  C   LIG A   1      -8.363   2.663 129.430  0.00  0.00    +0.150 C 
ATOM     16  O   LIG A   1      -9.559   2.736 129.127  0.00  0.00    -0.296 OA
ATOM     17  C   LIG A   1      -7.841   4.462 127.806  0.00  0.00    +0.019 C 
ATOM     18  C   LIG A   1      -4.108   1.560 129.712  0.00  0.00    +0.020 C 
ATOM     19  C   LIG A   1      -4.840   0.610 127.128  0.00  0.00    +0.010 C 
ATOM     20  C   LIG A   1      -5.335   0.215 125.744  0.00  0.00    +0.015 C 
ATOM     21  C   LIG A   1      -6.475  -0.831 125.799  0.00  0.00    +0.031 C 
ATOM     22  C   LIG A   1      -5.795  -2.227 125.705  0.00  0.00    +0.020 C 
ATOM     23  O   LIG A   1      -8.442  -1.688 124.557  0.00  0.00    -0.455 OA
ATOM     24  C   LIG A   1      -7.467  -0.624 124.612  0.00  0.00    +0.219 C 
ENDROOT
BRANCH  24  25
ATOM     25  C   LIG A   1      -8.163   0.725 124.546  0.00  0.00    +0.031 A 
ATOM     26  C   LIG A   1      -9.473   1.032 124.870  0.00  0.00    +0.202 A 
ATOM     27  O   LIG A   1      -9.738   2.345 124.672  0.00  0.00    -0.471 OA
ATOM     28  C   LIG A   1      -8.604   2.907 124.190  0.00  0.00    +0.195 A 
ATOM     29  C   LIG A   1      -7.606   1.965 124.097  0.00  0.00    +0.048 A 
ENDBRANCH  24  25
BRANCH  12  30
ATOM     30  C   LIG A   1      -4.986   4.201 128.103  0.00  0.00    +0.126 C 
BRANCH  30  31
ATOM     31  C   LIG A   1      -4.090   5.322 128.587  0.00  0.00    +0.307 C 
ATOM     32  O   LIG A   1      -4.483   6.448 128.836  0.00  0.00    -0.251 OA
BRANCH  31  33
ATOM     33  O   LIG A   1      -2.783   4.924 128.566  0.00  0.00    -0.468 OA
ATOM     34  C   LIG A   1      -2.460   4.099 127.445  0.00  0.00    +0.280 C 
ENDBRANCH  31  33
ENDBRANCH  30  31
ENDBRANCH  12  30
TORSDOF 4
ENDMDL
MODEL 4
REMARK VINA RESULT:      -8.0      4.550      8.169
REMARK  Name = NuBBE_1054
REMARK  9 active torsions:
REMARK  status: ('A' for Active; 'I' for Inactive)
REMARK    1  A    between atoms: C_12  and  C_25
REMARK    2  A    between atoms: C_13  and  C_20
REMARK    3  A    between atoms: C_15  and  C_16
REMARK    4  A    between atoms: C_15  and  C_19
REMARK    5  A    between atoms: C_20  and  C_21
REMARK    6  A    between atoms: C_21  and  O_22
REMARK    7  A    between atoms: O_22  and  C_23
REMARK    8  A    between atoms: C_29  and  C_30
REMARK    9  A    between atoms: C_32  and  C_34
REMARK                            x       y       z     vdW  Elec       q    Type
REMARK                         _______ _______ _______ _____ _____    ______ ____
ROOT
ATOM      1  O   LIG A   1      -9.986   7.217 128.538  0.00  0.00    -0.251 OA
ATOM      2  C   LIG A   1      -9.718   6.486 129.490  0.00  0.00    +0.312 C 
ATOM      3  C   LIG A   1      -8.618   6.873 130.479  0.00  0.00    +0.152 C 
ATOM      4  C   LIG A   1      -8.397   5.961 131.677  0.00  0.00    -0.050 C 
ATOM      5  C   LIG A   1      -7.193   5.794 132.287  0.00  0.00    -0.064 C 
ATOM      6  C   LIG A   1      -5.958   6.548 131.814  0.00  0.00    +0.049 C 
ATOM      7  C   LIG A   1      -4.651   6.049 132.407  0.00  0.00    +0.126 C 
ATOM      8  C   LIG A   1      -4.852   6.016 133.872  0.00  0.00    +0.150 C 
ATOM      9  O   LIG A   1      -4.275   6.806 134.613  0.00  0.00    -0.296 OA
ATOM     10  C   LIG A   1      -7.021   4.761 133.408  0.00  0.00    +0.028 C 
ATOM     11  C   LIG A   1      -5.761   4.893 134.352  0.00  0.00    +0.037 C 
ATOM     12  C   LIG A   1      -4.816   3.626 134.236  0.00  0.00    +0.026 C 
ATOM     13  C   LIG A   1      -4.124   3.484 132.785  0.00  0.00    +0.028 C 
ATOM     14  C   LIG A   1      -2.596   3.345 132.982  0.00  0.00    +0.019 C 
ATOM     15  C   LIG A   1      -4.288   4.705 131.842  0.00  0.00    +0.150 C 
ATOM     16  O   LIG A   1      -4.077   4.611 130.628  0.00  0.00    -0.296 OA
ATOM     17  C   LIG A   1      -4.602   2.250 131.979  0.00  0.00    +0.019 C 
ATOM     18  C   LIG A   1      -6.121   5.251 135.810  0.00  0.00    +0.020 C 
ATOM     19  C   LIG A   1      -8.351   4.588 134.167  0.00  0.00    +0.010 C 
ATOM     20  C   LIG A   1      -9.445   4.153 133.202  0.00  0.00    +0.015 C 
ATOM     21  C   LIG A   1      -9.646   5.160 132.043  0.00  0.00    +0.031 C 
ATOM     22  C   LIG A   1     -10.759   6.143 132.504  0.00  0.00    +0.020 C 
ATOM     23  O   LIG A   1     -10.425   5.353 129.697  0.00  0.00    -0.455 OA
ATOM     24  C   LIG A   1     -10.077   4.415 130.740  0.00  0.00    +0.219 C 
ENDROOT
BRANCH  24  25
ATOM     25  C   LIG A   1      -9.105   3.377 130.207  0.00  0.00    +0.031 A 
ATOM     26  C   LIG A   1      -8.257   3.476 129.117  0.00  0.00    +0.202 A 
ATOM     27  O   LIG A   1      -7.544   2.338 128.940  0.00  0.00    -0.471 OA
ATOM     28  C   LIG A   1      -7.941   1.471 129.902  0.00  0.00    +0.195 A 
ATOM     29  C   LIG A   1      -8.890   2.055 130.708  0.00  0.00    +0.048 A 
ENDBRANCH  24  25
BRANCH  12  30
ATOM     30  C   LIG A   1      -5.470   2.296 134.727  0.00  0.00    +0.126 C 
BRANCH  30  31
ATOM     31  C   LIG A   1      -4.661   1.485 135.718  0.00  0.00    +0.307 C 
ATOM     32  O   LIG A   1      -3.859   1.966 136.499  0.00  0.00    -0.251 OA
BRANCH  31  33
ATOM     33  O   LIG A   1      -4.860   0.150 135.509  0.00  0.00    -0.468 OA
ATOM     34  C   LIG A   1      -5.870  -0.128 134.538  0.00  0.00    +0.280 C 
ENDBRANCH  31  33
ENDBRANCH  30  31
ENDBRANCH  12  30
TORSDOF 4
ENDMDL
MODEL 5
REMARK VINA RESULT:      -7.7      2.680      5.088
REMARK  Name = NuBBE_1054
REMARK  9 active torsions:
REMARK  status: ('A' for Active; 'I' for Inactive)
REMARK    1  A    between atoms: C_12  and  C_25
REMARK    2  A    between atoms: C_13  and  C_20
REMARK    3  A    between atoms: C_15  and  C_16
REMARK    4  A    between atoms: C_15  and  C_19
REMARK    5  A    between atoms: C_20  and  C_21
REMARK    6  A    between atoms: C_21  and  O_22
REMARK    7  A    between atoms: O_22  and  C_23
REMARK    8  A    between atoms: C_29  and  C_30
REMARK    9  A    between atoms: C_32  and  C_34
REMARK                            x       y       z     vdW  Elec       q    Type
REMARK                         _______ _______ _______ _____ _____    ______ ____
ROOT
ATOM      1  O   LIG A   1      -2.735  -2.422 133.109  0.00  0.00    -0.251 OA
ATOM      2  C   LIG A   1      -3.565  -2.328 132.206  0.00  0.00    +0.312 C 
ATOM      3  C   LIG A   1      -3.377  -1.306 131.084  0.00  0.00    +0.152 C 
ATOM      4  C   LIG A   1      -4.401  -1.302 129.958  0.00  0.00    -0.050 C 
ATOM      5  C   LIG A   1      -4.742  -0.192 129.252  0.00  0.00    -0.064 C 
ATOM      6  C   LIG A   1      -4.086   1.153 129.532  0.00  0.00    +0.049 C 
ATOM      7  C   LIG A   1      -4.765   2.337 128.862  0.00  0.00    +0.126 C 
ATOM      8  C   LIG A   1      -4.896   1.978 127.433  0.00  0.00    +0.150 C 
ATOM      9  O   LIG A   1      -4.233   2.547 126.570  0.00  0.00    -0.296 OA
ATOM     10  C   LIG A   1      -5.876  -0.239 128.219  0.00  0.00    +0.028 C 
ATOM     11  C   LIG A   1      -5.953   0.920 127.149  0.00  0.00    +0.037 C 
ATOM     12  C   LIG A   1      -7.298   1.747 127.288  0.00  0.00    +0.026 C 
ATOM     13  C   LIG A   1      -7.393   2.573 128.671  0.00  0.00    +0.028 C 
ATOM     14  C   LIG A   1      -7.706   4.051 128.340  0.00  0.00    +0.019 C 
ATOM     15  C   LIG A   1      -6.089   2.628 129.510  0.00  0.00    +0.150 C 
ATOM     16  O   LIG A   1      -6.105   2.956 130.701  0.00  0.00    -0.296 OA
ATOM     17  C   LIG A   1      -8.501   2.067 129.629  0.00  0.00    +0.019 C 
ATOM     18  C   LIG A   1      -5.679   0.445 125.706  0.00  0.00    +0.020 C 
ATOM     19  C   LIG A   1      -5.970  -1.652 127.612  0.00  0.00    +0.010 C 
ATOM     20  C   LIG A   1      -6.208  -2.674 128.715  0.00  0.00    +0.015 C 
ATOM     21  C   LIG A   1      -5.095  -2.654 129.791  0.00  0.00    +0.031 C 
ATOM     22  C   LIG A   1      -4.041  -3.710 129.352  0.00  0.00    +0.020 C 
ATOM     23  O   LIG A   1      -4.631  -3.157 132.174  0.00  0.00    -0.455 OA
ATOM     24  C   LIG A   1      -5.682  -3.013 131.192  0.00  0.00    +0.219 C 
ENDROOT
BRANCH  24  25
ATOM     25  C   LIG A   1      -6.769  -2.094 131.721  0.00  0.00    +0.031 A 
ATOM     26  C   LIG A   1      -6.988  -1.686 133.026  0.00  0.00    +0.202 A 
ATOM     27  O   LIG A   1      -8.066  -0.871 133.115  0.00  0.00    -0.471 OA
ATOM     28  C   LIG A   1      -8.579  -0.758 131.867  0.00  0.00    +0.195 A 
ATOM     29  C   LIG A   1      -7.824  -1.481 130.974  0.00  0.00    +0.048 A 
ENDBRANCH  24  25
BRANCH  12  30
ATOM     30  C   LIG A   1      -8.588   0.921 126.986  0.00  0.00    +0.126 C 
BRANCH  30  31
ATOM     31  C   LIG A   1      -9.243   1.178 125.645  0.00  0.00    +0.307 C 
ATOM     32  O   LIG A   1      -9.349   2.282 125.140  0.00  0.00    -0.251 OA
BRANCH  31  33
ATOM     33  O   LIG A   1      -9.808   0.030 125.167  0.00  0.00    -0.468 OA
ATOM     34  C   LIG A   1      -9.104  -1.152 125.554  0.00  0.00    +0.280 C 
ENDBRANCH  31  33
ENDBRANCH  30  31
ENDBRANCH  12  30
TORSDOF 4
ENDMDL
MODEL 6
REMARK VINA RESULT:      -7.6      2.320      6.423
REMARK  Name = NuBBE_1054
REMARK  9 active torsions:
REMARK  status: ('A' for Active; 'I' for Inactive)
REMARK    1  A    between atoms: C_12  and  C_25
REMARK    2  A    between atoms: C_13  and  C_20
REMARK    3  A    between atoms: C_15  and  C_16
REMARK    4  A    between atoms: C_15  and  C_19
REMARK    5  A    between atoms: C_20  and  C_21
REMARK    6  A    between atoms: C_21  and  O_22
REMARK    7  A    between atoms: O_22  and  C_23
REMARK    8  A    between atoms: C_29  and  C_30
REMARK    9  A    between atoms: C_32  and  C_34
REMARK                            x       y       z     vdW  Elec       q    Type
REMARK                         _______ _______ _______ _____ _____    ______ ____
ROOT
ATOM      1  O   LIG A   1      -7.118  -0.341 133.608  0.00  0.00    -0.251 OA
ATOM      2  C   LIG A   1      -7.260   0.238 132.532  0.00  0.00    +0.312 C 
ATOM      3  C   LIG A   1      -7.899  -0.479 131.343  0.00  0.00    +0.152 C 
ATOM      4  C   LIG A   1      -8.115   0.327 130.069  0.00  0.00    -0.050 C 
ATOM      5  C   LIG A   1      -8.102  -0.214 128.823  0.00  0.00    -0.064 C 
ATOM      6  C   LIG A   1      -7.888  -1.707 128.613  0.00  0.00    +0.049 C 
ATOM      7  C   LIG A   1      -7.621  -2.109 127.172  0.00  0.00    +0.126 C 
ATOM      8  C   LIG A   1      -8.708  -1.504 126.371  0.00  0.00    +0.150 C 
ATOM      9  O   LIG A   1      -9.577  -2.197 125.848  0.00  0.00    -0.296 OA
ATOM     10  C   LIG A   1      -8.199   0.681 127.580  0.00  0.00    +0.028 C 
ATOM     11  C   LIG A   1      -8.598   0.006 126.209  0.00  0.00    +0.037 C 
ATOM     12  C   LIG A   1      -7.439   0.143 125.137  0.00  0.00    +0.026 C 
ATOM     13  C   LIG A   1      -6.111  -0.683 125.532  0.00  0.00    +0.028 C 
ATOM     14  C   LIG A   1      -5.726  -1.593 124.342  0.00  0.00    +0.019 C 
ATOM     15  C   LIG A   1      -6.258  -1.653 126.735  0.00  0.00    +0.150 C 
ATOM     16  O   LIG A   1      -5.268  -2.105 127.319  0.00  0.00    -0.296 OA
ATOM     17  C   LIG A   1      -4.886   0.211 125.848  0.00  0.00    +0.019 C 
ATOM     18  C   LIG A   1      -9.975   0.462 125.677  0.00  0.00    +0.020 C 
ATOM     19  C   LIG A   1      -9.013   1.946 127.911  0.00  0.00    +0.010 C 
ATOM     20  C   LIG A   1      -8.359   2.697 129.061  0.00  0.00    +0.015 C 
ATOM     21  C   LIG A   1      -8.225   1.828 130.336  0.00  0.00    +0.031 C 
ATOM     22  C   LIG A   1      -9.500   2.097 131.186  0.00  0.00    +0.020 C 
ATOM     23  O   LIG A   1      -6.889   1.532 132.404  0.00  0.00    -0.455 OA
ATOM     24  C   LIG A   1      -6.942   2.219 131.134  0.00  0.00    +0.219 C 
ENDROOT
BRANCH  24  25
ATOM     25  C   LIG A   1      -5.621   2.062 130.400  0.00  0.00    +0.031 A 
ATOM     26  C   LIG A   1      -4.787   0.959 130.363  0.00  0.00    +0.202 A 
ATOM     27  O   LIG A   1      -3.686   1.195 129.610  0.00  0.00    -0.471 OA
ATOM     28  C   LIG A   1      -3.779   2.472 129.167  0.00  0.00    +0.195 A 
ATOM     29  C   LIG A   1      -4.944   3.048 129.615  0.00  0.00    +0.048 A 
ENDBRANCH  24  25
BRANCH  12  30
ATOM     30  C   LIG A   1      -7.133   1.615 124.714  0.00  0.00    +0.126 C 
BRANCH  30  31
ATOM     31  C   LIG A   1      -7.564   2.007 123.316  0.00  0.00    +0.307 C 
ATOM     32  O   LIG A   1      -8.726   2.079 122.957  0.00  0.00    -0.251 OA
BRANCH  31  33
ATOM     33  O   LIG A   1      -6.474   2.127 122.502  0.00  0.00    -0.468 OA
ATOM     34  C   LIG A   1      -6.246   3.463 122.051  0.00  0.00    +0.280 C 
ENDBRANCH  31  33
ENDBRANCH  30  31
ENDBRANCH  12  30
TORSDOF 4
ENDMDL
MODEL 7
REMARK VINA RESULT:      -7.6      2.821      6.138
REMARK  Name = NuBBE_1054
REMARK  9 active torsions:
REMARK  status: ('A' for Active; 'I' for Inactive)
REMARK    1  A    between atoms: C_12  and  C_25
REMARK    2  A    between atoms: C_13  and  C_20
REMARK    3  A    between atoms: C_15  and  C_16
REMARK    4  A    between atoms: C_15  and  C_19
REMARK    5  A    between atoms: C_20  and  C_21
REMARK    6  A    between atoms: C_21  and  O_22
REMARK    7  A    between atoms: O_22  and  C_23
REMARK    8  A    between atoms: C_29  and  C_30
REMARK    9  A    between atoms: C_32  and  C_34
REMARK                            x       y       z     vdW  Elec       q    Type
REMARK                         _______ _______ _______ _____ _____    ______ ____
ROOT
ATOM      1  O   LIG A   1      -8.601   4.071 124.710  0.00  0.00    -0.251 OA
ATOM      2  C   LIG A   1      -7.831   3.230 125.170  0.00  0.00    +0.312 C 
ATOM      3  C   LIG A   1      -8.284   2.297 126.295  0.00  0.00    +0.152 C 
ATOM      4  C   LIG A   1      -7.305   1.228 126.759  0.00  0.00    -0.050 C 
ATOM      5  C   LIG A   1      -7.264   0.741 128.026  0.00  0.00    -0.064 C 
ATOM      6  C   LIG A   1      -8.239   1.227 129.090  0.00  0.00    +0.049 C 
ATOM      7  C   LIG A   1      -7.890   0.801 130.506  0.00  0.00    +0.126 C 
ATOM      8  C   LIG A   1      -7.685  -0.663 130.454  0.00  0.00    +0.150 C 
ATOM      9  O   LIG A   1      -8.479  -1.437 130.982  0.00  0.00    -0.296 OA
ATOM     10  C   LIG A   1      -6.166  -0.243 128.452  0.00  0.00    +0.028 C 
ATOM     11  C   LIG A   1      -6.396  -1.089 129.766  0.00  0.00    +0.037 C 
ATOM     12  C   LIG A   1      -5.305  -0.758 130.866  0.00  0.00    +0.026 C 
ATOM     13  C   LIG A   1      -5.410   0.751 131.428  0.00  0.00    +0.028 C 
ATOM     14  C   LIG A   1      -5.487   0.695 132.971  0.00  0.00    +0.019 C 
ATOM     15  C   LIG A   1      -6.677   1.538 131.001  0.00  0.00    +0.150 C 
ATOM     16  O   LIG A   1      -6.734   2.767 131.105  0.00  0.00    -0.296 OA
ATOM     17  C   LIG A   1      -4.202   1.645 131.055  0.00  0.00    +0.019 C 
ATOM     18  C   LIG A   1      -6.553  -2.602 129.502  0.00  0.00    +0.020 C 
ATOM     19  C   LIG A   1      -5.720  -1.083 127.241  0.00  0.00    +0.010 C 
ATOM     20  C   LIG A   1      -5.219  -0.169 126.132  0.00  0.00    +0.015 C 
ATOM     21  C   LIG A   1      -6.291   0.853 125.678  0.00  0.00    +0.031 C 
ATOM     22  C   LIG A   1      -7.045   0.197 124.485  0.00  0.00    +0.020 C 
ATOM     23  O   LIG A   1      -6.589   3.092 124.656  0.00  0.00    -0.455 OA
ATOM     24  C   LIG A   1      -5.619   2.190 125.233  0.00  0.00    +0.219 C 
ENDROOT
BRANCH  24  25
ATOM     25  C   LIG A   1      -4.797   2.911 126.287  0.00  0.00    +0.031 A 
ATOM     26  C   LIG A   1      -5.207   3.895 127.170  0.00  0.00    +0.202 A 
ATOM     27  O   LIG A   1      -4.187   4.311 127.958  0.00  0.00    -0.471 OA
ATOM     28  C   LIG A   1      -3.088   3.617 127.577  0.00  0.00    +0.195 A 
ATOM     29  C   LIG A   1      -3.403   2.743 126.563  0.00  0.00    +0.048 A 
ENDBRANCH  24  25
BRANCH  12  30
ATOM     30  C   LIG A   1      -3.850  -1.152 130.460  0.00  0.00    +0.126 C 
BRANCH  30  31
ATOM     31  C   LIG A   1      -3.146  -2.130 131.378  0.00  0.00    +0.307 C 
ATOM     32  O   LIG A   1      -2.561  -1.808 132.396  0.00  0.00    -0.251 OA
BRANCH  31  33
ATOM     33  O   LIG A   1      -3.147  -3.380 130.826  0.00  0.00    -0.468 OA
ATOM     34  C   LIG A   1      -3.071  -3.370 129.399  0.00  0.00    +0.280 C 
ENDBRANCH  31  33
ENDBRANCH  30  31
ENDBRANCH  12  30
TORSDOF 4
ENDMDL
MODEL 8
REMARK VINA RESULT:      -7.5      3.767      6.544
REMARK  Name = NuBBE_1054
REMARK  9 active torsions:
REMARK  status: ('A' for Active; 'I' for Inactive)
REMARK    1  A    between atoms: C_12  and  C_25
REMARK    2  A    between atoms: C_13  and  C_20
REMARK    3  A    between atoms: C_15  and  C_16
REMARK    4  A    between atoms: C_15  and  C_19
REMARK    5  A    between atoms: C_20  and  C_21
REMARK    6  A    between atoms: C_21  and  O_22
REMARK    7  A    between atoms: O_22  and  C_23
REMARK    8  A    between atoms: C_29  and  C_30
REMARK    9  A    between atoms: C_32  and  C_34
REMARK                            x       y       z     vdW  Elec       q    Type
REMARK                         _______ _______ _______ _____ _____    ______ ____
ROOT
ATOM      1  O   LIG A   1      -5.814   5.006 124.002  0.00  0.00    -0.251 OA
ATOM      2  C   LIG A   1      -5.627   4.429 125.073  0.00  0.00    +0.312 C 
ATOM      3  C   LIG A   1      -6.796   4.158 126.021  0.00  0.00    +0.152 C 
ATOM      4  C   LIG A   1      -6.503   3.370 127.290  0.00  0.00    -0.050 C 
ATOM      5  C   LIG A   1      -7.190   3.527 128.452  0.00  0.00    -0.064 C 
ATOM      6  C   LIG A   1      -8.345   4.513 128.558  0.00  0.00    +0.049 C 
ATOM      7  C   LIG A   1      -8.822   4.775 129.977  0.00  0.00    +0.126 C 
ATOM      8  C   LIG A   1      -9.064   3.445 130.579  0.00  0.00    +0.150 C 
ATOM      9  O   LIG A   1     -10.201   3.058 130.833  0.00  0.00    -0.296 OA
ATOM     10  C   LIG A   1      -6.754   2.789 129.725  0.00  0.00    +0.028 C 
ATOM     11  C   LIG A   1      -7.796   2.668 130.906  0.00  0.00    +0.037 C 
ATOM     12  C   LIG A   1      -7.280   3.404 132.211  0.00  0.00    +0.026 C 
ATOM     13  C   LIG A   1      -7.173   5.004 132.033  0.00  0.00    +0.028 C 
ATOM     14  C   LIG A   1      -7.953   5.679 133.185  0.00  0.00    +0.019 C 
ATOM     15  C   LIG A   1      -7.808   5.580 130.740  0.00  0.00    +0.150 C 
ATOM     16  O   LIG A   1      -7.535   6.717 130.342  0.00  0.00    -0.296 OA
ATOM     17  C   LIG A   1      -5.721   5.544 132.077  0.00  0.00    +0.019 C 
ATOM     18  C   LIG A   1      -8.261   1.219 131.169  0.00  0.00    +0.020 C 
ATOM     19  C   LIG A   1      -6.082   1.454 129.349  0.00  0.00    +0.010 C 
ATOM     20  C   LIG A   1      -4.886   1.714 128.445  0.00  0.00    +0.015 C 
ATOM     21  C   LIG A   1      -5.274   2.471 127.151  0.00  0.00    +0.031 C 
ATOM     22  C   LIG A   1      -5.563   1.384 126.076  0.00  0.00    +0.020 C 
ATOM     23  O   LIG A   1      -4.392   3.990 125.402  0.00  0.00    -0.455 OA
ATOM     24  C   LIG A   1      -4.109   3.402 126.691  0.00  0.00    +0.219 C 
ENDROOT
BRANCH  24  25
ATOM     25  C   LIG A   1      -3.681   4.478 127.674  0.00  0.00    +0.031 A 
ATOM     26  C   LIG A   1      -3.837   5.849 127.566  0.00  0.00    +0.202 A 
ATOM     27  O   LIG A   1      -3.317   6.493 128.639  0.00  0.00    -0.471 OA
ATOM     28  C   LIG A   1      -2.791   5.544 129.450  0.00  0.00    +0.195 A 
ATOM     29  C   LIG A   1      -2.989   4.294 128.912  0.00  0.00    +0.048 A 
ENDBRANCH  24  25
BRANCH  12  30
ATOM     30  C   LIG A   1      -5.992   2.776 132.829  0.00  0.00    +0.126 C 
BRANCH  30  31
ATOM     31  C   LIG A   1      -6.138   2.197 134.222  0.00  0.00    +0.307 C 
ATOM     32  O   LIG A   1      -6.455   1.043 134.450  0.00  0.00    -0.251 OA
BRANCH  31  33
ATOM     33  O   LIG A   1      -6.002   3.182 135.159  0.00  0.00    -0.468 OA
ATOM     34  C   LIG A   1      -4.690   3.747 135.200  0.00  0.00    +0.280 C 
ENDBRANCH  31  33
ENDBRANCH  30  31
ENDBRANCH  12  30
TORSDOF 4
ENDMDL
MODEL 9
REMARK VINA RESULT:      -7.5      4.289      5.867
REMARK  Name = NuBBE_1054
REMARK  9 active torsions:
REMARK  status: ('A' for Active; 'I' for Inactive)
REMARK    1  A    between atoms: C_12  and  C_25
REMARK    2  A    between atoms: C_13  and  C_20
REMARK    3  A    between atoms: C_15  and  C_16
REMARK    4  A    between atoms: C_15  and  C_19
REMARK    5  A    between atoms: C_20  and  C_21
REMARK    6  A    between atoms: C_21  and  O_22
REMARK    7  A    between atoms: O_22  and  C_23
REMARK    8  A    between atoms: C_29  and  C_30
REMARK    9  A    between atoms: C_32  and  C_34
REMARK                            x       y       z     vdW  Elec       q    Type
REMARK                         _______ _______ _______ _____ _____    ______ ____
ROOT
ATOM      1  O   LIG A   1      -3.003  -2.097 131.335  0.00  0.00    -0.251 OA
ATOM      2  C   LIG A   1      -3.919  -1.283 131.441  0.00  0.00    +0.312 C 
ATOM      3  C   LIG A   1      -4.094  -0.171 130.406  0.00  0.00    +0.152 C 
ATOM      4  C   LIG A   1      -5.296   0.749 130.558  0.00  0.00    -0.050 C 
ATOM      5  C   LIG A   1      -5.310   2.047 130.155  0.00  0.00    -0.064 C 
ATOM      6  C   LIG A   1      -4.097   2.676 129.483  0.00  0.00    +0.049 C 
ATOM      7  C   LIG A   1      -4.166   4.189 129.349  0.00  0.00    +0.126 C 
ATOM      8  C   LIG A   1      -5.470   4.483 128.713  0.00  0.00    +0.150 C 
ATOM      9  O   LIG A   1      -5.536   4.907 127.563  0.00  0.00    -0.296 OA
ATOM     10  C   LIG A   1      -6.514   2.948 130.458  0.00  0.00    +0.028 C 
ATOM     11  C   LIG A   1      -6.670   4.283 129.628  0.00  0.00    +0.037 C 
ATOM     12  C   LIG A   1      -6.593   5.559 130.564  0.00  0.00    +0.026 C 
ATOM     13  C   LIG A   1      -5.141   5.762 131.239  0.00  0.00    +0.028 C 
ATOM     14  C   LIG A   1      -4.660   7.201 130.943  0.00  0.00    +0.019 C 
ATOM     15  C   LIG A   1      -4.013   4.851 130.689  0.00  0.00    +0.150 C 
ATOM     16  O   LIG A   1      -2.957   4.691 131.309  0.00  0.00    -0.296 OA
ATOM     17  C   LIG A   1      -5.133   5.577 132.777  0.00  0.00    +0.019 C 
ATOM     18  C   LIG A   1      -7.900   4.286 128.695  0.00  0.00    +0.020 C 
ATOM     19  C   LIG A   1      -7.799   2.100 130.518  0.00  0.00    +0.010 C 
ATOM     20  C   LIG A   1      -7.657   1.020 131.582  0.00  0.00    +0.015 C 
ATOM     21  C   LIG A   1      -6.444   0.092 131.326  0.00  0.00    +0.031 C 
ATOM     22  C   LIG A   1      -6.979  -1.112 130.499  0.00  0.00    +0.020 C 
ATOM     23  O   LIG A   1      -4.807  -1.389 132.454  0.00  0.00    -0.455 OA
ATOM     24  C   LIG A   1      -5.835  -0.398 132.677  0.00  0.00    +0.219 C 
ENDROOT
BRANCH  24  25
ATOM     25  C   LIG A   1      -5.323   0.683 133.614  0.00  0.00    +0.031 A 
ATOM     26  C   LIG A   1      -4.050   0.834 134.136  0.00  0.00    +0.202 A 
ATOM     27  O   LIG A   1      -3.973   1.916 134.947  0.00  0.00    -0.471 OA
ATOM     28  C   LIG A   1      -5.208   2.469 134.985  0.00  0.00    +0.195 A 
ATOM     29  C   LIG A   1      -6.073   1.760 134.184  0.00  0.00    +0.048 A 
ENDBRANCH  24  25
BRANCH  12  30
ATOM     30  C   LIG A   1      -7.760   5.664 131.596  0.00  0.00    +0.126 C 
BRANCH  30  31
ATOM     31  C   LIG A   1      -8.885   6.611 131.232  0.00  0.00    +0.307 C 
ATOM     32  O   LIG A   1      -8.836   7.404 130.309  0.00  0.00    -0.251 OA
BRANCH  31  33
ATOM     33  O   LIG A   1      -9.881   6.541 132.164  0.00  0.00    -0.468 OA
ATOM     34  C   LIG A   1     -11.189   6.473 131.593  0.00  0.00    +0.280 C 
ENDBRANCH  31  33
ENDBRANCH  30  31
ENDBRANCH  12  30
TORSDOF 4
ENDMDL
