MODEL 1
REMARK VINA RESULT:      -5.1      0.000      0.000
REMARK  Name = NuBBE_2132
REMARK  5 active torsions:
REMARK  status: ('A' for Active; 'I' for Inactive)
REMARK    1  A    between atoms: C_1  and  C_2
REMARK    2  A    between atoms: C_2  and  C_3
REMARK    3  A    between atoms: C_3  and  C_4
REMARK    4  A    between atoms: C_4  and  C_5
REMARK    5  A    between atoms: C_5  and  C_6
REMARK                            x       y       z     vdW  Elec       q    Type
REMARK                         _______ _______ _______ _____ _____    ______ ____
ROOT
ATOM      1  C   LIG A   1     -12.589   8.698 130.032  0.00  0.00    +0.003 C 
ENDROOT
BRANCH   1   2
ATOM      2  C   LIG A   1     -12.374   8.762 128.520  0.00  0.00    -0.011 C 
ATOM      3  C   LIG A   1     -10.939   8.467 128.078  0.00  0.00    +0.003 C 
ATOM      4  C   LIG A   1     -11.103   7.871 126.689  0.00  0.00    +0.000 C 
ATOM      5  C   LIG A   1     -12.311   6.965 126.853  0.00  0.00    +0.000 C 
ATOM      6  C   LIG A   1     -13.250   7.742 127.769  0.00  0.00    +0.003 C 
ENDBRANCH   1   2
BRANCH   1   7
ATOM      7  C   LIG A   1     -12.937   7.295 130.534  0.00  0.00    +0.000 C 
BRANCH   7   8
ATOM      8  C   LIG A   1     -11.884   6.729 131.496  0.00  0.00    -0.000 C 
BRANCH   8  10
ATOM      9  C   LIG A   1      -9.393   6.753 130.942  0.00  0.00    +0.004 C 
ATOM     10  C   LIG A   1     -10.711   6.003 130.829  0.00  0.00    -0.003 C 
ENDBRANCH   8  10
ENDBRANCH   7   8
ENDBRANCH   1   7
TORSDOF 4
ENDMDL
MODEL 2
REMARK VINA RESULT:      -4.8     11.286     12.585
REMARK  Name = NuBBE_2132
REMARK  5 active torsions:
REMARK  status: ('A' for Active; 'I' for Inactive)
REMARK    1  A    between atoms: C_1  and  C_2
REMARK    2  A    between atoms: C_2  and  C_3
REMARK    3  A    between atoms: C_3  and  C_4
REMARK    4  A    between atoms: C_4  and  C_5
REMARK    5  A    between atoms: C_5  and  C_6
REMARK                            x       y       z     vdW  Elec       q    Type
REMARK                         _______ _______ _______ _____ _____    ______ ____
ROOT
ATOM      1  C   LIG A   1      -8.027  -2.169 122.567  0.00  0.00    +0.003 C 
ENDROOT
BRANCH   1   2
ATOM      2  C   LIG A   1      -9.005  -2.270 123.738  0.00  0.00    -0.011 C 
ATOM      3  C   LIG A   1      -8.858  -3.546 124.570  0.00  0.00    +0.003 C 
ATOM      4  C   LIG A   1      -9.310  -3.126 125.959  0.00  0.00    +0.000 C 
ATOM      5  C   LIG A   1      -8.690  -1.749 126.113  0.00  0.00    +0.000 C 
ATOM      6  C   LIG A   1      -8.831  -1.110 124.735  0.00  0.00    +0.003 C 
ENDBRANCH   1   2
BRANCH   1   7
ATOM      7  C   LIG A   1      -6.682  -1.549 122.954  0.00  0.00    +0.000 C 
BRANCH   7   8
ATOM      8  C   LIG A   1      -5.506  -2.518 122.777  0.00  0.00    -0.000 C 
BRANCH   8  10
ATOM      9  C   LIG A   1      -4.408  -4.654 123.641  0.00  0.00    +0.004 C 
ATOM     10  C   LIG A   1      -5.194  -3.399 123.990  0.00  0.00    -0.003 C 
ENDBRANCH   8  10
ENDBRANCH   7   8
ENDBRANCH   1   7
TORSDOF 4
ENDMDL
MODEL 3
REMARK VINA RESULT:      -4.7     11.132     12.571
REMARK  Name = NuBBE_2132
REMARK  5 active torsions:
REMARK  status: ('A' for Active; 'I' for Inactive)
REMARK    1  A    between atoms: C_1  and  C_2
REMARK    2  A    between atoms: C_2  and  C_3
REMARK    3  A    between atoms: C_3  and  C_4
REMARK    4  A    between atoms: C_4  and  C_5
REMARK    5  A    between atoms: C_5  and  C_6
REMARK                            x       y       z     vdW  Elec       q    Type
REMARK                         _______ _______ _______ _____ _____    ______ ____
ROOT
ATOM      1  C   LIG A   1      -8.908  -2.937 124.924  0.00  0.00    +0.003 C 
ENDROOT
BRANCH   1   2
ATOM      2  C   LIG A   1      -9.051  -2.649 126.419  0.00  0.00    -0.011 C 
ATOM      3  C   LIG A   1      -8.975  -3.894 127.306  0.00  0.00    +0.003 C 
ATOM      4  C   LIG A   1      -8.407  -3.371 128.616  0.00  0.00    +0.000 C 
ATOM      5  C   LIG A   1      -7.336  -2.399 128.153  0.00  0.00    +0.000 C 
ATOM      6  C   LIG A   1      -7.942  -1.712 126.934  0.00  0.00    +0.003 C 
ENDBRANCH   1   2
BRANCH   1   7
ATOM      7  C   LIG A   1      -7.728  -3.853 124.595  0.00  0.00    +0.000 C 
BRANCH   7   8
ATOM      8  C   LIG A   1      -6.621  -3.139 123.808  0.00  0.00    -0.000 C 
BRANCH   8  10
ATOM      9  C   LIG A   1      -4.392  -4.366 123.606  0.00  0.00    +0.004 C 
ATOM     10  C   LIG A   1      -5.203  -3.322 124.358  0.00  0.00    -0.003 C 
ENDBRANCH   8  10
ENDBRANCH   7   8
ENDBRANCH   1   7
TORSDOF 4
ENDMDL
MODEL 4
REMARK VINA RESULT:      -4.7      0.882      2.129
REMARK  Name = NuBBE_2132
REMARK  5 active torsions:
REMARK  status: ('A' for Active; 'I' for Inactive)
REMARK    1  A    between atoms: C_1  and  C_2
REMARK    2  A    between atoms: C_2  and  C_3
REMARK    3  A    between atoms: C_3  and  C_4
REMARK    4  A    between atoms: C_4  and  C_5
REMARK    5  A    between atoms: C_5  and  C_6
REMARK                            x       y       z     vdW  Elec       q    Type
REMARK                         _______ _______ _______ _____ _____    ______ ____
ROOT
ATOM      1  C   LIG A   1     -10.131   8.290 128.889  0.00  0.00    +0.003 C 
ENDROOT
BRANCH   1   2
ATOM      2  C   LIG A   1     -11.120   8.372 127.726  0.00  0.00    -0.011 C 
ATOM      3  C   LIG A   1     -11.107   7.149 126.805  0.00  0.00    +0.003 C 
ATOM      4  C   LIG A   1     -12.527   7.088 126.266  0.00  0.00    +0.000 C 
ATOM      5  C   LIG A   1     -13.366   7.417 127.488  0.00  0.00    +0.000 C 
ATOM      6  C   LIG A   1     -12.575   8.500 128.214  0.00  0.00    +0.003 C 
ENDBRANCH   1   2
BRANCH   1   7
ATOM      7  C   LIG A   1      -9.981   6.877 129.457  0.00  0.00    +0.000 C 
BRANCH   7   8
ATOM      8  C   LIG A   1     -10.369   6.785 130.938  0.00  0.00    -0.000 C 
BRANCH   8  10
ATOM      9  C   LIG A   1     -12.789   7.385 131.488  0.00  0.00    +0.004 C 
ATOM     10  C   LIG A   1     -11.787   6.274 131.213  0.00  0.00    -0.003 C 
ENDBRANCH   8  10
ENDBRANCH   7   8
ENDBRANCH   1   7
TORSDOF 4
ENDMDL
MODEL 5
REMARK VINA RESULT:      -4.7     11.034     12.291
REMARK  Name = NuBBE_2132
REMARK  5 active torsions:
REMARK  status: ('A' for Active; 'I' for Inactive)
REMARK    1  A    between atoms: C_1  and  C_2
REMARK    2  A    between atoms: C_2  and  C_3
REMARK    3  A    between atoms: C_3  and  C_4
REMARK    4  A    between atoms: C_4  and  C_5
REMARK    5  A    between atoms: C_5  and  C_6
REMARK                            x       y       z     vdW  Elec       q    Type
REMARK                         _______ _______ _______ _____ _____    ______ ____
ROOT
ATOM      1  C   LIG A   1      -7.597  -1.983 122.245  0.00  0.00    +0.003 C 
ENDROOT
BRANCH   1   2
ATOM      2  C   LIG A   1      -6.358  -1.598 123.053  0.00  0.00    -0.011 C 
ATOM      3  C   LIG A   1      -6.659  -0.767 124.303  0.00  0.00    +0.003 C 
ATOM      4  C   LIG A   1      -5.534  -1.131 125.259  0.00  0.00    +0.000 C 
ATOM      5  C   LIG A   1      -5.393  -2.629 125.058  0.00  0.00    +0.000 C 
ATOM      6  C   LIG A   1      -5.593  -2.835 123.560  0.00  0.00    +0.003 C 
ENDBRANCH   1   2
BRANCH   1   7
ATOM      7  C   LIG A   1      -8.900  -1.858 123.038  0.00  0.00    +0.000 C 
BRANCH   7   8
ATOM      8  C   LIG A   1      -9.455  -3.215 123.489  0.00  0.00    -0.000 C 
BRANCH   8  10
ATOM      9  C   LIG A   1      -9.255  -2.795 125.999  0.00  0.00    +0.004 C 
ATOM     10  C   LIG A   1      -8.932  -3.722 124.836  0.00  0.00    -0.003 C 
ENDBRANCH   8  10
ENDBRANCH   7   8
ENDBRANCH   1   7
TORSDOF 4
ENDMDL
MODEL 6
REMARK VINA RESULT:      -4.6      1.189      2.257
REMARK  Name = NuBBE_2132
REMARK  5 active torsions:
REMARK  status: ('A' for Active; 'I' for Inactive)
REMARK    1  A    between atoms: C_1  and  C_2
REMARK    2  A    between atoms: C_2  and  C_3
REMARK    3  A    between atoms: C_3  and  C_4
REMARK    4  A    between atoms: C_4  and  C_5
REMARK    5  A    between atoms: C_5  and  C_6
REMARK                            x       y       z     vdW  Elec       q    Type
REMARK                         _______ _______ _______ _____ _____    ______ ____
ROOT
ATOM      1  C   LIG A   1     -11.935   6.587 131.073  0.00  0.00    +0.003 C 
ENDROOT
BRANCH   1   2
ATOM      2  C   LIG A   1     -12.962   7.325 130.213  0.00  0.00    -0.011 C 
ATOM      3  C   LIG A   1     -12.581   8.770 129.883  0.00  0.00    +0.003 C 
ATOM      4  C   LIG A   1     -13.249   9.023 128.541  0.00  0.00    +0.000 C 
ATOM      5  C   LIG A   1     -13.006   7.723 127.794  0.00  0.00    +0.000 C 
ATOM      6  C   LIG A   1     -13.173   6.637 128.852  0.00  0.00    +0.003 C 
ENDBRANCH   1   2
BRANCH   1   7
ATOM      7  C   LIG A   1     -11.238   5.443 130.334  0.00  0.00    +0.000 C 
BRANCH   7   8
ATOM      8  C   LIG A   1      -9.850   5.833 129.807  0.00  0.00    -0.000 C 
BRANCH   8  10
ATOM      9  C   LIG A   1      -7.889   6.771 131.145  0.00  0.00    +0.004 C 
ATOM     10  C   LIG A   1      -9.220   7.063 130.468  0.00  0.00    -0.003 C 
ENDBRANCH   8  10
ENDBRANCH   7   8
ENDBRANCH   1   7
TORSDOF 4
ENDMDL
MODEL 7
REMARK VINA RESULT:      -4.6     10.703     12.246
REMARK  Name = NuBBE_2132
REMARK  5 active torsions:
REMARK  status: ('A' for Active; 'I' for Inactive)
REMARK    1  A    between atoms: C_1  and  C_2
REMARK    2  A    between atoms: C_2  and  C_3
REMARK    3  A    between atoms: C_3  and  C_4
REMARK    4  A    between atoms: C_4  and  C_5
REMARK    5  A    between atoms: C_5  and  C_6
REMARK                            x       y       z     vdW  Elec       q    Type
REMARK                         _______ _______ _______ _____ _____    ______ ____
ROOT
ATOM      1  C   LIG A   1      -9.489  -2.872 125.830  0.00  0.00    +0.003 C 
ENDROOT
BRANCH   1   2
ATOM      2  C   LIG A   1      -8.383  -3.182 126.839  0.00  0.00    -0.011 C 
ATOM      3  C   LIG A   1      -7.739  -1.942 127.463  0.00  0.00    +0.003 C 
ATOM      4  C   LIG A   1      -7.293  -2.418 128.836  0.00  0.00    +0.000 C 
ATOM      5  C   LIG A   1      -8.458  -3.281 129.288  0.00  0.00    +0.000 C 
ATOM      6  C   LIG A   1      -8.903  -4.014 128.026  0.00  0.00    +0.003 C 
ENDBRANCH   1   2
BRANCH   1   7
ATOM      7  C   LIG A   1      -9.066  -3.105 124.378  0.00  0.00    +0.000 C 
BRANCH   7   8
ATOM      8  C   LIG A   1      -7.652  -3.687 124.256  0.00  0.00    -0.000 C 
BRANCH   8  10
ATOM      9  C   LIG A   1      -5.168  -3.200 123.926  0.00  0.00    +0.004 C 
ATOM     10  C   LIG A   1      -6.596  -2.731 123.692  0.00  0.00    -0.003 C 
ENDBRANCH   8  10
ENDBRANCH   7   8
ENDBRANCH   1   7
TORSDOF 4
ENDMDL
MODEL 8
REMARK VINA RESULT:      -4.5      0.996      3.752
REMARK  Name = NuBBE_2132
REMARK  5 active torsions:
REMARK  status: ('A' for Active; 'I' for Inactive)
REMARK    1  A    between atoms: C_1  and  C_2
REMARK    2  A    between atoms: C_2  and  C_3
REMARK    3  A    between atoms: C_3  and  C_4
REMARK    4  A    between atoms: C_4  and  C_5
REMARK    5  A    between atoms: C_5  and  C_6
REMARK                            x       y       z     vdW  Elec       q    Type
REMARK                         _______ _______ _______ _____ _____    ______ ____
ROOT
ATOM      1  C   LIG A   1     -12.625   7.635 130.581  0.00  0.00    +0.003 C 
ENDROOT
BRANCH   1   2
ATOM      2  C   LIG A   1     -11.408   6.761 130.883  0.00  0.00    -0.011 C 
ATOM      3  C   LIG A   1     -11.565   5.300 130.456  0.00  0.00    +0.003 C 
ATOM      4  C   LIG A   1     -10.143   4.857 130.152  0.00  0.00    +0.000 C 
ATOM      5  C   LIG A   1      -9.565   6.059 129.426  0.00  0.00    +0.000 C 
ATOM      6  C   LIG A   1     -10.144   7.264 130.159  0.00  0.00    +0.003 C 
ENDBRANCH   1   2
BRANCH   1   7
ATOM      7  C   LIG A   1     -12.472   8.466 129.305  0.00  0.00    +0.000 C 
BRANCH   7   8
ATOM      8  C   LIG A   1     -13.410   8.008 128.180  0.00  0.00    -0.000 C 
BRANCH   8  10
ATOM      9  C   LIG A   1     -11.424   7.527 126.650  0.00  0.00    +0.004 C 
ATOM     10  C   LIG A   1     -12.784   7.063 127.149  0.00  0.00    -0.003 C 
ENDBRANCH   8  10
ENDBRANCH   7   8
ENDBRANCH   1   7
TORSDOF 4
ENDMDL
MODEL 9
REMARK VINA RESULT:      -4.4     10.958     11.812
REMARK  Name = NuBBE_2132
REMARK  5 active torsions:
REMARK  status: ('A' for Active; 'I' for Inactive)
REMARK    1  A    between atoms: C_1  and  C_2
REMARK    2  A    between atoms: C_2  and  C_3
REMARK    3  A    between atoms: C_3  and  C_4
REMARK    4  A    between atoms: C_4  and  C_5
REMARK    5  A    between atoms: C_5  and  C_6
REMARK                            x       y       z     vdW  Elec       q    Type
REMARK                         _______ _______ _______ _____ _____    ______ ____
ROOT
ATOM      1  C   LIG A   1      -9.030  -3.554 124.478  0.00  0.00    +0.003 C 
ENDROOT
BRANCH   1   2
ATOM      2  C   LIG A   1      -7.845  -2.848 123.818  0.00  0.00    -0.011 C 
ATOM      3  C   LIG A   1      -7.718  -1.366 124.177  0.00  0.00    +0.003 C 
ATOM      4  C   LIG A   1      -6.226  -1.095 124.075  0.00  0.00    +0.000 C 
ATOM      5  C   LIG A   1      -5.615  -2.337 124.700  0.00  0.00    +0.000 C 
ATOM      6  C   LIG A   1      -6.500  -3.482 124.219  0.00  0.00    +0.003 C 
ENDBRANCH   1   2
BRANCH   1   7
ATOM      7  C   LIG A   1      -9.491  -2.878 125.772  0.00  0.00    +0.000 C 
BRANCH   7   8
ATOM      8  C   LIG A   1      -9.005  -3.608 127.031  0.00  0.00    -0.000 C 
BRANCH   8  10
ATOM      9  C   LIG A   1      -8.042  -3.213 129.361  0.00  0.00    +0.004 C 
ATOM     10  C   LIG A   1      -7.999  -2.834 127.888  0.00  0.00    -0.003 C 
ENDBRANCH   8  10
ENDBRANCH   7   8
ENDBRANCH   1   7
TORSDOF 4
ENDMDL
