MODEL 1
REMARK VINA RESULT:      -8.2      0.000      0.000
REMARK  Name = NuBBE_2175
REMARK  11 active torsions:
REMARK  status: ('A' for Active; 'I' for Inactive)
REMARK    1  A    between atoms: C_6  and  O_7
REMARK    2  A    between atoms: O_7  and  C_8
REMARK    3  A    between atoms: C_8  and  C_9
REMARK    4  A    between atoms: C_10  and  C_11
REMARK    5  A    between atoms: C_10  and  C_12
REMARK    6  A    between atoms: C_17  and  C_18
REMARK    7  A    between atoms: C_20  and  O_21
REMARK    8  A    between atoms: O_21  and  C_22
REMARK    9  A    between atoms: C_22  and  C_23
REMARK   10  A    between atoms: C_25  and  O_26
REMARK   11  A    between atoms: O_26  and  C_27
REMARK                            x       y       z     vdW  Elec       q    Type
REMARK                         _______ _______ _______ _____ _____    ______ ____
ROOT
ATOM      1  O   LIG A   1     -11.014   3.387 130.003  0.00  0.00    -0.286 OA
ATOM      2  C   LIG A   1     -10.272   3.716 130.922  0.00  0.00    +0.200 A 
ATOM      3  C   LIG A   1      -9.393   2.717 131.546  0.00  0.00    +0.065 A 
ATOM      4  C   LIG A   1      -9.367   1.396 131.087  0.00  0.00    +0.019 A 
ATOM      5  C   LIG A   1      -8.523   0.472 131.708  0.00  0.00    +0.046 A 
ATOM      6  C   LIG A   1      -7.721   0.865 132.785  0.00  0.00    +0.124 A 
ATOM      7  C   LIG A   1      -7.712   2.199 133.190  0.00  0.00    +0.092 A 
ATOM      8  C   LIG A   1      -8.569   3.111 132.591  0.00  0.00    +0.142 A 
ATOM      9  O   LIG A   1      -8.553   4.380 133.097  0.00  0.00    -0.462 OA
ATOM     10  C   LIG A   1      -9.364   5.307 132.500  0.00  0.00    +0.208 A 
ATOM     11  C   LIG A   1     -10.191   5.109 131.458  0.00  0.00    +0.064 A 
ENDROOT
BRANCH  11  12
ATOM     12  C   LIG A   1     -10.973   6.229 130.897  0.00  0.00    -0.008 A 
ATOM     13  C   LIG A   1     -10.726   6.693 129.598  0.00  0.00    +0.059 A 
ATOM     14  C   LIG A   1     -11.421   7.789 129.088  0.00  0.00    +0.174 A 
ATOM     15  C   LIG A   1     -12.470   8.376 129.810  0.00  0.00    +0.162 A 
ATOM     16  C   LIG A   1     -12.749   7.888 131.087  0.00  0.00    +0.050 A 
ATOM     17  C   LIG A   1     -11.990   6.848 131.632  0.00  0.00    +0.012 A 
BRANCH  15  18
ATOM     18  O   LIG A   1     -13.145   9.399 129.201  0.00  0.00    -0.491 OA
ATOM     19  C   LIG A   1     -13.309  10.591 129.962  0.00  0.00    +0.277 C 
ENDBRANCH  15  18
BRANCH  14  20
ATOM     20  O   LIG A   1     -11.123   8.329 127.815  0.00  0.00    -0.422 OA
BRANCH  20  21
ATOM     21  C   LIG A   1     -11.153   7.515 126.675  0.00  0.00    +0.309 C 
ATOM     22  C   LIG A   1     -12.577   7.099 126.438  0.00  0.00    +0.136 C 
ATOM     23  O   LIG A   1     -10.217   7.188 125.970  0.00  0.00    -0.251 OA
ENDBRANCH  20  21
ENDBRANCH  14  20
ENDBRANCH  11  12
BRANCH   6  24
ATOM     24  O   LIG A   1      -6.953  -0.102 133.369  0.00  0.00    -0.488 OA
BRANCH  24  25
ATOM     25  C   LIG A   1      -7.395  -1.453 133.163  0.00  0.00    +0.256 C 
BRANCH  25  26
ATOM     26  C   LIG A   1      -6.306  -2.234 132.484  0.00  0.00    +0.012 C 
ATOM     27  C   LIG A   1      -6.378  -2.900 131.314  0.00  0.00    -0.076 C 
ATOM     28  C   LIG A   1      -7.610  -3.016 130.458  0.00  0.00    +0.038 C 
ATOM     29  C   LIG A   1      -5.158  -3.563 130.727  0.00  0.00    +0.038 C 
ENDBRANCH  25  26
ENDBRANCH  24  25
ENDBRANCH   6  24
TORSDOF 7
ENDMDL
MODEL 2
REMARK VINA RESULT:      -8.0      1.715      2.523
REMARK  Name = NuBBE_2175
REMARK  11 active torsions:
REMARK  status: ('A' for Active; 'I' for Inactive)
REMARK    1  A    between atoms: C_6  and  O_7
REMARK    2  A    between atoms: O_7  and  C_8
REMARK    3  A    between atoms: C_8  and  C_9
REMARK    4  A    between atoms: C_10  and  C_11
REMARK    5  A    between atoms: C_10  and  C_12
REMARK    6  A    between atoms: C_17  and  C_18
REMARK    7  A    between atoms: C_20  and  O_21
REMARK    8  A    between atoms: O_21  and  C_22
REMARK    9  A    between atoms: C_22  and  C_23
REMARK   10  A    between atoms: C_25  and  O_26
REMARK   11  A    between atoms: O_26  and  C_27
REMARK                            x       y       z     vdW  Elec       q    Type
REMARK                         _______ _______ _______ _____ _____    ______ ____
ROOT
ATOM      1  O   LIG A   1      -8.892   6.384 132.657  0.00  0.00    -0.286 OA
ATOM      2  C   LIG A   1      -9.244   5.313 132.175  0.00  0.00    +0.200 A 
ATOM      3  C   LIG A   1      -8.606   4.066 132.620  0.00  0.00    +0.065 A 
ATOM      4  C   LIG A   1      -7.619   4.077 133.611  0.00  0.00    +0.019 A 
ATOM      5  C   LIG A   1      -7.030   2.873 134.005  0.00  0.00    +0.046 A 
ATOM      6  C   LIG A   1      -7.419   1.671 133.404  0.00  0.00    +0.124 A 
ATOM      7  C   LIG A   1      -8.447   1.669 132.463  0.00  0.00    +0.092 A 
ATOM      8  C   LIG A   1      -9.013   2.868 132.053  0.00  0.00    +0.142 A 
ATOM      9  O   LIG A   1      -9.962   2.784 131.072  0.00  0.00    -0.462 OA
ATOM     10  C   LIG A   1     -10.561   3.949 130.675  0.00  0.00    +0.208 A 
ATOM     11  C   LIG A   1     -10.317   5.186 131.143  0.00  0.00    +0.064 A 
ENDROOT
BRANCH  11  12
ATOM     12  C   LIG A   1     -11.084   6.344 130.640  0.00  0.00    -0.008 A 
ATOM     13  C   LIG A   1     -10.827   6.873 129.367  0.00  0.00    +0.059 A 
ATOM     14  C   LIG A   1     -11.508   8.003 128.914  0.00  0.00    +0.174 A 
ATOM     15  C   LIG A   1     -12.552   8.563 129.664  0.00  0.00    +0.162 A 
ATOM     16  C   LIG A   1     -12.841   8.012 130.913  0.00  0.00    +0.050 A 
ATOM     17  C   LIG A   1     -12.096   6.936 131.404  0.00  0.00    +0.012 A 
BRANCH  15  18
ATOM     18  O   LIG A   1     -13.212   9.625 129.107  0.00  0.00    -0.491 OA
ATOM     19  C   LIG A   1     -13.415  10.755 129.949  0.00  0.00    +0.277 C 
ENDBRANCH  15  18
BRANCH  14  20
ATOM     20  O   LIG A   1     -11.198   8.605 127.672  0.00  0.00    -0.422 OA
BRANCH  20  21
ATOM     21  C   LIG A   1     -11.314   7.876 126.482  0.00  0.00    +0.309 C 
ATOM     22  C   LIG A   1     -12.549   7.025 126.576  0.00  0.00    +0.136 C 
ATOM     23  O   LIG A   1     -10.573   7.904 125.517  0.00  0.00    -0.251 OA
ENDBRANCH  20  21
ENDBRANCH  14  20
ENDBRANCH  11  12
BRANCH   6  24
ATOM     24  O   LIG A   1      -6.770   0.539 133.810  0.00  0.00    -0.488 OA
BRANCH  24  25
ATOM     25  C   LIG A   1      -5.344   0.544 133.631  0.00  0.00    +0.256 C 
BRANCH  25  26
ATOM     26  C   LIG A   1      -5.026   0.345 132.177  0.00  0.00    +0.012 C 
ATOM     27  C   LIG A   1      -4.465   1.231 131.330  0.00  0.00    -0.076 C 
ATOM     28  C   LIG A   1      -4.067   2.639 131.685  0.00  0.00    +0.038 C 
ATOM     29  C   LIG A   1      -4.131   0.839 129.913  0.00  0.00    +0.038 C 
ENDBRANCH  25  26
ENDBRANCH  24  25
ENDBRANCH   6  24
TORSDOF 7
ENDMDL
MODEL 3
REMARK VINA RESULT:      -7.6      5.323      9.698
REMARK  Name = NuBBE_2175
REMARK  11 active torsions:
REMARK  status: ('A' for Active; 'I' for Inactive)
REMARK    1  A    between atoms: C_6  and  O_7
REMARK    2  A    between atoms: O_7  and  C_8
REMARK    3  A    between atoms: C_8  and  C_9
REMARK    4  A    between atoms: C_10  and  C_11
REMARK    5  A    between atoms: C_10  and  C_12
REMARK    6  A    between atoms: C_17  and  C_18
REMARK    7  A    between atoms: C_20  and  O_21
REMARK    8  A    between atoms: O_21  and  C_22
REMARK    9  A    between atoms: C_22  and  C_23
REMARK   10  A    between atoms: C_25  and  O_26
REMARK   11  A    between atoms: O_26  and  C_27
REMARK                            x       y       z     vdW  Elec       q    Type
REMARK                         _______ _______ _______ _____ _____    ______ ____
ROOT
ATOM      1  O   LIG A   1      -7.970   0.047 128.575  0.00  0.00    -0.286 OA
ATOM      2  C   LIG A   1      -7.824   1.175 128.116  0.00  0.00    +0.200 A 
ATOM      3  C   LIG A   1      -8.188   2.346 128.926  0.00  0.00    +0.065 A 
ATOM      4  C   LIG A   1      -8.672   2.197 130.229  0.00  0.00    +0.019 A 
ATOM      5  C   LIG A   1      -9.014   3.333 130.967  0.00  0.00    +0.046 A 
ATOM      6  C   LIG A   1      -8.880   4.606 130.400  0.00  0.00    +0.124 A 
ATOM      7  C   LIG A   1      -8.338   4.741 129.124  0.00  0.00    +0.092 A 
ATOM      8  C   LIG A   1      -8.024   3.612 128.381  0.00  0.00    +0.142 A 
ATOM      9  O   LIG A   1      -7.568   3.830 127.111  0.00  0.00    -0.462 OA
ATOM     10  C   LIG A   1      -7.218   2.734 126.370  0.00  0.00    +0.208 A 
ATOM     11  C   LIG A   1      -7.275   1.445 126.752  0.00  0.00    +0.064 A 
ENDROOT
BRANCH  11  12
ATOM     12  C   LIG A   1      -6.817   0.372 125.847  0.00  0.00    -0.008 A 
ATOM     13  C   LIG A   1      -7.541   0.057 124.688  0.00  0.00    +0.059 A 
ATOM     14  C   LIG A   1      -7.143  -0.995 123.864  0.00  0.00    +0.174 A 
ATOM     15  C   LIG A   1      -5.944  -1.682 124.101  0.00  0.00    +0.162 A 
ATOM     16  C   LIG A   1      -5.198  -1.342 125.230  0.00  0.00    +0.050 A 
ATOM     17  C   LIG A   1      -5.646  -0.348 126.105  0.00  0.00    +0.012 A 
BRANCH  15  18
ATOM     18  O   LIG A   1      -5.597  -2.651 123.199  0.00  0.00    -0.491 OA
ATOM     19  C   LIG A   1      -4.454  -3.436 123.521  0.00  0.00    +0.277 C 
ENDBRANCH  15  18
BRANCH  14  20
ATOM     20  O   LIG A   1      -7.910  -1.387 122.741  0.00  0.00    -0.422 OA
BRANCH  20  21
ATOM     21  C   LIG A   1      -9.273  -1.677 122.881  0.00  0.00    +0.309 C 
ATOM     22  C   LIG A   1      -9.401  -3.091 123.371  0.00  0.00    +0.136 C 
ATOM     23  O   LIG A   1     -10.217  -0.939 122.664  0.00  0.00    -0.251 OA
ENDBRANCH  20  21
ENDBRANCH  14  20
ENDBRANCH  11  12
BRANCH   6  24
ATOM     24  O   LIG A   1      -9.273   5.667 131.166  0.00  0.00    -0.488 OA
BRANCH  24  25
ATOM     25  C   LIG A   1      -9.357   6.928 130.483  0.00  0.00    +0.256 C 
BRANCH  25  26
ATOM     26  C   LIG A   1     -10.801   7.279 130.266  0.00  0.00    +0.012 C 
ATOM     27  C   LIG A   1     -11.341   7.924 129.211  0.00  0.00    -0.076 C 
ATOM     28  C   LIG A   1     -10.571   8.454 128.032  0.00  0.00    +0.038 C 
ATOM     29  C   LIG A   1     -12.832   8.121 129.109  0.00  0.00    +0.038 C 
ENDBRANCH  25  26
ENDBRANCH  24  25
ENDBRANCH   6  24
TORSDOF 7
ENDMDL
MODEL 4
REMARK VINA RESULT:      -7.4      5.727      9.711
REMARK  Name = NuBBE_2175
REMARK  11 active torsions:
REMARK  status: ('A' for Active; 'I' for Inactive)
REMARK    1  A    between atoms: C_6  and  O_7
REMARK    2  A    between atoms: O_7  and  C_8
REMARK    3  A    between atoms: C_8  and  C_9
REMARK    4  A    between atoms: C_10  and  C_11
REMARK    5  A    between atoms: C_10  and  C_12
REMARK    6  A    between atoms: C_17  and  C_18
REMARK    7  A    between atoms: C_20  and  O_21
REMARK    8  A    between atoms: O_21  and  C_22
REMARK    9  A    between atoms: C_22  and  C_23
REMARK   10  A    between atoms: C_25  and  O_26
REMARK   11  A    between atoms: O_26  and  C_27
REMARK                            x       y       z     vdW  Elec       q    Type
REMARK                         _______ _______ _______ _____ _____    ______ ____
ROOT
ATOM      1  O   LIG A   1      -5.704   5.303 134.074  0.00  0.00    -0.286 OA
ATOM      2  C   LIG A   1      -5.996   5.862 133.022  0.00  0.00    +0.200 A 
ATOM      3  C   LIG A   1      -7.388   5.851 132.551  0.00  0.00    +0.065 A 
ATOM      4  C   LIG A   1      -8.396   5.237 133.300  0.00  0.00    +0.019 A 
ATOM      5  C   LIG A   1      -9.708   5.241 132.818  0.00  0.00    +0.046 A 
ATOM      6  C   LIG A   1     -10.004   5.847 131.592  0.00  0.00    +0.124 A 
ATOM      7  C   LIG A   1      -9.000   6.508 130.888  0.00  0.00    +0.092 A 
ATOM      8  C   LIG A   1      -7.693   6.481 131.353  0.00  0.00    +0.142 A 
ATOM      9  O   LIG A   1      -6.757   7.090 130.565  0.00  0.00    -0.462 OA
ATOM     10  C   LIG A   1      -5.466   7.108 131.019  0.00  0.00    +0.208 A 
ATOM     11  C   LIG A   1      -5.004   6.583 132.169  0.00  0.00    +0.064 A 
ENDROOT
BRANCH  11  12
ATOM     12  C   LIG A   1      -3.581   6.724 132.540  0.00  0.00    -0.008 A 
ATOM     13  C   LIG A   1      -3.024   7.990 132.766  0.00  0.00    +0.059 A 
ATOM     14  C   LIG A   1      -1.667   8.129 133.058  0.00  0.00    +0.174 A 
ATOM     15  C   LIG A   1      -0.854   7.005 133.255  0.00  0.00    +0.162 A 
ATOM     16  C   LIG A   1      -1.416   5.741 133.073  0.00  0.00    +0.050 A 
ATOM     17  C   LIG A   1      -2.754   5.606 132.692  0.00  0.00    +0.012 A 
BRANCH  15  18
ATOM     18  O   LIG A   1       0.448   7.237 133.610  0.00  0.00    -0.491 OA
ATOM     19  C   LIG A   1       0.709   7.374 135.003  0.00  0.00    +0.277 C 
ENDBRANCH  15  18
BRANCH  14  20
ATOM     20  O   LIG A   1      -1.067   9.403 133.200  0.00  0.00    -0.422 OA
BRANCH  20  21
ATOM     21  C   LIG A   1      -1.853  10.562 133.184  0.00  0.00    +0.309 C 
ATOM     22  C   LIG A   1      -2.220  10.895 134.602  0.00  0.00    +0.136 C 
ATOM     23  O   LIG A   1      -2.192  11.218 132.217  0.00  0.00    -0.251 OA
ENDBRANCH  20  21
ENDBRANCH  14  20
ENDBRANCH  11  12
BRANCH   6  24
ATOM     24  O   LIG A   1     -11.300   5.775 131.165  0.00  0.00    -0.488 OA
BRANCH  24  25
ATOM     25  C   LIG A   1     -11.504   6.008 129.762  0.00  0.00    +0.256 C 
BRANCH  25  26
ATOM     26  C   LIG A   1     -12.374   7.220 129.582  0.00  0.00    +0.012 C 
ATOM     27  C   LIG A   1     -12.100   8.329 128.867  0.00  0.00    -0.076 C 
ATOM     28  C   LIG A   1     -10.821   8.584 128.117  0.00  0.00    +0.038 C 
ATOM     29  C   LIG A   1     -13.126   9.423 128.718  0.00  0.00    +0.038 C 
ENDBRANCH  25  26
ENDBRANCH  24  25
ENDBRANCH   6  24
TORSDOF 7
ENDMDL
MODEL 5
REMARK VINA RESULT:      -7.4      6.578     11.159
REMARK  Name = NuBBE_2175
REMARK  11 active torsions:
REMARK  status: ('A' for Active; 'I' for Inactive)
REMARK    1  A    between atoms: C_6  and  O_7
REMARK    2  A    between atoms: O_7  and  C_8
REMARK    3  A    between atoms: C_8  and  C_9
REMARK    4  A    between atoms: C_10  and  C_11
REMARK    5  A    between atoms: C_10  and  C_12
REMARK    6  A    between atoms: C_17  and  C_18
REMARK    7  A    between atoms: C_20  and  O_21
REMARK    8  A    between atoms: O_21  and  C_22
REMARK    9  A    between atoms: C_22  and  C_23
REMARK   10  A    between atoms: C_25  and  O_26
REMARK   11  A    between atoms: O_26  and  C_27
REMARK                            x       y       z     vdW  Elec       q    Type
REMARK                         _______ _______ _______ _____ _____    ______ ____
ROOT
ATOM      1  O   LIG A   1      -4.854  -2.189 128.412  0.00  0.00    -0.286 OA
ATOM      2  C   LIG A   1      -5.992  -2.541 128.124  0.00  0.00    +0.200 A 
ATOM      3  C   LIG A   1      -6.520  -2.277 126.778  0.00  0.00    +0.065 A 
ATOM      4  C   LIG A   1      -5.731  -1.656 125.805  0.00  0.00    +0.019 A 
ATOM      5  C   LIG A   1      -6.268  -1.416 124.538  0.00  0.00    +0.046 A 
ATOM      6  C   LIG A   1      -7.586  -1.787 124.251  0.00  0.00    +0.124 A 
ATOM      7  C   LIG A   1      -8.339  -2.461 125.211  0.00  0.00    +0.092 A 
ATOM      8  C   LIG A   1      -7.815  -2.675 126.478  0.00  0.00    +0.142 A 
ATOM      9  O   LIG A   1      -8.645  -3.276 127.383  0.00  0.00    -0.462 OA
ATOM     10  C   LIG A   1      -8.140  -3.530 128.629  0.00  0.00    +0.208 A 
ATOM     11  C   LIG A   1      -6.902  -3.249 129.075  0.00  0.00    +0.064 A 
ENDROOT
BRANCH  11  12
ATOM     12  C   LIG A   1      -6.492  -3.629 130.442  0.00  0.00    -0.008 A 
ATOM     13  C   LIG A   1      -6.884  -2.859 131.545  0.00  0.00    +0.059 A 
ATOM     14  C   LIG A   1      -6.449  -3.182 132.830  0.00  0.00    +0.174 A 
ATOM     15  C   LIG A   1      -5.713  -4.352 133.069  0.00  0.00    +0.162 A 
ATOM     16  C   LIG A   1      -5.358  -5.145 131.977  0.00  0.00    +0.050 A 
ATOM     17  C   LIG A   1      -5.719  -4.770 130.680  0.00  0.00    +0.012 A 
BRANCH  15  18
ATOM     18  O   LIG A   1      -5.392  -4.626 134.371  0.00  0.00    -0.491 OA
ATOM     19  C   LIG A   1      -6.038  -5.750 134.959  0.00  0.00    +0.277 C 
ENDBRANCH  15  18
BRANCH  14  20
ATOM     20  O   LIG A   1      -6.758  -2.367 133.944  0.00  0.00    -0.422 OA
BRANCH  20  21
ATOM     21  C   LIG A   1      -6.319  -1.037 133.993  0.00  0.00    +0.309 C 
ATOM     22  C   LIG A   1      -4.849  -1.044 134.303  0.00  0.00    +0.136 C 
ATOM     23  O   LIG A   1      -6.976  -0.029 133.812  0.00  0.00    -0.251 OA
ENDBRANCH  20  21
ENDBRANCH  14  20
ENDBRANCH  11  12
BRANCH   6  24
ATOM     24  O   LIG A   1      -8.056  -1.482 123.005  0.00  0.00    -0.488 OA
BRANCH  24  25
ATOM     25  C   LIG A   1      -9.300  -0.765 122.969  0.00  0.00    +0.256 C 
BRANCH  25  26
ATOM     26  C   LIG A   1      -9.037   0.696 123.200  0.00  0.00    +0.012 C 
ATOM     27  C   LIG A   1      -9.193   1.387 124.347  0.00  0.00    -0.076 C 
ATOM     28  C   LIG A   1      -9.703   0.816 125.643  0.00  0.00    +0.038 C 
ATOM     29  C   LIG A   1      -8.797   2.840 124.431  0.00  0.00    +0.038 C 
ENDBRANCH  25  26
ENDBRANCH  24  25
ENDBRANCH   6  24
TORSDOF 7
ENDMDL
MODEL 6
REMARK VINA RESULT:      -7.3      7.359      9.811
REMARK  Name = NuBBE_2175
REMARK  11 active torsions:
REMARK  status: ('A' for Active; 'I' for Inactive)
REMARK    1  A    between atoms: C_6  and  O_7
REMARK    2  A    between atoms: O_7  and  C_8
REMARK    3  A    between atoms: C_8  and  C_9
REMARK    4  A    between atoms: C_10  and  C_11
REMARK    5  A    between atoms: C_10  and  C_12
REMARK    6  A    between atoms: C_17  and  C_18
REMARK    7  A    between atoms: C_20  and  O_21
REMARK    8  A    between atoms: O_21  and  C_22
REMARK    9  A    between atoms: C_22  and  C_23
REMARK   10  A    between atoms: C_25  and  O_26
REMARK   11  A    between atoms: O_26  and  C_27
REMARK                            x       y       z     vdW  Elec       q    Type
REMARK                         _______ _______ _______ _____ _____    ______ ____
ROOT
ATOM      1  O   LIG A   1      -6.267   4.942 128.603  0.00  0.00    -0.286 OA
ATOM      2  C   LIG A   1      -5.052   4.966 128.446  0.00  0.00    +0.200 A 
ATOM      3  C   LIG A   1      -4.202   5.666 129.420  0.00  0.00    +0.065 A 
ATOM      4  C   LIG A   1      -4.757   6.284 130.545  0.00  0.00    +0.019 A 
ATOM      5  C   LIG A   1      -3.920   6.945 131.446  0.00  0.00    +0.046 A 
ATOM      6  C   LIG A   1      -2.540   6.996 131.217  0.00  0.00    +0.124 A 
ATOM      7  C   LIG A   1      -1.996   6.323 130.125  0.00  0.00    +0.092 A 
ATOM      8  C   LIG A   1      -2.830   5.689 129.215  0.00  0.00    +0.142 A 
ATOM      9  O   LIG A   1      -2.222   5.117 128.133  0.00  0.00    -0.462 OA
ATOM     10  C   LIG A   1      -3.020   4.455 127.239  0.00  0.00    +0.208 A 
ATOM     11  C   LIG A   1      -4.355   4.302 127.302  0.00  0.00    +0.064 A 
ENDROOT
BRANCH  11  12
ATOM     12  C   LIG A   1      -5.070   3.517 126.276  0.00  0.00    -0.008 A 
ATOM     13  C   LIG A   1      -5.339   4.066 125.015  0.00  0.00    +0.059 A 
ATOM     14  C   LIG A   1      -6.067   3.349 124.066  0.00  0.00    +0.174 A 
ATOM     15  C   LIG A   1      -6.440   2.018 124.300  0.00  0.00    +0.162 A 
ATOM     16  C   LIG A   1      -6.135   1.452 125.539  0.00  0.00    +0.050 A 
ATOM     17  C   LIG A   1      -5.485   2.204 126.522  0.00  0.00    +0.012 A 
BRANCH  15  18
ATOM     18  O   LIG A   1      -7.087   1.369 123.283  0.00  0.00    -0.491 OA
ATOM     19  C   LIG A   1      -7.317  -0.025 123.467  0.00  0.00    +0.277 C 
ENDBRANCH  15  18
BRANCH  14  20
ATOM     20  O   LIG A   1      -6.427   3.919 122.822  0.00  0.00    -0.422 OA
BRANCH  20  21
ATOM     21  C   LIG A   1      -5.443   4.234 121.876  0.00  0.00    +0.309 C 
ATOM     22  C   LIG A   1      -5.446   3.158 120.826  0.00  0.00    +0.136 C 
ATOM     23  O   LIG A   1      -4.704   5.200 121.863  0.00  0.00    -0.251 OA
ENDBRANCH  20  21
ENDBRANCH  14  20
ENDBRANCH  11  12
BRANCH   6  24
ATOM     24  O   LIG A   1      -1.789   7.696 132.119  0.00  0.00    -0.488 OA
BRANCH  24  25
ATOM     25  C   LIG A   1      -2.529   8.517 133.036  0.00  0.00    +0.256 C 
BRANCH  25  26
ATOM     26  C   LIG A   1      -2.235   9.963 132.755  0.00  0.00    +0.012 C 
ATOM     27  C   LIG A   1      -2.321  11.001 133.612  0.00  0.00    -0.076 C 
ATOM     28  C   LIG A   1      -2.768  10.907 135.046  0.00  0.00    +0.038 C 
ATOM     29  C   LIG A   1      -1.903  12.387 133.189  0.00  0.00    +0.038 C 
ENDBRANCH  25  26
ENDBRANCH  24  25
ENDBRANCH   6  24
TORSDOF 7
ENDMDL
MODEL 7
REMARK VINA RESULT:      -7.2      6.020      8.097
REMARK  Name = NuBBE_2175
REMARK  11 active torsions:
REMARK  status: ('A' for Active; 'I' for Inactive)
REMARK    1  A    between atoms: C_6  and  O_7
REMARK    2  A    between atoms: O_7  and  C_8
REMARK    3  A    between atoms: C_8  and  C_9
REMARK    4  A    between atoms: C_10  and  C_11
REMARK    5  A    between atoms: C_10  and  C_12
REMARK    6  A    between atoms: C_17  and  C_18
REMARK    7  A    between atoms: C_20  and  O_21
REMARK    8  A    between atoms: O_21  and  C_22
REMARK    9  A    between atoms: C_22  and  C_23
REMARK   10  A    between atoms: C_25  and  O_26
REMARK   11  A    between atoms: O_26  and  C_27
REMARK                            x       y       z     vdW  Elec       q    Type
REMARK                         _______ _______ _______ _____ _____    ______ ____
ROOT
ATOM      1  O   LIG A   1      -4.955   6.131 129.560  0.00  0.00    -0.286 OA
ATOM      2  C   LIG A   1      -4.926   6.169 130.785  0.00  0.00    +0.200 A 
ATOM      3  C   LIG A   1      -3.649   6.391 131.479  0.00  0.00    +0.065 A 
ATOM      4  C   LIG A   1      -2.466   6.590 130.762  0.00  0.00    +0.019 A 
ATOM      5  C   LIG A   1      -1.270   6.791 131.455  0.00  0.00    +0.046 A 
ATOM      6  C   LIG A   1      -1.259   6.784 132.854  0.00  0.00    +0.124 A 
ATOM      7  C   LIG A   1      -2.456   6.646 133.554  0.00  0.00    +0.092 A 
ATOM      8  C   LIG A   1      -3.640   6.420 132.867  0.00  0.00    +0.142 A 
ATOM      9  O   LIG A   1      -4.755   6.221 133.630  0.00  0.00    -0.462 OA
ATOM     10  C   LIG A   1      -5.942   6.030 132.975  0.00  0.00    +0.208 A 
ATOM     11  C   LIG A   1      -6.139   6.011 131.644  0.00  0.00    +0.064 A 
ENDROOT
BRANCH  11  12
ATOM     12  C   LIG A   1      -7.496   5.837 131.089  0.00  0.00    -0.008 A 
ATOM     13  C   LIG A   1      -7.957   4.567 130.714  0.00  0.00    +0.059 A 
ATOM     14  C   LIG A   1      -9.215   4.408 130.134  0.00  0.00    +0.174 A 
ATOM     15  C   LIG A   1     -10.099   5.490 130.024  0.00  0.00    +0.162 A 
ATOM     16  C   LIG A   1      -9.660   6.749 130.437  0.00  0.00    +0.050 A 
ATOM     17  C   LIG A   1      -8.365   6.922 130.934  0.00  0.00    +0.012 A 
BRANCH  15  18
ATOM     18  O   LIG A   1     -11.340   5.227 129.509  0.00  0.00    -0.491 OA
ATOM     19  C   LIG A   1     -12.236   6.330 129.420  0.00  0.00    +0.277 C 
ENDBRANCH  15  18
BRANCH  14  20
ATOM     20  O   LIG A   1      -9.661   3.150 129.665  0.00  0.00    -0.422 OA
BRANCH  20  21
ATOM     21  C   LIG A   1      -8.837   2.364 128.850  0.00  0.00    +0.309 C 
ATOM     22  C   LIG A   1      -8.335   1.209 129.671  0.00  0.00    +0.136 C 
ATOM     23  O   LIG A   1      -8.558   2.544 127.680  0.00  0.00    -0.251 OA
ENDBRANCH  20  21
ENDBRANCH  14  20
ENDBRANCH  11  12
BRANCH   6  24
ATOM     24  O   LIG A   1      -0.047   6.946 133.463  0.00  0.00    -0.488 OA
BRANCH  24  25
ATOM     25  C   LIG A   1       0.029   8.013 134.422  0.00  0.00    +0.256 C 
BRANCH  25  26
ATOM     26  C   LIG A   1       0.419   9.283 133.721  0.00  0.00    +0.012 C 
ATOM     27  C   LIG A   1      -0.386  10.300 133.354  0.00  0.00    -0.076 C 
ATOM     28  C   LIG A   1      -1.876  10.344 133.558  0.00  0.00    +0.038 C 
ATOM     29  C   LIG A   1       0.185  11.550 132.733  0.00  0.00    +0.038 C 
ENDBRANCH  25  26
ENDBRANCH  24  25
ENDBRANCH   6  24
TORSDOF 7
ENDMDL
MODEL 8
REMARK VINA RESULT:      -7.2      4.974      6.891
REMARK  Name = NuBBE_2175
REMARK  11 active torsions:
REMARK  status: ('A' for Active; 'I' for Inactive)
REMARK    1  A    between atoms: C_6  and  O_7
REMARK    2  A    between atoms: O_7  and  C_8
REMARK    3  A    between atoms: C_8  and  C_9
REMARK    4  A    between atoms: C_10  and  C_11
REMARK    5  A    between atoms: C_10  and  C_12
REMARK    6  A    between atoms: C_17  and  C_18
REMARK    7  A    between atoms: C_20  and  O_21
REMARK    8  A    between atoms: O_21  and  C_22
REMARK    9  A    between atoms: C_22  and  C_23
REMARK   10  A    between atoms: C_25  and  O_26
REMARK   11  A    between atoms: O_26  and  C_27
REMARK                            x       y       z     vdW  Elec       q    Type
REMARK                         _______ _______ _______ _____ _____    ______ ____
ROOT
ATOM      1  O   LIG A   1      -6.282   0.753 129.376  0.00  0.00    -0.286 OA
ATOM      2  C   LIG A   1      -6.940   1.111 128.405  0.00  0.00    +0.200 A 
ATOM      3  C   LIG A   1      -7.660   0.112 127.603  0.00  0.00    +0.065 A 
ATOM      4  C   LIG A   1      -7.633  -1.243 127.947  0.00  0.00    +0.019 A 
ATOM      5  C   LIG A   1      -8.325  -2.164 127.158  0.00  0.00    +0.046 A 
ATOM      6  C   LIG A   1      -9.030  -1.733 126.029  0.00  0.00    +0.124 A 
ATOM      7  C   LIG A   1      -9.099  -0.373 125.734  0.00  0.00    +0.092 A 
ATOM      8  C   LIG A   1      -8.390   0.540 126.503  0.00  0.00    +0.142 A 
ATOM      9  O   LIG A   1      -8.450   1.845 126.102  0.00  0.00    -0.462 OA
ATOM     10  C   LIG A   1      -7.788   2.769 126.864  0.00  0.00    +0.208 A 
ATOM     11  C   LIG A   1      -7.070   2.537 127.977  0.00  0.00    +0.064 A 
ENDROOT
BRANCH  11  12
ATOM     12  C   LIG A   1      -6.448   3.654 128.716  0.00  0.00    -0.008 A 
ATOM     13  C   LIG A   1      -7.169   4.355 129.692  0.00  0.00    +0.059 A 
ATOM     14  C   LIG A   1      -6.604   5.448 130.348  0.00  0.00    +0.174 A 
ATOM     15  C   LIG A   1      -5.262   5.798 130.141  0.00  0.00    +0.162 A 
ATOM     16  C   LIG A   1      -4.527   5.074 129.201  0.00  0.00    +0.050 A 
ATOM     17  C   LIG A   1      -5.123   4.037 128.479  0.00  0.00    +0.012 A 
BRANCH  15  18
ATOM     18  O   LIG A   1      -4.772   6.839 130.882  0.00  0.00    -0.491 OA
ATOM     19  C   LIG A   1      -4.357   7.992 130.157  0.00  0.00    +0.277 C 
ENDBRANCH  15  18
BRANCH  14  20
ATOM     20  O   LIG A   1      -7.346   6.224 131.270  0.00  0.00    -0.422 OA
BRANCH  20  21
ATOM     21  C   LIG A   1      -8.554   6.818 130.885  0.00  0.00    +0.309 C 
ATOM     22  C   LIG A   1      -9.644   6.269 131.761  0.00  0.00    +0.136 C 
ATOM     23  O   LIG A   1      -8.731   7.644 130.008  0.00  0.00    -0.251 OA
ENDBRANCH  20  21
ENDBRANCH  14  20
ENDBRANCH  11  12
BRANCH   6  24
ATOM     24  O   LIG A   1      -9.648  -2.696 125.281  0.00  0.00    -0.488 OA
BRANCH  24  25
ATOM     25  C   LIG A   1      -9.082  -2.930 123.982  0.00  0.00    +0.256 C 
BRANCH  25  26
ATOM     26  C   LIG A   1      -7.694  -3.483 124.137  0.00  0.00    +0.012 C 
ATOM     27  C   LIG A   1      -6.535  -2.919 123.741  0.00  0.00    -0.076 C 
ATOM     28  C   LIG A   1      -6.413  -1.604 123.021  0.00  0.00    +0.038 C 
ATOM     29  C   LIG A   1      -5.213  -3.572 124.055  0.00  0.00    +0.038 C 
ENDBRANCH  25  26
ENDBRANCH  24  25
ENDBRANCH   6  24
TORSDOF 7
ENDMDL
MODEL 9
REMARK VINA RESULT:      -7.2      5.866     11.145
REMARK  Name = NuBBE_2175
REMARK  11 active torsions:
REMARK  status: ('A' for Active; 'I' for Inactive)
REMARK    1  A    between atoms: C_6  and  O_7
REMARK    2  A    between atoms: O_7  and  C_8
REMARK    3  A    between atoms: C_8  and  C_9
REMARK    4  A    between atoms: C_10  and  C_11
REMARK    5  A    between atoms: C_10  and  C_12
REMARK    6  A    between atoms: C_17  and  C_18
REMARK    7  A    between atoms: C_20  and  O_21
REMARK    8  A    between atoms: O_21  and  C_22
REMARK    9  A    between atoms: C_22  and  C_23
REMARK   10  A    between atoms: C_25  and  O_26
REMARK   11  A    between atoms: O_26  and  C_27
REMARK                            x       y       z     vdW  Elec       q    Type
REMARK                         _______ _______ _______ _____ _____    ______ ____
ROOT
ATOM      1  O   LIG A   1      -6.264  -1.294 125.798  0.00  0.00    -0.286 OA
ATOM      2  C   LIG A   1      -6.996  -0.383 126.168  0.00  0.00    +0.200 A 
ATOM      3  C   LIG A   1      -7.437   0.638 125.207  0.00  0.00    +0.065 A 
ATOM      4  C   LIG A   1      -7.057   0.572 123.863  0.00  0.00    +0.019 A 
ATOM      5  C   LIG A   1      -7.490   1.563 122.979  0.00  0.00    +0.046 A 
ATOM      6  C   LIG A   1      -8.287   2.617 123.440  0.00  0.00    +0.124 A 
ATOM      7  C   LIG A   1      -8.707   2.636 124.768  0.00  0.00    +0.092 A 
ATOM      8  C   LIG A   1      -8.256   1.666 125.652  0.00  0.00    +0.142 A 
ATOM      9  O   LIG A   1      -8.655   1.799 126.953  0.00  0.00    -0.462 OA
ATOM     10  C   LIG A   1      -8.252   0.835 127.837  0.00  0.00    +0.208 A 
ATOM     11  C   LIG A   1      -7.494  -0.243 127.571  0.00  0.00    +0.064 A 
ENDROOT
BRANCH  11  12
ATOM     12  C   LIG A   1      -7.180  -1.221 128.632  0.00  0.00    -0.008 A 
ATOM     13  C   LIG A   1      -6.277  -0.900 129.655  0.00  0.00    +0.059 A 
ATOM     14  C   LIG A   1      -5.934  -1.842 130.624  0.00  0.00    +0.174 A 
ATOM     15  C   LIG A   1      -6.573  -3.089 130.675  0.00  0.00    +0.162 A 
ATOM     16  C   LIG A   1      -7.505  -3.396 129.683  0.00  0.00    +0.050 A 
ATOM     17  C   LIG A   1      -7.781  -2.484 128.660  0.00  0.00    +0.012 A 
BRANCH  15  18
ATOM     18  O   LIG A   1      -6.225  -3.922 131.704  0.00  0.00    -0.491 OA
ATOM     19  C   LIG A   1      -5.468  -5.077 131.355  0.00  0.00    +0.277 C 
ENDBRANCH  15  18
BRANCH  14  20
ATOM     20  O   LIG A   1      -4.957  -1.569 131.611  0.00  0.00    -0.422 OA
BRANCH  20  21
ATOM     21  C   LIG A   1      -3.610  -1.876 131.378  0.00  0.00    +0.309 C 
ATOM     22  C   LIG A   1      -2.829  -1.506 132.608  0.00  0.00    +0.136 C 
ATOM     23  O   LIG A   1      -3.120  -2.364 130.378  0.00  0.00    -0.251 OA
ENDBRANCH  20  21
ENDBRANCH  14  20
ENDBRANCH  11  12
BRANCH   6  24
ATOM     24  O   LIG A   1      -8.636   3.572 122.527  0.00  0.00    -0.488 OA
BRANCH  24  25
ATOM     25  C   LIG A   1      -8.673   3.138 121.158  0.00  0.00    +0.256 C 
BRANCH  25  26
ATOM     26  C   LIG A   1      -7.892   4.102 120.312  0.00  0.00    +0.012 C 
ATOM     27  C   LIG A   1      -6.555   4.152 120.144  0.00  0.00    -0.076 C 
ATOM     28  C   LIG A   1      -5.562   3.244 120.817  0.00  0.00    +0.038 C 
ATOM     29  C   LIG A   1      -5.935   5.134 119.183  0.00  0.00    +0.038 C 
ENDBRANCH  25  26
ENDBRANCH  24  25
ENDBRANCH   6  24
TORSDOF 7
ENDMDL
