MODEL 1
REMARK VINA RESULT:      -6.5      0.000      0.000
REMARK  Name = NuBBE_221
REMARK  8 active torsions:
REMARK  status: ('A' for Active; 'I' for Inactive)
REMARK    1  A    between atoms: O_1  and  C_2
REMARK    2  A    between atoms: C_6  and  C_7
REMARK    3  A    between atoms: C_7  and  C_8
REMARK    4  A    between atoms: C_7  and  O_10
REMARK    5  A    between atoms: C_7  and  C_11
REMARK    6  A    between atoms: C_8  and  O_9
REMARK    7  A    between atoms: C_14  and  C_15
REMARK    8  A    between atoms: C_17  and  C_18
REMARK                            x       y       z     vdW  Elec       q    Type
REMARK                         _______ _______ _______ _____ _____    ______ ____
ROOT
ATOM      1  C   LIG A   1      -9.694   6.169 132.098  0.00  0.00    +0.120 A 
ATOM      2  C   LIG A   1      -8.879   5.771 133.151  0.00  0.00    +0.054 A 
ATOM      3  C   LIG A   1      -7.472   5.893 133.096  0.00  0.00    -0.011 A 
ATOM      4  C   LIG A   1      -6.867   6.434 131.917  0.00  0.00    -0.011 A 
ATOM      5  C   LIG A   1      -5.433   6.518 131.831  0.00  0.00    -0.006 A 
ATOM      6  C   LIG A   1      -4.675   6.093 132.939  0.00  0.00    +0.007 A 
ATOM      7  C   LIG A   1      -5.273   5.596 134.091  0.00  0.00    +0.004 A 
ATOM      8  C   LIG A   1      -6.660   5.485 134.181  0.00  0.00    -0.043 A 
ATOM      9  C   LIG A   1      -7.237   4.917 135.454  0.00  0.00    +0.044 C 
ATOM     10  C   LIG A   1      -7.749   6.858 130.885  0.00  0.00    +0.015 A 
ATOM     11  C   LIG A   1      -9.143   6.721 130.952  0.00  0.00    -0.008 A 
ATOM     12  C   LIG A   1     -10.012   7.168 129.812  0.00  0.00    +0.048 C 
ENDROOT
BRANCH   1  13
ATOM     13  O   LIG A   1     -11.050   6.023 132.173  0.00  0.00    -0.506 OA
ATOM     14  H   LIG A   1     -11.388   5.759 131.304  0.00  0.00    +0.292 HD
ENDBRANCH   1  13
BRANCH   5  15
ATOM     15  C   LIG A   1      -4.695   7.004 130.565  0.00  0.00    +0.112 C 
ATOM     16  C   LIG A   1      -3.264   7.532 130.804  0.00  0.00    +0.049 C 
BRANCH  15  17
ATOM     17  O   LIG A   1      -5.385   8.135 129.995  0.00  0.00    -0.382 OA
ATOM     18  H   LIG A   1      -4.742   8.591 129.420  0.00  0.00    +0.211 HD
ENDBRANCH  15  17
BRANCH  15  19
ATOM     19  C   LIG A   1      -4.628   5.882 129.490  0.00  0.00    +0.195 C 
BRANCH  19  20
ATOM     20  O   LIG A   1      -4.321   6.420 128.200  0.00  0.00    -0.392 OA
ATOM     21  H   LIG A   1      -4.271   5.644 127.607  0.00  0.00    +0.209 HD
ENDBRANCH  19  20
ENDBRANCH  15  19
ENDBRANCH   5  15
TORSDOF 5
ENDMDL
MODEL 2
REMARK VINA RESULT:      -6.3      9.060     10.488
REMARK  Name = NuBBE_221
REMARK  8 active torsions:
REMARK  status: ('A' for Active; 'I' for Inactive)
REMARK    1  A    between atoms: O_1  and  C_2
REMARK    2  A    between atoms: C_6  and  C_7
REMARK    3  A    between atoms: C_7  and  C_8
REMARK    4  A    between atoms: C_7  and  O_10
REMARK    5  A    between atoms: C_7  and  C_11
REMARK    6  A    between atoms: C_8  and  O_9
REMARK    7  A    between atoms: C_14  and  C_15
REMARK    8  A    between atoms: C_17  and  C_18
REMARK                            x       y       z     vdW  Elec       q    Type
REMARK                         _______ _______ _______ _____ _____    ______ ____
ROOT
ATOM      1  C   LIG A   1      -5.522  -0.110 128.046  0.00  0.00    +0.120 A 
ATOM      2  C   LIG A   1      -6.278  -1.122 128.629  0.00  0.00    +0.054 A 
ATOM      3  C   LIG A   1      -7.156  -1.929 127.871  0.00  0.00    -0.011 A 
ATOM      4  C   LIG A   1      -7.279  -1.693 126.465  0.00  0.00    -0.011 A 
ATOM      5  C   LIG A   1      -8.206  -2.478 125.693  0.00  0.00    -0.006 A 
ATOM      6  C   LIG A   1      -8.938  -3.483 126.355  0.00  0.00    +0.007 A 
ATOM      7  C   LIG A   1      -8.790  -3.724 127.715  0.00  0.00    +0.004 A 
ATOM      8  C   LIG A   1      -7.914  -2.957 128.483  0.00  0.00    -0.043 A 
ATOM      9  C   LIG A   1      -7.822  -3.262 129.957  0.00  0.00    +0.044 C 
ATOM     10  C   LIG A   1      -6.457  -0.671 125.916  0.00  0.00    +0.015 A 
ATOM     11  C   LIG A   1      -5.597   0.128 126.684  0.00  0.00    -0.008 A 
ATOM     12  C   LIG A   1      -4.777   1.207 126.039  0.00  0.00    +0.048 C 
ENDROOT
BRANCH   1  13
ATOM     13  O   LIG A   1      -4.694   0.665 128.807  0.00  0.00    -0.506 OA
ATOM     14  H   LIG A   1      -5.118   1.523 128.961  0.00  0.00    +0.292 HD
ENDBRANCH   1  13
BRANCH   5  15
ATOM     15  C   LIG A   1      -8.467  -2.232 124.191  0.00  0.00    +0.112 C 
ATOM     16  C   LIG A   1      -9.443  -3.226 123.525  0.00  0.00    +0.049 C 
BRANCH  15  17
ATOM     17  O   LIG A   1      -7.246  -2.400 123.444  0.00  0.00    -0.382 OA
ATOM     18  H   LIG A   1      -6.577  -2.728 124.075  0.00  0.00    +0.211 HD
ENDBRANCH  15  17
BRANCH  15  19
ATOM     19  C   LIG A   1      -8.995  -0.790 123.944  0.00  0.00    +0.195 C 
BRANCH  19  20
ATOM     20  O   LIG A   1      -9.923  -0.759 122.854  0.00  0.00    -0.392 OA
ATOM     21  H   LIG A   1      -9.639  -0.004 122.301  0.00  0.00    +0.209 HD
ENDBRANCH  19  20
ENDBRANCH  15  19
ENDBRANCH   5  15
TORSDOF 5
ENDMDL
MODEL 3
REMARK VINA RESULT:      -6.3      8.917     10.262
REMARK  Name = NuBBE_221
REMARK  8 active torsions:
REMARK  status: ('A' for Active; 'I' for Inactive)
REMARK    1  A    between atoms: O_1  and  C_2
REMARK    2  A    between atoms: C_6  and  C_7
REMARK    3  A    between atoms: C_7  and  C_8
REMARK    4  A    between atoms: C_7  and  O_10
REMARK    5  A    between atoms: C_7  and  C_11
REMARK    6  A    between atoms: C_8  and  O_9
REMARK    7  A    between atoms: C_14  and  C_15
REMARK    8  A    between atoms: C_17  and  C_18
REMARK                            x       y       z     vdW  Elec       q    Type
REMARK                         _______ _______ _______ _____ _____    ______ ____
ROOT
ATOM      1  C   LIG A   1      -8.540  -3.179 127.461  0.00  0.00    +0.120 A 
ATOM      2  C   LIG A   1      -8.877  -3.201 126.112  0.00  0.00    +0.054 A 
ATOM      3  C   LIG A   1      -8.774  -2.051 125.297  0.00  0.00    -0.011 A 
ATOM      4  C   LIG A   1      -8.321  -0.824 125.879  0.00  0.00    -0.011 A 
ATOM      5  C   LIG A   1      -8.260   0.364 125.069  0.00  0.00    -0.006 A 
ATOM      6  C   LIG A   1      -8.618   0.262 123.711  0.00  0.00    +0.007 A 
ATOM      7  C   LIG A   1      -9.030  -0.940 123.149  0.00  0.00    +0.004 A 
ATOM      8  C   LIG A   1      -9.118  -2.095 123.924  0.00  0.00    -0.043 A 
ATOM      9  C   LIG A   1      -9.593  -3.359 123.250  0.00  0.00    +0.044 C 
ATOM     10  C   LIG A   1      -7.957  -0.867 127.252  0.00  0.00    +0.015 A 
ATOM     11  C   LIG A   1      -8.073  -2.015 128.050  0.00  0.00    -0.008 A 
ATOM     12  C   LIG A   1      -7.693  -1.980 129.502  0.00  0.00    +0.048 C 
ENDROOT
BRANCH   1  13
ATOM     13  O   LIG A   1      -8.666  -4.302 128.228  0.00  0.00    -0.506 OA
ATOM     14  H   LIG A   1      -8.366  -4.104 129.128  0.00  0.00    +0.292 HD
ENDBRANCH   1  13
BRANCH   5  15
ATOM     15  C   LIG A   1      -7.868   1.746 125.636  0.00  0.00    +0.112 C 
ATOM     16  C   LIG A   1      -6.418   1.853 126.155  0.00  0.00    +0.049 C 
BRANCH  15  17
ATOM     17  O   LIG A   1      -8.669   2.049 126.796  0.00  0.00    -0.382 OA
ATOM     18  H   LIG A   1      -8.050   2.337 127.493  0.00  0.00    +0.211 HD
ENDBRANCH  15  17
BRANCH  15  19
ATOM     19  C   LIG A   1      -8.093   2.867 124.582  0.00  0.00    +0.195 C 
BRANCH  19  20
ATOM     20  O   LIG A   1      -9.048   3.828 125.043  0.00  0.00    -0.392 OA
ATOM     21  H   LIG A   1      -8.665   4.192 125.866  0.00  0.00    +0.209 HD
ENDBRANCH  19  20
ENDBRANCH  15  19
ENDBRANCH   5  15
TORSDOF 5
ENDMDL
MODEL 4
REMARK VINA RESULT:      -6.2      9.033     10.892
REMARK  Name = NuBBE_221
REMARK  8 active torsions:
REMARK  status: ('A' for Active; 'I' for Inactive)
REMARK    1  A    between atoms: O_1  and  C_2
REMARK    2  A    between atoms: C_6  and  C_7
REMARK    3  A    between atoms: C_7  and  C_8
REMARK    4  A    between atoms: C_7  and  O_10
REMARK    5  A    between atoms: C_7  and  C_11
REMARK    6  A    between atoms: C_8  and  O_9
REMARK    7  A    between atoms: C_14  and  C_15
REMARK    8  A    between atoms: C_17  and  C_18
REMARK                            x       y       z     vdW  Elec       q    Type
REMARK                         _______ _______ _______ _____ _____    ______ ____
ROOT
ATOM      1  C   LIG A   1      -6.173  -2.047 127.556  0.00  0.00    +0.120 A 
ATOM      2  C   LIG A   1      -5.787  -2.418 126.273  0.00  0.00    +0.054 A 
ATOM      3  C   LIG A   1      -6.380  -1.853 125.122  0.00  0.00    -0.011 A 
ATOM      4  C   LIG A   1      -7.416  -0.877 125.280  0.00  0.00    -0.011 A 
ATOM      5  C   LIG A   1      -8.059  -0.331 124.115  0.00  0.00    -0.006 A 
ATOM      6  C   LIG A   1      -7.614  -0.757 122.848  0.00  0.00    +0.007 A 
ATOM      7  C   LIG A   1      -6.588  -1.684 122.704  0.00  0.00    +0.004 A 
ATOM      8  C   LIG A   1      -5.970  -2.241 123.823  0.00  0.00    -0.043 A 
ATOM      9  C   LIG A   1      -4.880  -3.257 123.589  0.00  0.00    +0.044 C 
ATOM     10  C   LIG A   1      -7.745  -0.509 126.613  0.00  0.00    +0.015 A 
ATOM     11  C   LIG A   1      -7.153  -1.087 127.746  0.00  0.00    -0.008 A 
ATOM     12  C   LIG A   1      -7.570  -0.666 129.126  0.00  0.00    +0.048 C 
ENDROOT
BRANCH   1  13
ATOM     13  O   LIG A   1      -5.594  -2.624 128.651  0.00  0.00    -0.506 OA
ATOM     14  H   LIG A   1      -6.269  -3.115 129.143  0.00  0.00    +0.292 HD
ENDBRANCH   1  13
BRANCH   5  15
ATOM     15  C   LIG A   1      -9.242   0.658 124.195  0.00  0.00    +0.112 C 
ATOM     16  C   LIG A   1      -8.896   2.047 124.774  0.00  0.00    +0.049 C 
BRANCH  15  17
ATOM     17  O   LIG A   1     -10.247   0.154 125.098  0.00  0.00    -0.382 OA
ATOM     18  H   LIG A   1     -10.016  -0.777 125.279  0.00  0.00    +0.211 HD
ENDBRANCH  15  17
BRANCH  15  19
ATOM     19  C   LIG A   1      -9.899   0.861 122.800  0.00  0.00    +0.195 C 
BRANCH  19  20
ATOM     20  O   LIG A   1     -11.301   0.577 122.842  0.00  0.00    -0.392 OA
ATOM     21  H   LIG A   1     -11.709   1.374 123.235  0.00  0.00    +0.209 HD
ENDBRANCH  19  20
ENDBRANCH  15  19
ENDBRANCH   5  15
TORSDOF 5
ENDMDL
MODEL 5
REMARK VINA RESULT:      -6.2      9.013     10.281
REMARK  Name = NuBBE_221
REMARK  8 active torsions:
REMARK  status: ('A' for Active; 'I' for Inactive)
REMARK    1  A    between atoms: O_1  and  C_2
REMARK    2  A    between atoms: C_6  and  C_7
REMARK    3  A    between atoms: C_7  and  C_8
REMARK    4  A    between atoms: C_7  and  O_10
REMARK    5  A    between atoms: C_7  and  C_11
REMARK    6  A    between atoms: C_8  and  O_9
REMARK    7  A    between atoms: C_14  and  C_15
REMARK    8  A    between atoms: C_17  and  C_18
REMARK                            x       y       z     vdW  Elec       q    Type
REMARK                         _______ _______ _______ _____ _____    ______ ____
ROOT
ATOM      1  C   LIG A   1      -5.447   0.051 128.375  0.00  0.00    +0.120 A 
ATOM      2  C   LIG A   1      -6.130  -0.942 129.070  0.00  0.00    +0.054 A 
ATOM      3  C   LIG A   1      -7.032  -1.819 128.426  0.00  0.00    -0.011 A 
ATOM      4  C   LIG A   1      -7.258  -1.676 127.020  0.00  0.00    -0.011 A 
ATOM      5  C   LIG A   1      -8.210  -2.532 126.365  0.00  0.00    -0.006 A 
ATOM      6  C   LIG A   1      -8.864  -3.513 127.136  0.00  0.00    +0.007 A 
ATOM      7  C   LIG A   1      -8.616  -3.663 128.496  0.00  0.00    +0.004 A 
ATOM      8  C   LIG A   1      -7.714  -2.826 129.151  0.00  0.00    -0.043 A 
ATOM      9  C   LIG A   1      -7.513  -3.034 130.632  0.00  0.00    +0.044 C 
ATOM     10  C   LIG A   1      -6.507  -0.669 126.354  0.00  0.00    +0.015 A 
ATOM     11  C   LIG A   1      -5.622   0.200 127.009  0.00  0.00    -0.008 A 
ATOM     12  C   LIG A   1      -4.881   1.258 126.244  0.00  0.00    +0.048 C 
ENDROOT
BRANCH   1  13
ATOM     13  O   LIG A   1      -4.594   0.895 129.027  0.00  0.00    -0.506 OA
ATOM     14  H   LIG A   1      -4.913   1.805 128.928  0.00  0.00    +0.292 HD
ENDBRANCH   1  13
BRANCH   5  15
ATOM     15  C   LIG A   1      -8.580  -2.388 124.873  0.00  0.00    +0.112 C 
ATOM     16  C   LIG A   1      -7.384  -2.175 123.920  0.00  0.00    +0.049 C 
BRANCH  15  17
ATOM     17  O   LIG A   1      -9.387  -1.210 124.675  0.00  0.00    -0.382 OA
ATOM     18  H   LIG A   1      -8.781  -0.447 124.727  0.00  0.00    +0.211 HD
ENDBRANCH  15  17
BRANCH  15  19
ATOM     19  C   LIG A   1      -9.387  -3.621 124.375  0.00  0.00    +0.195 C 
BRANCH  19  20
ATOM     20  O   LIG A   1     -10.170  -3.295 123.221  0.00  0.00    -0.392 OA
ATOM     21  H   LIG A   1     -10.296  -2.327 123.265  0.00  0.00    +0.209 HD
ENDBRANCH  19  20
ENDBRANCH  15  19
ENDBRANCH   5  15
TORSDOF 5
ENDMDL
MODEL 6
REMARK VINA RESULT:      -6.2      7.899     10.106
REMARK  Name = NuBBE_221
REMARK  8 active torsions:
REMARK  status: ('A' for Active; 'I' for Inactive)
REMARK    1  A    between atoms: O_1  and  C_2
REMARK    2  A    between atoms: C_6  and  C_7
REMARK    3  A    between atoms: C_7  and  C_8
REMARK    4  A    between atoms: C_7  and  O_10
REMARK    5  A    between atoms: C_7  and  C_11
REMARK    6  A    between atoms: C_8  and  O_9
REMARK    7  A    between atoms: C_14  and  C_15
REMARK    8  A    between atoms: C_17  and  C_18
REMARK                            x       y       z     vdW  Elec       q    Type
REMARK                         _______ _______ _______ _____ _____    ______ ____
ROOT
ATOM      1  C   LIG A   1      -4.803   1.684 126.247  0.00  0.00    +0.120 A 
ATOM      2  C   LIG A   1      -5.085   0.344 126.002  0.00  0.00    +0.054 A 
ATOM      3  C   LIG A   1      -6.188  -0.057 125.217  0.00  0.00    -0.011 A 
ATOM      4  C   LIG A   1      -7.049   0.945 124.663  0.00  0.00    -0.011 A 
ATOM      5  C   LIG A   1      -8.203   0.545 123.902  0.00  0.00    -0.006 A 
ATOM      6  C   LIG A   1      -8.421  -0.831 123.699  0.00  0.00    +0.007 A 
ATOM      7  C   LIG A   1      -7.564  -1.795 124.216  0.00  0.00    +0.004 A 
ATOM      8  C   LIG A   1      -6.455  -1.426 124.977  0.00  0.00    -0.043 A 
ATOM      9  C   LIG A   1      -5.582  -2.528 125.524  0.00  0.00    +0.044 C 
ATOM     10  C   LIG A   1      -6.695   2.298 124.914  0.00  0.00    +0.015 A 
ATOM     11  C   LIG A   1      -5.600   2.680 125.705  0.00  0.00    -0.008 A 
ATOM     12  C   LIG A   1      -5.301   4.131 125.948  0.00  0.00    +0.048 C 
ENDROOT
BRANCH   1  13
ATOM     13  O   LIG A   1      -3.739   2.041 127.025  0.00  0.00    -0.506 OA
ATOM     14  H   LIG A   1      -3.930   2.892 127.449  0.00  0.00    +0.292 HD
ENDBRANCH   1  13
BRANCH   5  15
ATOM     15  C   LIG A   1      -9.231   1.554 123.345  0.00  0.00    +0.112 C 
ATOM     16  C   LIG A   1      -8.626   2.742 122.566  0.00  0.00    +0.049 C 
BRANCH  15  17
ATOM     17  O   LIG A   1      -9.942   2.184 124.429  0.00  0.00    -0.382 OA
ATOM     18  H   LIG A   1      -9.283   2.699 124.931  0.00  0.00    +0.211 HD
ENDBRANCH  15  17
BRANCH  15  19
ATOM     19  C   LIG A   1     -10.268   0.847 122.427  0.00  0.00    +0.195 C 
BRANCH  19  20
ATOM     20  O   LIG A   1     -11.566   0.832 123.028  0.00  0.00    -0.392 OA
ATOM     21  H   LIG A   1     -11.704  -0.093 123.311  0.00  0.00    +0.209 HD
ENDBRANCH  19  20
ENDBRANCH  15  19
ENDBRANCH   5  15
TORSDOF 5
ENDMDL
MODEL 7
REMARK VINA RESULT:      -6.1      7.294      9.752
REMARK  Name = NuBBE_221
REMARK  8 active torsions:
REMARK  status: ('A' for Active; 'I' for Inactive)
REMARK    1  A    between atoms: O_1  and  C_2
REMARK    2  A    between atoms: C_6  and  C_7
REMARK    3  A    between atoms: C_7  and  C_8
REMARK    4  A    between atoms: C_7  and  O_10
REMARK    5  A    between atoms: C_7  and  C_11
REMARK    6  A    between atoms: C_8  and  O_9
REMARK    7  A    between atoms: C_14  and  C_15
REMARK    8  A    between atoms: C_17  and  C_18
REMARK                            x       y       z     vdW  Elec       q    Type
REMARK                         _______ _______ _______ _____ _____    ______ ____
ROOT
ATOM      1  C   LIG A   1      -5.398   4.417 122.180  0.00  0.00    +0.120 A 
ATOM      2  C   LIG A   1      -5.020   4.276 123.511  0.00  0.00    +0.054 A 
ATOM      3  C   LIG A   1      -5.735   3.451 124.408  0.00  0.00    -0.011 A 
ATOM      4  C   LIG A   1      -6.888   2.746 123.936  0.00  0.00    -0.011 A 
ATOM      5  C   LIG A   1      -7.650   1.941 124.853  0.00  0.00    -0.006 A 
ATOM      6  C   LIG A   1      -7.205   1.849 126.186  0.00  0.00    +0.007 A 
ATOM      7  C   LIG A   1      -6.068   2.515 126.628  0.00  0.00    +0.004 A 
ATOM      8  C   LIG A   1      -5.331   3.318 125.759  0.00  0.00    -0.043 A 
ATOM      9  C   LIG A   1      -4.121   4.027 126.314  0.00  0.00    +0.044 C 
ATOM     10  C   LIG A   1      -7.208   2.898 122.560  0.00  0.00    +0.015 A 
ATOM     11  C   LIG A   1      -6.493   3.729 121.684  0.00  0.00    -0.008 A 
ATOM     12  C   LIG A   1      -6.905   3.860 120.246  0.00  0.00    +0.048 C 
ENDROOT
BRANCH   1  13
ATOM     13  O   LIG A   1      -4.698   5.236 121.341  0.00  0.00    -0.506 OA
ATOM     14  H   LIG A   1      -3.790   5.321 121.668  0.00  0.00    +0.292 HD
ENDBRANCH   1  13
BRANCH   5  15
ATOM     15  C   LIG A   1      -8.955   1.219 124.452  0.00  0.00    +0.112 C 
ATOM     16  C   LIG A   1      -8.803   0.169 123.330  0.00  0.00    +0.049 C 
BRANCH  15  17
ATOM     17  O   LIG A   1      -9.896   2.166 123.907  0.00  0.00    -0.382 OA
ATOM     18  H   LIG A   1     -10.140   2.767 124.636  0.00  0.00    +0.211 HD
ENDBRANCH  15  17
BRANCH  15  19
ATOM     19  C   LIG A   1      -9.614   0.529 125.679  0.00  0.00    +0.195 C 
BRANCH  19  20
ATOM     20  O   LIG A   1      -9.704  -0.887 125.491  0.00  0.00    -0.392 OA
ATOM     21  H   LIG A   1      -9.820  -1.008 124.528  0.00  0.00    +0.209 HD
ENDBRANCH  19  20
ENDBRANCH  15  19
ENDBRANCH   5  15
TORSDOF 5
ENDMDL
MODEL 8
REMARK VINA RESULT:      -6.1      8.682      9.951
REMARK  Name = NuBBE_221
REMARK  8 active torsions:
REMARK  status: ('A' for Active; 'I' for Inactive)
REMARK    1  A    between atoms: O_1  and  C_2
REMARK    2  A    between atoms: C_6  and  C_7
REMARK    3  A    between atoms: C_7  and  C_8
REMARK    4  A    between atoms: C_7  and  O_10
REMARK    5  A    between atoms: C_7  and  C_11
REMARK    6  A    between atoms: C_8  and  O_9
REMARK    7  A    between atoms: C_14  and  C_15
REMARK    8  A    between atoms: C_17  and  C_18
REMARK                            x       y       z     vdW  Elec       q    Type
REMARK                         _______ _______ _______ _____ _____    ______ ____
ROOT
ATOM      1  C   LIG A   1      -8.576   2.812 125.011  0.00  0.00    +0.120 A 
ATOM      2  C   LIG A   1      -8.387   2.199 126.244  0.00  0.00    +0.054 A 
ATOM      3  C   LIG A   1      -8.125   0.815 126.359  0.00  0.00    -0.011 A 
ATOM      4  C   LIG A   1      -8.063   0.018 125.171  0.00  0.00    -0.011 A 
ATOM      5  C   LIG A   1      -7.845  -1.400 125.281  0.00  0.00    -0.006 A 
ATOM      6  C   LIG A   1      -7.664  -1.948 126.565  0.00  0.00    +0.007 A 
ATOM      7  C   LIG A   1      -7.698  -1.161 127.710  0.00  0.00    +0.004 A 
ATOM      8  C   LIG A   1      -7.932   0.210 127.624  0.00  0.00    -0.043 A 
ATOM      9  C   LIG A   1      -7.976   0.996 128.912  0.00  0.00    +0.044 C 
ATOM     10  C   LIG A   1      -8.228   0.702 123.936  0.00  0.00    +0.015 A 
ATOM     11  C   LIG A   1      -8.496   2.075 123.840  0.00  0.00    -0.008 A 
ATOM     12  C   LIG A   1      -8.684   2.726 122.500  0.00  0.00    +0.048 C 
ENDROOT
BRANCH   1  13
ATOM     13  O   LIG A   1      -8.844   4.149 124.932  0.00  0.00    -0.506 OA
ATOM     14  H   LIG A   1      -8.294   4.620 125.576  0.00  0.00    +0.292 HD
ENDBRANCH   1  13
BRANCH   5  15
ATOM     15  C   LIG A   1      -7.852  -2.346 124.060  0.00  0.00    +0.112 C 
ATOM     16  C   LIG A   1      -7.618  -3.837 124.387  0.00  0.00    +0.049 C 
BRANCH  15  17
ATOM     17  O   LIG A   1      -6.763  -2.017 123.174  0.00  0.00    -0.382 OA
ATOM     18  H   LIG A   1      -7.045  -2.279 122.278  0.00  0.00    +0.211 HD
ENDBRANCH  15  17
BRANCH  15  19
ATOM     19  C   LIG A   1      -9.182  -2.224 123.264  0.00  0.00    +0.195 C 
BRANCH  19  20
ATOM     20  O   LIG A   1     -10.052  -3.328 123.537  0.00  0.00    -0.392 OA
ATOM     21  H   LIG A   1     -10.954  -2.952 123.510  0.00  0.00    +0.209 HD
ENDBRANCH  19  20
ENDBRANCH  15  19
ENDBRANCH   5  15
TORSDOF 5
ENDMDL
MODEL 9
REMARK VINA RESULT:      -6.1      7.710      9.232
REMARK  Name = NuBBE_221
REMARK  8 active torsions:
REMARK  status: ('A' for Active; 'I' for Inactive)
REMARK    1  A    between atoms: O_1  and  C_2
REMARK    2  A    between atoms: C_6  and  C_7
REMARK    3  A    between atoms: C_7  and  C_8
REMARK    4  A    between atoms: C_7  and  O_10
REMARK    5  A    between atoms: C_7  and  C_11
REMARK    6  A    between atoms: C_8  and  O_9
REMARK    7  A    between atoms: C_14  and  C_15
REMARK    8  A    between atoms: C_17  and  C_18
REMARK                            x       y       z     vdW  Elec       q    Type
REMARK                         _______ _______ _______ _____ _____    ______ ____
ROOT
ATOM      1  C   LIG A   1      -8.790  -0.943 123.893  0.00  0.00    +0.120 A 
ATOM      2  C   LIG A   1      -7.720  -1.045 124.775  0.00  0.00    +0.054 A 
ATOM      3  C   LIG A   1      -6.928   0.073 125.122  0.00  0.00    -0.011 A 
ATOM      4  C   LIG A   1      -7.229   1.346 124.540  0.00  0.00    -0.011 A 
ATOM      5  C   LIG A   1      -6.399   2.480 124.849  0.00  0.00    -0.006 A 
ATOM      6  C   LIG A   1      -5.332   2.297 125.751  0.00  0.00    +0.007 A 
ATOM      7  C   LIG A   1      -5.066   1.064 126.332  0.00  0.00    +0.004 A 
ATOM      8  C   LIG A   1      -5.845  -0.051 126.025  0.00  0.00    -0.043 A 
ATOM      9  C   LIG A   1      -5.482  -1.362 126.678  0.00  0.00    +0.044 C 
ATOM     10  C   LIG A   1      -8.354   1.400 123.673  0.00  0.00    +0.015 A 
ATOM     11  C   LIG A   1      -9.125   0.279 123.332  0.00  0.00    -0.008 A 
ATOM     12  C   LIG A   1     -10.286   0.406 122.389  0.00  0.00    +0.048 C 
ENDROOT
BRANCH   1  13
ATOM     13  O   LIG A   1      -9.527  -2.045 123.563  0.00  0.00    -0.506 OA
ATOM     14  H   LIG A   1      -9.298  -2.769 124.165  0.00  0.00    +0.292 HD
ENDBRANCH   1  13
BRANCH   5  15
ATOM     15  C   LIG A   1      -6.597   3.867 124.200  0.00  0.00    +0.112 C 
ATOM     16  C   LIG A   1      -6.041   5.056 125.013  0.00  0.00    +0.049 C 
BRANCH  15  17
ATOM     17  O   LIG A   1      -8.004   4.161 124.085  0.00  0.00    -0.382 OA
ATOM     18  H   LIG A   1      -8.405   3.416 123.598  0.00  0.00    +0.211 HD
ENDBRANCH  15  17
BRANCH  15  19
ATOM     19  C   LIG A   1      -5.971   3.914 122.777  0.00  0.00    +0.195 C 
BRANCH  19  20
ATOM     20  O   LIG A   1      -6.985   3.931 121.766  0.00  0.00    -0.392 OA
ATOM     21  H   LIG A   1      -7.695   4.496 122.128  0.00  0.00    +0.209 HD
ENDBRANCH  19  20
ENDBRANCH  15  19
ENDBRANCH   5  15
TORSDOF 5
ENDMDL
