MODEL 1
REMARK VINA RESULT:      -6.9      0.000      0.000
REMARK  Name = NuBBE_2090
REMARK  7 active torsions:
REMARK  status: ('A' for Active; 'I' for Inactive)
REMARK    1  A    between atoms: C_2  and  C_8
REMARK    2  A    between atoms: N_3  and  C_4
REMARK    3  A    between atoms: C_4  and  C_5
REMARK    4  A    between atoms: C_5  and  C_6
REMARK    5  A    between atoms: C_5  and  C_7
REMARK    6  A    between atoms: C_9  and  C_10
REMARK    7  A    between atoms: C_11  and  C_12
REMARK                            x       y       z     vdW  Elec       q    Type
REMARK                         _______ _______ _______ _____ _____    ______ ____
ROOT
ATOM      1  C   LIG A   1      -9.829   1.344 123.941  0.00  0.00    +0.001 C 
ATOM      2  C   LIG A   1      -8.974   2.380 123.965  0.00  0.00    +0.008 C 
ENDROOT
BRANCH   2   3
ATOM      3  C   LIG A   1      -8.175   2.864 122.835  0.00  0.00    -0.021 A 
ATOM      4  C   LIG A   1      -8.818   3.319 121.678  0.00  0.00    +0.057 A 
ATOM      5  C   LIG A   1      -8.033   3.789 120.646  0.00  0.00    +0.167 A 
ATOM      6  O   LIG A   1      -8.487   4.260 119.453  0.00  0.00    -0.453 OA
ATOM      7  C   LIG A   1      -7.243   4.580 118.797  0.00  0.00    +0.466 C 
ATOM      8  O   LIG A   1      -6.082   4.342 119.619  0.00  0.00    -0.453 OA
ATOM      9  C   LIG A   1      -6.662   3.826 120.736  0.00  0.00    +0.166 A 
ATOM     10  C   LIG A   1      -5.996   3.375 121.855  0.00  0.00    +0.050 A 
ATOM     11  C   LIG A   1      -6.766   2.876 122.913  0.00  0.00    +0.012 A 
ENDBRANCH   2   3
BRANCH   1  13
ATOM     12  C   LIG A   1      -9.490  -0.617 122.438  0.00  0.00    +0.067 C 
ATOM     13  C   LIG A   1     -10.115   0.513 122.793  0.00  0.00    +0.005 C 
BRANCH  12  15
ATOM     14  O   LIG A   1      -7.185  -0.940 122.965  0.00  0.00    -0.271 OA
ATOM     15  C   LIG A   1      -8.347  -1.239 123.162  0.00  0.00    +0.237 C 
ATOM     16  N   LIG A   1      -8.786  -2.183 124.062  0.00  0.00    -0.312 N 
ATOM     17  H   LIG A   1      -9.776  -2.357 124.134  0.00  0.00    +0.149 HD
BRANCH  16  18
ATOM     18  C   LIG A   1      -7.876  -2.987 124.862  0.00  0.00    +0.107 C 
BRANCH  18  19
ATOM     19  C   LIG A   1      -7.969  -2.649 126.361  0.00  0.00    +0.000 C 
ATOM     20  C   LIG A   1      -8.379  -1.190 126.575  0.00  0.00    +0.009 C 
ATOM     21  C   LIG A   1      -8.953  -3.561 127.098  0.00  0.00    +0.009 C 
ENDBRANCH  18  19
ENDBRANCH  16  18
ENDBRANCH  12  15
ENDBRANCH   1  13
TORSDOF 5
ENDMDL
MODEL 2
REMARK VINA RESULT:      -6.8      9.733     10.789
REMARK  Name = NuBBE_2090
REMARK  7 active torsions:
REMARK  status: ('A' for Active; 'I' for Inactive)
REMARK    1  A    between atoms: C_2  and  C_8
REMARK    2  A    between atoms: N_3  and  C_4
REMARK    3  A    between atoms: C_4  and  C_5
REMARK    4  A    between atoms: C_5  and  C_6
REMARK    5  A    between atoms: C_5  and  C_7
REMARK    6  A    between atoms: C_9  and  C_10
REMARK    7  A    between atoms: C_11  and  C_12
REMARK                            x       y       z     vdW  Elec       q    Type
REMARK                         _______ _______ _______ _____ _____    ______ ____
ROOT
ATOM      1  C   LIG A   1     -10.508   5.329 130.335  0.00  0.00    +0.001 C 
ATOM      2  C   LIG A   1     -11.805   5.556 130.074  0.00  0.00    +0.008 C 
ENDROOT
BRANCH   2   3
ATOM      3  C   LIG A   1     -12.384   6.821 129.611  0.00  0.00    -0.021 A 
ATOM      4  C   LIG A   1     -12.451   7.911 130.487  0.00  0.00    +0.057 A 
ATOM      5  C   LIG A   1     -12.980   9.092 130.008  0.00  0.00    +0.167 A 
ATOM      6  O   LIG A   1     -13.128  10.243 130.718  0.00  0.00    -0.453 OA
ATOM      7  C   LIG A   1     -13.731  11.098 129.726  0.00  0.00    +0.466 C 
ATOM      8  O   LIG A   1     -13.887  10.464 128.440  0.00  0.00    -0.453 OA
ATOM      9  C   LIG A   1     -13.423   9.216 128.712  0.00  0.00    +0.166 A 
ATOM     10  C   LIG A   1     -13.383   8.159 127.828  0.00  0.00    +0.050 A 
ATOM     11  C   LIG A   1     -12.867   6.943 128.291  0.00  0.00    +0.012 A 
ENDBRANCH   2   3
BRANCH   1  13
ATOM     12  C   LIG A   1      -8.508   6.594 131.124  0.00  0.00    +0.067 C 
ATOM     13  C   LIG A   1      -9.441   6.296 130.209  0.00  0.00    +0.005 C 
BRANCH  12  15
ATOM     14  O   LIG A   1      -9.012   6.389 133.448  0.00  0.00    -0.271 OA
ATOM     15  C   LIG A   1      -8.399   5.985 132.479  0.00  0.00    +0.237 C 
ATOM     16  N   LIG A   1      -7.519   4.928 132.476  0.00  0.00    -0.312 N 
ATOM     17  H   LIG A   1      -7.056   4.687 131.613  0.00  0.00    +0.149 HD
BRANCH  16  18
ATOM     18  C   LIG A   1      -7.177   4.188 133.681  0.00  0.00    +0.107 C 
BRANCH  18  19
ATOM     19  C   LIG A   1      -7.809   2.784 133.698  0.00  0.00    +0.000 C 
ATOM     20  C   LIG A   1      -9.238   2.814 133.151  0.00  0.00    +0.009 C 
ATOM     21  C   LIG A   1      -6.985   1.771 132.899  0.00  0.00    +0.009 C 
ENDBRANCH  18  19
ENDBRANCH  16  18
ENDBRANCH  12  15
ENDBRANCH   1  13
TORSDOF 5
ENDMDL
MODEL 3
REMARK VINA RESULT:      -6.7      5.639     10.348
REMARK  Name = NuBBE_2090
REMARK  7 active torsions:
REMARK  status: ('A' for Active; 'I' for Inactive)
REMARK    1  A    between atoms: C_2  and  C_8
REMARK    2  A    between atoms: N_3  and  C_4
REMARK    3  A    between atoms: C_4  and  C_5
REMARK    4  A    between atoms: C_5  and  C_6
REMARK    5  A    between atoms: C_5  and  C_7
REMARK    6  A    between atoms: C_9  and  C_10
REMARK    7  A    between atoms: C_11  and  C_12
REMARK                            x       y       z     vdW  Elec       q    Type
REMARK                         _______ _______ _______ _____ _____    ______ ____
ROOT
ATOM      1  C   LIG A   1      -7.504  -2.300 128.605  0.00  0.00    +0.001 C 
ATOM      2  C   LIG A   1      -6.576  -2.137 129.562  0.00  0.00    +0.008 C 
ENDROOT
BRANCH   2   3
ATOM      3  C   LIG A   1      -6.319  -3.052 130.678  0.00  0.00    -0.021 A 
ATOM      4  C   LIG A   1      -6.892  -2.794 131.929  0.00  0.00    +0.057 A 
ATOM      5  C   LIG A   1      -6.646  -3.690 132.948  0.00  0.00    +0.167 A 
ATOM      6  O   LIG A   1      -7.113  -3.593 134.223  0.00  0.00    -0.453 OA
ATOM      7  C   LIG A   1      -6.532  -4.772 134.816  0.00  0.00    +0.466 C 
ATOM      8  O   LIG A   1      -5.773  -5.569 133.883  0.00  0.00    -0.453 OA
ATOM      9  C   LIG A   1      -5.873  -4.811 132.759  0.00  0.00    +0.166 A 
ATOM     10  C   LIG A   1      -5.284  -5.088 131.544  0.00  0.00    +0.050 A 
ATOM     11  C   LIG A   1      -5.502  -4.188 130.495  0.00  0.00    +0.012 A 
ENDBRANCH   2   3
BRANCH   1  13
ATOM     12  C   LIG A   1      -9.068  -3.828 127.404  0.00  0.00    +0.067 C 
ATOM     13  C   LIG A   1      -8.424  -3.410 128.503  0.00  0.00    +0.005 C 
BRANCH  12  15
ATOM     14  O   LIG A   1      -9.825  -2.481 125.586  0.00  0.00    -0.271 OA
ATOM     15  C   LIG A   1      -8.969  -3.207 126.054  0.00  0.00    +0.237 C 
ATOM     16  N   LIG A   1      -7.800  -3.569 125.427  0.00  0.00    -0.312 N 
ATOM     17  H   LIG A   1      -7.166  -4.187 125.909  0.00  0.00    +0.149 HD
BRANCH  16  18
ATOM     18  C   LIG A   1      -7.474  -3.152 124.073  0.00  0.00    +0.107 C 
BRANCH  18  19
ATOM     19  C   LIG A   1      -6.035  -2.616 123.961  0.00  0.00    +0.000 C 
ATOM     20  C   LIG A   1      -5.682  -1.725 125.155  0.00  0.00    +0.009 C 
ATOM     21  C   LIG A   1      -5.006  -3.744 123.854  0.00  0.00    +0.009 C 
ENDBRANCH  18  19
ENDBRANCH  16  18
ENDBRANCH  12  15
ENDBRANCH   1  13
TORSDOF 5
ENDMDL
MODEL 4
REMARK VINA RESULT:      -6.7      2.946      7.416
REMARK  Name = NuBBE_2090
REMARK  7 active torsions:
REMARK  status: ('A' for Active; 'I' for Inactive)
REMARK    1  A    between atoms: C_2  and  C_8
REMARK    2  A    between atoms: N_3  and  C_4
REMARK    3  A    between atoms: C_4  and  C_5
REMARK    4  A    between atoms: C_5  and  C_6
REMARK    5  A    between atoms: C_5  and  C_7
REMARK    6  A    between atoms: C_9  and  C_10
REMARK    7  A    between atoms: C_11  and  C_12
REMARK                            x       y       z     vdW  Elec       q    Type
REMARK                         _______ _______ _______ _____ _____    ______ ____
ROOT
ATOM      1  C   LIG A   1      -8.452  -3.646 124.492  0.00  0.00    +0.001 C 
ATOM      2  C   LIG A   1      -9.186  -3.180 125.515  0.00  0.00    +0.008 C 
ENDROOT
BRANCH   2   3
ATOM      3  C   LIG A   1      -8.680  -2.812 126.841  0.00  0.00    -0.021 A 
ATOM      4  C   LIG A   1      -8.106  -1.550 127.036  0.00  0.00    +0.057 A 
ATOM      5  C   LIG A   1      -7.663  -1.231 128.303  0.00  0.00    +0.167 A 
ATOM      6  O   LIG A   1      -7.077  -0.059 128.668  0.00  0.00    -0.453 OA
ATOM      7  C   LIG A   1      -6.824  -0.306 130.066  0.00  0.00    +0.466 C 
ATOM      8  O   LIG A   1      -7.301  -1.591 130.517  0.00  0.00    -0.453 OA
ATOM      9  C   LIG A   1      -7.781  -2.108 129.355  0.00  0.00    +0.166 A 
ATOM     10  C   LIG A   1      -8.329  -3.362 129.196  0.00  0.00    +0.050 A 
ATOM     11  C   LIG A   1      -8.772  -3.721 127.918  0.00  0.00    +0.012 A 
ENDBRANCH   2   3
BRANCH   1  13
ATOM     12  C   LIG A   1      -6.079  -3.118 123.936  0.00  0.00    +0.067 C 
ATOM     13  C   LIG A   1      -7.024  -3.873 124.511  0.00  0.00    +0.005 C 
BRANCH  12  15
ATOM     14  O   LIG A   1      -6.144  -1.818 121.936  0.00  0.00    -0.271 OA
ATOM     15  C   LIG A   1      -6.322  -1.885 123.137  0.00  0.00    +0.237 C 
ATOM     16  N   LIG A   1      -6.760  -0.856 123.937  0.00  0.00    -0.312 N 
ATOM     17  H   LIG A   1      -6.861  -1.023 124.927  0.00  0.00    +0.149 HD
BRANCH  16  18
ATOM     18  C   LIG A   1      -7.018   0.481 123.425  0.00  0.00    +0.107 C 
BRANCH  18  19
ATOM     19  C   LIG A   1      -8.489   0.898 123.606  0.00  0.00    +0.000 C 
ATOM     20  C   LIG A   1      -8.766   2.250 122.945  0.00  0.00    +0.009 C 
ATOM     21  C   LIG A   1      -9.458  -0.145 123.042  0.00  0.00    +0.009 C 
ENDBRANCH  18  19
ENDBRANCH  16  18
ENDBRANCH  12  15
ENDBRANCH   1  13
TORSDOF 5
ENDMDL
MODEL 5
REMARK VINA RESULT:      -6.6      3.581      4.809
REMARK  Name = NuBBE_2090
REMARK  7 active torsions:
REMARK  status: ('A' for Active; 'I' for Inactive)
REMARK    1  A    between atoms: C_2  and  C_8
REMARK    2  A    between atoms: N_3  and  C_4
REMARK    3  A    between atoms: C_4  and  C_5
REMARK    4  A    between atoms: C_5  and  C_6
REMARK    5  A    between atoms: C_5  and  C_7
REMARK    6  A    between atoms: C_9  and  C_10
REMARK    7  A    between atoms: C_11  and  C_12
REMARK                            x       y       z     vdW  Elec       q    Type
REMARK                         _______ _______ _______ _____ _____    ______ ____
ROOT
ATOM      1  C   LIG A   1      -8.588   2.811 124.389  0.00  0.00    +0.001 C 
ATOM      2  C   LIG A   1      -8.249   2.402 123.156  0.00  0.00    +0.008 C 
ENDROOT
BRANCH   2   3
ATOM      3  C   LIG A   1      -7.403   3.132 122.207  0.00  0.00    -0.021 A 
ATOM      4  C   LIG A   1      -7.936   3.543 120.979  0.00  0.00    +0.057 A 
ATOM      5  C   LIG A   1      -7.117   4.248 120.123  0.00  0.00    +0.167 A 
ATOM      6  O   LIG A   1      -7.465   4.716 118.894  0.00  0.00    -0.453 OA
ATOM      7  C   LIG A   1      -6.231   5.337 118.480  0.00  0.00    +0.466 C 
ATOM      8  O   LIG A   1      -5.192   5.271 119.479  0.00  0.00    -0.453 OA
ATOM      9  C   LIG A   1      -5.817   4.556 120.452  0.00  0.00    +0.166 A 
ATOM     10  C   LIG A   1      -5.257   4.157 121.646  0.00  0.00    +0.050 A 
ATOM     11  C   LIG A   1      -6.060   3.425 122.528  0.00  0.00    +0.012 A 
ENDBRANCH   2   3
BRANCH   1  13
ATOM     12  C   LIG A   1      -7.218   4.222 125.923  0.00  0.00    +0.067 C 
ATOM     13  C   LIG A   1      -8.181   4.053 125.007  0.00  0.00    +0.005 C 
BRANCH  12  15
ATOM     14  O   LIG A   1      -6.811   2.263 127.223  0.00  0.00    -0.271 OA
ATOM     15  C   LIG A   1      -6.375   3.141 126.503  0.00  0.00    +0.237 C 
ATOM     16  N   LIG A   1      -5.061   3.278 126.120  0.00  0.00    -0.312 N 
ATOM     17  H   LIG A   1      -4.810   4.054 125.527  0.00  0.00    +0.149 HD
BRANCH  16  18
ATOM     18  C   LIG A   1      -4.009   2.391 126.592  0.00  0.00    +0.107 C 
BRANCH  18  19
ATOM     19  C   LIG A   1      -2.861   3.162 127.268  0.00  0.00    +0.000 C 
ATOM     20  C   LIG A   1      -1.549   2.986 126.500  0.00  0.00    +0.009 C 
ATOM     21  C   LIG A   1      -3.169   4.656 127.402  0.00  0.00    +0.009 C 
ENDBRANCH  18  19
ENDBRANCH  16  18
ENDBRANCH  12  15
ENDBRANCH   1  13
TORSDOF 5
ENDMDL
MODEL 6
REMARK VINA RESULT:      -6.6      8.618     10.195
REMARK  Name = NuBBE_2090
REMARK  7 active torsions:
REMARK  status: ('A' for Active; 'I' for Inactive)
REMARK    1  A    between atoms: C_2  and  C_8
REMARK    2  A    between atoms: N_3  and  C_4
REMARK    3  A    between atoms: C_4  and  C_5
REMARK    4  A    between atoms: C_5  and  C_6
REMARK    5  A    between atoms: C_5  and  C_7
REMARK    6  A    between atoms: C_9  and  C_10
REMARK    7  A    between atoms: C_11  and  C_12
REMARK                            x       y       z     vdW  Elec       q    Type
REMARK                         _______ _______ _______ _____ _____    ______ ____
ROOT
ATOM      1  C   LIG A   1      -9.291   4.290 132.894  0.00  0.00    +0.001 C 
ATOM      2  C   LIG A   1      -9.643   5.586 132.904  0.00  0.00    +0.008 C 
ENDROOT
BRANCH   2   3
ATOM      3  C   LIG A   1     -10.338   6.299 131.828  0.00  0.00    -0.021 A 
ATOM      4  C   LIG A   1      -9.602   6.823 130.758  0.00  0.00    +0.057 A 
ATOM      5  C   LIG A   1     -10.294   7.466 129.753  0.00  0.00    +0.167 A 
ATOM      6  O   LIG A   1      -9.743   8.038 128.648  0.00  0.00    -0.453 OA
ATOM      7  C   LIG A   1     -10.921   8.551 127.992  0.00  0.00    +0.466 C 
ATOM      8  O   LIG A   1     -12.146   8.239 128.686  0.00  0.00    -0.453 OA
ATOM      9  C   LIG A   1     -11.664   7.590 129.779  0.00  0.00    +0.166 A 
ATOM     10  C   LIG A   1     -12.417   7.098 130.823  0.00  0.00    +0.050 A 
ATOM     11  C   LIG A   1     -11.740   6.454 131.866  0.00  0.00    +0.012 A 
ENDBRANCH   2   3
BRANCH   1  13
ATOM     12  C   LIG A   1      -8.647   2.932 130.903  0.00  0.00    +0.067 C 
ATOM     13  C   LIG A   1      -9.531   3.359 131.814  0.00  0.00    +0.005 C 
BRANCH  12  15
ATOM     14  O   LIG A   1      -6.294   2.677 131.214  0.00  0.00    -0.271 OA
ATOM     15  C   LIG A   1      -7.222   3.355 130.815  0.00  0.00    +0.237 C 
ATOM     16  N   LIG A   1      -7.109   4.597 130.235  0.00  0.00    -0.312 N 
ATOM     17  H   LIG A   1      -7.951   5.075 129.950  0.00  0.00    +0.149 HD
BRANCH  16  18
ATOM     18  C   LIG A   1      -5.834   5.277 130.079  0.00  0.00    +0.107 C 
BRANCH  18  19
ATOM     19  C   LIG A   1      -5.744   6.547 130.944  0.00  0.00    +0.000 C 
ATOM     20  C   LIG A   1      -5.788   6.204 132.436  0.00  0.00    +0.009 C 
ATOM     21  C   LIG A   1      -4.478   7.357 130.652  0.00  0.00    +0.009 C 
ENDBRANCH  18  19
ENDBRANCH  16  18
ENDBRANCH  12  15
ENDBRANCH   1  13
TORSDOF 5
ENDMDL
MODEL 7
REMARK VINA RESULT:      -6.5      9.102     11.499
REMARK  Name = NuBBE_2090
REMARK  7 active torsions:
REMARK  status: ('A' for Active; 'I' for Inactive)
REMARK    1  A    between atoms: C_2  and  C_8
REMARK    2  A    between atoms: N_3  and  C_4
REMARK    3  A    between atoms: C_4  and  C_5
REMARK    4  A    between atoms: C_5  and  C_6
REMARK    5  A    between atoms: C_5  and  C_7
REMARK    6  A    between atoms: C_9  and  C_10
REMARK    7  A    between atoms: C_11  and  C_12
REMARK                            x       y       z     vdW  Elec       q    Type
REMARK                         _______ _______ _______ _____ _____    ______ ____
ROOT
ATOM      1  C   LIG A   1      -9.148   5.389 133.008  0.00  0.00    +0.001 C 
ATOM      2  C   LIG A   1      -9.295   4.208 133.630  0.00  0.00    +0.008 C 
ENDROOT
BRANCH   2   3
ATOM      3  C   LIG A   1      -8.885   2.901 133.106  0.00  0.00    -0.021 A 
ATOM      4  C   LIG A   1      -7.610   2.405 133.405  0.00  0.00    +0.057 A 
ATOM      5  C   LIG A   1      -7.271   1.162 132.914  0.00  0.00    +0.167 A 
ATOM      6  O   LIG A   1      -6.079   0.532 133.099  0.00  0.00    -0.453 OA
ATOM      7  C   LIG A   1      -6.299  -0.687 132.363  0.00  0.00    +0.466 C 
ATOM      8  O   LIG A   1      -7.621  -0.785 131.795  0.00  0.00    -0.453 OA
ATOM      9  C   LIG A   1      -8.146   0.414 132.162  0.00  0.00    +0.166 A 
ATOM     10  C   LIG A   1      -9.403   0.878 131.838  0.00  0.00    +0.050 A 
ATOM     11  C   LIG A   1      -9.770   2.144 132.308  0.00  0.00    +0.012 A 
ENDBRANCH   2   3
BRANCH   1  13
ATOM     12  C   LIG A   1      -9.205   5.680 130.531  0.00  0.00    +0.067 C 
ATOM     13  C   LIG A   1      -8.560   5.588 131.702  0.00  0.00    +0.005 C 
BRANCH  12  15
ATOM     14  O   LIG A   1     -11.257   4.532 130.120  0.00  0.00    -0.271 OA
ATOM     15  C   LIG A   1     -10.679   5.579 130.344  0.00  0.00    +0.237 C 
ATOM     16  N   LIG A   1     -11.278   6.813 130.454  0.00  0.00    -0.312 N 
ATOM     17  H   LIG A   1     -10.696   7.617 130.632  0.00  0.00    +0.149 HD
BRANCH  16  18
ATOM     18  C   LIG A   1     -12.704   7.013 130.256  0.00  0.00    +0.107 C 
BRANCH  18  19
ATOM     19  C   LIG A   1     -12.999   7.949 129.069  0.00  0.00    +0.000 C 
ATOM     20  C   LIG A   1     -11.715   8.595 128.543  0.00  0.00    +0.009 C 
ATOM     21  C   LIG A   1     -13.702   7.221 127.921  0.00  0.00    +0.009 C 
ENDBRANCH  18  19
ENDBRANCH  16  18
ENDBRANCH  12  15
ENDBRANCH   1  13
TORSDOF 5
ENDMDL
MODEL 8
REMARK VINA RESULT:      -6.5      8.064      9.787
REMARK  Name = NuBBE_2090
REMARK  7 active torsions:
REMARK  status: ('A' for Active; 'I' for Inactive)
REMARK    1  A    between atoms: C_2  and  C_8
REMARK    2  A    between atoms: N_3  and  C_4
REMARK    3  A    between atoms: C_4  and  C_5
REMARK    4  A    between atoms: C_5  and  C_6
REMARK    5  A    between atoms: C_5  and  C_7
REMARK    6  A    between atoms: C_9  and  C_10
REMARK    7  A    between atoms: C_11  and  C_12
REMARK                            x       y       z     vdW  Elec       q    Type
REMARK                         _______ _______ _______ _____ _____    ______ ____
ROOT
ATOM      1  C   LIG A   1      -7.034   5.239 131.531  0.00  0.00    +0.001 C 
ATOM      2  C   LIG A   1      -7.711   6.392 131.650  0.00  0.00    +0.008 C 
ENDROOT
BRANCH   2   3
ATOM      3  C   LIG A   1      -9.121   6.603 131.310  0.00  0.00    -0.021 A 
ATOM      4  C   LIG A   1      -9.456   7.208 130.092  0.00  0.00    +0.057 A 
ATOM      5  C   LIG A   1     -10.793   7.368 129.797  0.00  0.00    +0.167 A 
ATOM      6  O   LIG A   1     -11.297   7.938 128.669  0.00  0.00    -0.453 OA
ATOM      7  C   LIG A   1     -12.713   7.841 128.924  0.00  0.00    +0.466 C 
ATOM      8  O   LIG A   1     -13.028   7.179 130.166  0.00  0.00    -0.453 OA
ATOM      9  C   LIG A   1     -11.782   6.944 130.655  0.00  0.00    +0.166 A 
ATOM     10  C   LIG A   1     -11.487   6.357 131.866  0.00  0.00    +0.050 A 
ATOM     11  C   LIG A   1     -10.138   6.197 132.201  0.00  0.00    +0.012 A 
ENDBRANCH   2   3
BRANCH   1  13
ATOM     12  C   LIG A   1      -7.457   3.488 129.806  0.00  0.00    +0.067 C 
ATOM     13  C   LIG A   1      -7.574   3.990 131.042  0.00  0.00    +0.005 C 
BRANCH  12  15
ATOM     14  O   LIG A   1      -7.286   4.898 127.888  0.00  0.00    -0.271 OA
ATOM     15  C   LIG A   1      -6.746   4.139 128.671  0.00  0.00    +0.237 C 
ATOM     16  N   LIG A   1      -5.424   3.763 128.633  0.00  0.00    -0.312 N 
ATOM     17  H   LIG A   1      -5.086   3.116 129.330  0.00  0.00    +0.149 HD
BRANCH  16  18
ATOM     18  C   LIG A   1      -4.512   4.204 127.591  0.00  0.00    +0.107 C 
BRANCH  18  19
ATOM     19  C   LIG A   1      -3.047   4.210 128.066  0.00  0.00    +0.000 C 
ATOM     20  C   LIG A   1      -2.157   3.393 127.126  0.00  0.00    +0.009 C 
ATOM     21  C   LIG A   1      -2.484   5.629 128.184  0.00  0.00    +0.009 C 
ENDBRANCH  18  19
ENDBRANCH  16  18
ENDBRANCH  12  15
ENDBRANCH   1  13
TORSDOF 5
ENDMDL
MODEL 9
REMARK VINA RESULT:      -6.4      2.350      3.437
REMARK  Name = NuBBE_2090
REMARK  7 active torsions:
REMARK  status: ('A' for Active; 'I' for Inactive)
REMARK    1  A    between atoms: C_2  and  C_8
REMARK    2  A    between atoms: N_3  and  C_4
REMARK    3  A    between atoms: C_4  and  C_5
REMARK    4  A    between atoms: C_5  and  C_6
REMARK    5  A    between atoms: C_5  and  C_7
REMARK    6  A    between atoms: C_9  and  C_10
REMARK    7  A    between atoms: C_11  and  C_12
REMARK                            x       y       z     vdW  Elec       q    Type
REMARK                         _______ _______ _______ _____ _____    ______ ____
ROOT
ATOM      1  C   LIG A   1      -5.896   2.010 126.740  0.00  0.00    +0.001 C 
ATOM      2  C   LIG A   1      -6.517   3.000 126.079  0.00  0.00    +0.008 C 
ENDROOT
BRANCH   2   3
ATOM      3  C   LIG A   1      -6.520   3.197 124.626  0.00  0.00    -0.021 A 
ATOM      4  C   LIG A   1      -5.580   4.055 124.043  0.00  0.00    +0.057 A 
ATOM      5  C   LIG A   1      -5.600   4.196 122.671  0.00  0.00    +0.167 A 
ATOM      6  O   LIG A   1      -4.769   4.989 121.941  0.00  0.00    -0.453 OA
ATOM      7  C   LIG A   1      -5.261   4.744 120.608  0.00  0.00    +0.466 C 
ATOM      8  O   LIG A   1      -6.336   3.783 120.561  0.00  0.00    -0.453 OA
ATOM      9  C   LIG A   1      -6.500   3.517 121.884  0.00  0.00    +0.166 A 
ATOM     10  C   LIG A   1      -7.446   2.675 122.426  0.00  0.00    +0.050 A 
ATOM     11  C   LIG A   1      -7.462   2.524 123.818  0.00  0.00    +0.012 A 
ENDBRANCH   2   3
BRANCH   1  13
ATOM     12  C   LIG A   1      -5.462  -0.328 125.989  0.00  0.00    +0.067 C 
ATOM     13  C   LIG A   1      -5.111   0.956 126.138  0.00  0.00    +0.005 C 
BRANCH  12  15
ATOM     14  O   LIG A   1      -7.010  -1.161 127.604  0.00  0.00    -0.271 OA
ATOM     15  C   LIG A   1      -6.747  -0.932 126.439  0.00  0.00    +0.237 C 
ATOM     16  N   LIG A   1      -7.572  -1.193 125.369  0.00  0.00    -0.312 N 
ATOM     17  H   LIG A   1      -7.244  -0.971 124.442  0.00  0.00    +0.149 HD
BRANCH  16  18
ATOM     18  C   LIG A   1      -8.867  -1.838 125.516  0.00  0.00    +0.107 C 
BRANCH  18  19
ATOM     19  C   LIG A   1      -8.957  -3.148 124.712  0.00  0.00    +0.000 C 
ATOM     20  C   LIG A   1      -9.469  -2.891 123.292  0.00  0.00    +0.009 C 
ATOM     21  C   LIG A   1      -7.610  -3.873 124.637  0.00  0.00    +0.009 C 
ENDBRANCH  18  19
ENDBRANCH  16  18
ENDBRANCH  12  15
ENDBRANCH   1  13
TORSDOF 5
ENDMDL
