MODEL 1
REMARK VINA RESULT:      -8.5      0.000      0.000
REMARK  Name = NuBBE_544
REMARK  20 active torsions:
REMARK  status: ('A' for Active; 'I' for Inactive)
REMARK    1  A    between atoms: C_1  and  C_2
REMARK    2  A    between atoms: C_2  and  C_59
REMARK    3  A    between atoms: C_5  and  C_40
REMARK    4  A    between atoms: C_8  and  C_39
REMARK    5  A    between atoms: C_9  and  C_38
REMARK    6  A    between atoms: C_14  and  C_15
REMARK    7  A    between atoms: C_14  and  C_36
REMARK    8  A    between atoms: C_15  and  O_16
REMARK    9  A    between atoms: C_17  and  O_35
REMARK   10  A    between atoms: C_19  and  O_34
REMARK   11  A    between atoms: C_22  and  C_33
REMARK   12  A    between atoms: C_30  and  O_32
REMARK   13  A    between atoms: C_36  and  O_37
REMARK   14  A    between atoms: C_40  and  O_41
REMARK   15  A    between atoms: O_41  and  C_42
REMARK   16  A    between atoms: C_45  and  C_53
REMARK   17  A    between atoms: C_47  and  O_52
REMARK   18  A    between atoms: C_49  and  O_51
REMARK   19  A    between atoms: C_53  and  O_54
REMARK   20  A    between atoms: C_55  and  O_57
REMARK                            x       y       z     vdW  Elec       q    Type
REMARK                         _______ _______ _______ _____ _____    ______ ____
ROOT
ATOM      1  C   LIG A   1      -4.892   3.994 125.437  0.00  0.00    +0.013 C 
ATOM      2  C   LIG A   1      -4.407   3.395 126.786  0.00  0.00    -0.008 C 
ATOM      3  C   LIG A   1      -5.588   2.593 127.377  0.00  0.00    +0.010 C 
ATOM      4  C   LIG A   1      -5.370   2.155 128.822  0.00  0.00    +0.019 C 
ATOM      5  C   LIG A   1      -5.109   3.330 129.793  0.00  0.00    +0.077 C 
ATOM      6  C   LIG A   1      -4.796   2.728 131.170  0.00  0.00    +0.019 C 
ATOM      7  C   LIG A   1      -4.572   3.826 132.193  0.00  0.00    +0.012 C 
ATOM      8  C   LIG A   1      -3.411   4.815 131.870  0.00  0.00    -0.005 C 
ATOM      9  C   LIG A   1      -3.679   6.252 132.562  0.00  0.00    -0.019 C 
ATOM     10  C   LIG A   1      -4.182   6.062 134.032  0.00  0.00    +0.008 C 
ATOM     11  C   LIG A   1      -3.296   6.565 135.136  0.00  0.00    +0.005 C 
ATOM     12  C   LIG A   1      -2.801   7.965 134.786  0.00  0.00    +0.008 C 
ATOM     13  C   LIG A   1      -2.513   8.861 136.052  0.00  0.00    +0.049 C 
ATOM     14  C   LIG A   1      -1.820  10.178 135.601  0.00  0.00    +0.154 C 
ATOM     15  C   LIG A   1      -0.662   9.969 134.618  0.00  0.00    +0.144 C 
ATOM     16  C   LIG A   1      -1.132   9.240 133.357  0.00  0.00    +0.041 C 
ATOM     17  C   LIG A   1      -1.712   7.825 133.645  0.00  0.00    -0.022 C 
ATOM     18  C   LIG A   1      -2.464   7.270 132.342  0.00  0.00    +0.006 C 
ATOM     19  C   LIG A   1      -1.615   6.936 131.062  0.00  0.00    +0.031 C 
ATOM     20  C   LIG A   1      -2.250   5.982 130.053  0.00  0.00    -0.026 C 
ATOM     21  C   LIG A   1      -3.162   5.031 130.359  0.00  0.00    -0.060 C 
ATOM     22  C   LIG A   1      -3.804   4.064 129.306  0.00  0.00    +0.061 C 
ATOM     23  C   LIG A   1      -3.916   4.515 127.786  0.00  0.00    +0.128 C 
ATOM     24  C   LIG A   1      -0.520   6.908 134.003  0.00  0.00    +0.012 C 
ATOM     25  C   LIG A   1      -4.887   6.973 131.836  0.00  0.00    +0.012 C 
ATOM     26  C   LIG A   1      -2.150   4.118 132.474  0.00  0.00    +0.016 C 
ATOM     27  C   LIG A   1      -3.239   2.439 126.444  0.00  0.00    +0.013 C 
ENDROOT
BRANCH  23  28
ATOM     28  O   LIG A   1      -4.742   5.667 127.648  0.00  0.00    -0.391 OA
ATOM     29  H   LIG A   1      -4.174   6.454 127.524  0.00  0.00    +0.210 HD
ENDBRANCH  23  28
BRANCH  15  30
ATOM     30  O   LIG A   1      -0.157  11.255 134.236  0.00  0.00    -0.389 OA
ATOM     31  H   LIG A   1      -0.116  11.225 133.258  0.00  0.00    +0.210 HD
ENDBRANCH  15  30
BRANCH  14  32
ATOM     32  O   LIG A   1      -1.340  10.990 136.685  0.00  0.00    -0.389 OA
ATOM     33  H   LIG A   1      -0.357  10.974 136.659  0.00  0.00    +0.210 HD
ENDBRANCH  14  32
BRANCH   5  34
ATOM     34  C   LIG A   1      -6.417   4.189 129.899  0.00  0.00    +0.316 C 
ATOM     35  O   LIG A   1      -6.758   5.030 129.108  0.00  0.00    -0.250 OA
BRANCH  34  36
ATOM     36  O   LIG A   1      -7.189   3.787 130.967  0.00  0.00    -0.432 OA
BRANCH  36  37
ATOM     37  C   LIG A   1      -8.551   3.345 130.733  0.00  0.00    +0.342 C 
ATOM     38  O   LIG A   1      -9.304   4.442 130.153  0.00  0.00    -0.331 OA
ATOM     39  C   LIG A   1      -9.805   5.437 131.069  0.00  0.00    +0.179 C 
ATOM     40  C   LIG A   1      -9.131   5.362 132.440  0.00  0.00    +0.177 C 
ATOM     41  C   LIG A   1      -9.322   3.974 133.054  0.00  0.00    +0.180 C 
ATOM     42  C   LIG A   1      -9.200   2.834 132.036  0.00  0.00    +0.214 C 
BRANCH  41  43
ATOM     43  O   LIG A   1      -8.319   3.837 134.074  0.00  0.00    -0.386 OA
ATOM     44  H   LIG A   1      -8.825   3.660 134.894  0.00  0.00    +0.210 HD
ENDBRANCH  41  43
BRANCH  40  45
ATOM     45  O   LIG A   1      -9.574   6.318 133.409  0.00  0.00    -0.387 OA
ATOM     46  H   LIG A   1      -8.915   7.046 133.406  0.00  0.00    +0.210 HD
ENDBRANCH  40  45
BRANCH  42  47
ATOM     47  O   LIG A   1     -10.495   2.261 131.798  0.00  0.00    -0.383 OA
ATOM     48  H   LIG A   1     -11.105   3.020 131.714  0.00  0.00    +0.210 HD
ENDBRANCH  42  47
BRANCH  39  49
ATOM     49  C   LIG A   1      -9.572   6.817 130.429  0.00  0.00    +0.190 C 
BRANCH  49  50
ATOM     50  O   LIG A   1      -8.226   7.259 130.586  0.00  0.00    -0.392 OA
ATOM     51  H   LIG A   1      -7.664   6.613 130.120  0.00  0.00    +0.209 HD
ENDBRANCH  49  50
ENDBRANCH  39  49
ENDBRANCH  36  37
ENDBRANCH  34  36
ENDBRANCH   5  34
BRANCH  13  52
ATOM     52  C   LIG A   1      -3.871   9.322 136.710  0.00  0.00    +0.167 C 
BRANCH  52  53
ATOM     53  O   LIG A   1      -3.890  10.699 137.062  0.00  0.00    -0.394 OA
ATOM     54  H   LIG A   1      -4.769  10.896 137.432  0.00  0.00    +0.209 HD
ENDBRANCH  52  53
ENDBRANCH  13  52
BRANCH  13  55
ATOM     55  C   LIG A   1      -1.715   8.086 137.125  0.00  0.00    +0.167 C 
BRANCH  55  56
ATOM     56  O   LIG A   1      -1.894   8.664 138.420  0.00  0.00    -0.394 OA
ATOM     57  H   LIG A   1      -2.642   9.284 138.340  0.00  0.00    +0.209 HD
ENDBRANCH  55  56
ENDBRANCH  13  55
TORSDOF 15
ENDMDL
MODEL 2
REMARK VINA RESULT:      -8.3      6.364      9.408
REMARK  Name = NuBBE_544
REMARK  20 active torsions:
REMARK  status: ('A' for Active; 'I' for Inactive)
REMARK    1  A    between atoms: C_1  and  C_2
REMARK    2  A    between atoms: C_2  and  C_59
REMARK    3  A    between atoms: C_5  and  C_40
REMARK    4  A    between atoms: C_8  and  C_39
REMARK    5  A    between atoms: C_9  and  C_38
REMARK    6  A    between atoms: C_14  and  C_15
REMARK    7  A    between atoms: C_14  and  C_36
REMARK    8  A    between atoms: C_15  and  O_16
REMARK    9  A    between atoms: C_17  and  O_35
REMARK   10  A    between atoms: C_19  and  O_34
REMARK   11  A    between atoms: C_22  and  C_33
REMARK   12  A    between atoms: C_30  and  O_32
REMARK   13  A    between atoms: C_36  and  O_37
REMARK   14  A    between atoms: C_40  and  O_41
REMARK   15  A    between atoms: O_41  and  C_42
REMARK   16  A    between atoms: C_45  and  C_53
REMARK   17  A    between atoms: C_47  and  O_52
REMARK   18  A    between atoms: C_49  and  O_51
REMARK   19  A    between atoms: C_53  and  O_54
REMARK   20  A    between atoms: C_55  and  O_57
REMARK                            x       y       z     vdW  Elec       q    Type
REMARK                         _______ _______ _______ _____ _____    ______ ____
ROOT
ATOM      1  C   LIG A   1      -7.894  -2.601 124.188  0.00  0.00    +0.013 C 
ATOM      2  C   LIG A   1      -8.315  -2.105 125.598  0.00  0.00    -0.008 C 
ATOM      3  C   LIG A   1      -8.303  -0.560 125.558  0.00  0.00    +0.010 C 
ATOM      4  C   LIG A   1      -8.440   0.090 126.931  0.00  0.00    +0.019 C 
ATOM      5  C   LIG A   1      -7.335  -0.330 127.928  0.00  0.00    +0.077 C 
ATOM      6  C   LIG A   1      -7.671   0.308 129.284  0.00  0.00    +0.019 C 
ATOM      7  C   LIG A   1      -6.602  -0.024 130.308  0.00  0.00    +0.012 C 
ATOM      8  C   LIG A   1      -6.382  -1.543 130.579  0.00  0.00    -0.005 C 
ATOM      9  C   LIG A   1      -4.871  -1.817 131.085  0.00  0.00    -0.019 C 
ATOM     10  C   LIG A   1      -4.451  -0.747 132.148  0.00  0.00    +0.008 C 
ATOM     11  C   LIG A   1      -4.181  -1.228 133.545  0.00  0.00    +0.005 C 
ATOM     12  C   LIG A   1      -3.304  -2.476 133.486  0.00  0.00    +0.008 C 
ATOM     13  C   LIG A   1      -2.380  -2.650 134.753  0.00  0.00    +0.049 C 
ATOM     14  C   LIG A   1      -1.691  -4.043 134.696  0.00  0.00    +0.154 C 
ATOM     15  C   LIG A   1      -2.644  -5.198 134.364  0.00  0.00    +0.144 C 
ATOM     16  C   LIG A   1      -3.339  -4.972 133.020  0.00  0.00    +0.041 C 
ATOM     17  C   LIG A   1      -4.203  -3.679 132.984  0.00  0.00    -0.022 C 
ATOM     18  C   LIG A   1      -4.628  -3.350 131.473  0.00  0.00    +0.006 C 
ATOM     19  C   LIG A   1      -5.611  -4.328 130.733  0.00  0.00    +0.031 C 
ATOM     20  C   LIG A   1      -6.361  -3.759 129.531  0.00  0.00    -0.026 C 
ATOM     21  C   LIG A   1      -6.670  -2.453 129.361  0.00  0.00    -0.060 C 
ATOM     22  C   LIG A   1      -7.438  -1.890 128.117  0.00  0.00    +0.061 C 
ATOM     23  C   LIG A   1      -7.358  -2.657 126.727  0.00  0.00    +0.128 C 
ATOM     24  C   LIG A   1      -5.459  -3.945 133.844  0.00  0.00    +0.012 C 
ATOM     25  C   LIG A   1      -3.860  -1.584 129.890  0.00  0.00    +0.012 C 
ATOM     26  C   LIG A   1      -7.427  -1.877 131.691  0.00  0.00    +0.016 C 
ATOM     27  C   LIG A   1      -9.758  -2.616 125.828  0.00  0.00    +0.013 C 
ENDROOT
BRANCH  23  28
ATOM     28  O   LIG A   1      -6.022  -2.698 126.236  0.00  0.00    -0.391 OA
ATOM     29  H   LIG A   1      -5.796  -1.827 125.852  0.00  0.00    +0.210 HD
ENDBRANCH  23  28
BRANCH  15  30
ATOM     30  O   LIG A   1      -1.876  -6.405 134.281  0.00  0.00    -0.389 OA
ATOM     31  H   LIG A   1      -2.456  -7.095 134.666  0.00  0.00    +0.210 HD
ENDBRANCH  15  30
BRANCH  14  32
ATOM     32  O   LIG A   1      -0.971  -4.391 135.890  0.00  0.00    -0.389 OA
ATOM     33  H   LIG A   1      -0.544  -5.265 135.740  0.00  0.00    +0.210 HD
ENDBRANCH  14  32
BRANCH   5  34
ATOM     34  C   LIG A   1      -5.964   0.242 127.423  0.00  0.00    +0.316 C 
ATOM     35  O   LIG A   1      -4.978  -0.415 127.210  0.00  0.00    -0.250 OA
BRANCH  34  36
ATOM     36  O   LIG A   1      -6.059   1.589 127.153  0.00  0.00    -0.432 OA
BRANCH  36  37
ATOM     37  C   LIG A   1      -5.596   2.091 125.873  0.00  0.00    +0.342 C 
ATOM     38  O   LIG A   1      -4.177   2.384 125.973  0.00  0.00    -0.331 OA
ATOM     39  C   LIG A   1      -3.819   3.645 126.575  0.00  0.00    +0.179 C 
ATOM     40  C   LIG A   1      -4.980   4.276 127.344  0.00  0.00    +0.177 C 
ATOM     41  C   LIG A   1      -6.182   4.485 126.420  0.00  0.00    +0.180 C 
ATOM     42  C   LIG A   1      -6.404   3.330 125.436  0.00  0.00    +0.214 C 
BRANCH  41  43
ATOM     43  O   LIG A   1      -7.329   4.639 127.271  0.00  0.00    -0.386 OA
ATOM     44  H   LIG A   1      -7.989   5.101 126.713  0.00  0.00    +0.210 HD
ENDBRANCH  41  43
BRANCH  40  45
ATOM     45  O   LIG A   1      -4.705   5.533 127.972  0.00  0.00    -0.387 OA
ATOM     46  H   LIG A   1      -5.484   5.742 128.532  0.00  0.00    +0.210 HD
ENDBRANCH  40  45
BRANCH  42  47
ATOM     47  O   LIG A   1      -6.056   3.755 124.110  0.00  0.00    -0.383 OA
ATOM     48  H   LIG A   1      -5.163   3.393 123.945  0.00  0.00    +0.210 HD
ENDBRANCH  42  47
BRANCH  39  49
ATOM     49  C   LIG A   1      -2.627   3.389 127.513  0.00  0.00    +0.190 C 
BRANCH  49  50
ATOM     50  O   LIG A   1      -1.679   2.490 126.940  0.00  0.00    -0.392 OA
ATOM     51  H   LIG A   1      -2.117   2.073 126.176  0.00  0.00    +0.209 HD
ENDBRANCH  49  50
ENDBRANCH  39  49
ENDBRANCH  36  37
ENDBRANCH  34  36
ENDBRANCH   5  34
BRANCH  13  52
ATOM     52  C   LIG A   1      -1.196  -1.609 134.707  0.00  0.00    +0.167 C 
BRANCH  52  53
ATOM     53  O   LIG A   1      -0.019  -2.118 134.093  0.00  0.00    -0.394 OA
ATOM     54  H   LIG A   1      -0.019  -1.824 133.165  0.00  0.00    +0.209 HD
ENDBRANCH  52  53
ENDBRANCH  13  52
BRANCH  13  55
ATOM     55  C   LIG A   1      -3.163  -2.408 136.063  0.00  0.00    +0.167 C 
BRANCH  55  56
ATOM     56  O   LIG A   1      -2.283  -2.061 137.134  0.00  0.00    -0.394 OA
ATOM     57  H   LIG A   1      -1.686  -2.823 137.254  0.00  0.00    +0.209 HD
ENDBRANCH  55  56
ENDBRANCH  13  55
TORSDOF 15
ENDMDL
MODEL 3
REMARK VINA RESULT:      -8.3      5.072     10.811
REMARK  Name = NuBBE_544
REMARK  20 active torsions:
REMARK  status: ('A' for Active; 'I' for Inactive)
REMARK    1  A    between atoms: C_1  and  C_2
REMARK    2  A    between atoms: C_2  and  C_59
REMARK    3  A    between atoms: C_5  and  C_40
REMARK    4  A    between atoms: C_8  and  C_39
REMARK    5  A    between atoms: C_9  and  C_38
REMARK    6  A    between atoms: C_14  and  C_15
REMARK    7  A    between atoms: C_14  and  C_36
REMARK    8  A    between atoms: C_15  and  O_16
REMARK    9  A    between atoms: C_17  and  O_35
REMARK   10  A    between atoms: C_19  and  O_34
REMARK   11  A    between atoms: C_22  and  C_33
REMARK   12  A    between atoms: C_30  and  O_32
REMARK   13  A    between atoms: C_36  and  O_37
REMARK   14  A    between atoms: C_40  and  O_41
REMARK   15  A    between atoms: O_41  and  C_42
REMARK   16  A    between atoms: C_45  and  C_53
REMARK   17  A    between atoms: C_47  and  O_52
REMARK   18  A    between atoms: C_49  and  O_51
REMARK   19  A    between atoms: C_53  and  O_54
REMARK   20  A    between atoms: C_55  and  O_57
REMARK                            x       y       z     vdW  Elec       q    Type
REMARK                         _______ _______ _______ _____ _____    ______ ____
ROOT
ATOM      1  C   LIG A   1      -6.554  -4.829 135.649  0.00  0.00    +0.013 C 
ATOM      2  C   LIG A   1      -5.573  -4.205 134.619  0.00  0.00    -0.008 C 
ATOM      3  C   LIG A   1      -5.065  -2.877 135.224  0.00  0.00    +0.010 C 
ATOM      4  C   LIG A   1      -4.295  -2.008 134.235  0.00  0.00    +0.019 C 
ATOM      5  C   LIG A   1      -5.109  -1.632 132.976  0.00  0.00    +0.077 C 
ATOM      6  C   LIG A   1      -4.171  -0.864 132.034  0.00  0.00    +0.019 C 
ATOM      7  C   LIG A   1      -4.915  -0.420 130.788  0.00  0.00    +0.012 C 
ATOM      8  C   LIG A   1      -5.547  -1.565 129.941  0.00  0.00    -0.005 C 
ATOM      9  C   LIG A   1      -6.823  -1.021 129.111  0.00  0.00    -0.019 C 
ATOM     10  C   LIG A   1      -6.498   0.366 128.462  0.00  0.00    +0.008 C 
ATOM     11  C   LIG A   1      -6.470   0.438 126.962  0.00  0.00    +0.005 C 
ATOM     12  C   LIG A   1      -7.694  -0.279 126.401  0.00  0.00    +0.008 C 
ATOM     13  C   LIG A   1      -8.180   0.304 125.017  0.00  0.00    +0.049 C 
ATOM     14  C   LIG A   1      -9.287  -0.620 124.433  0.00  0.00    +0.154 C 
ATOM     15  C   LIG A   1      -8.941  -2.114 124.478  0.00  0.00    +0.144 C 
ATOM     16  C   LIG A   1      -8.666  -2.575 125.911  0.00  0.00    +0.041 C 
ATOM     17  C   LIG A   1      -7.466  -1.837 126.574  0.00  0.00    -0.022 C 
ATOM     18  C   LIG A   1      -7.446  -2.137 128.148  0.00  0.00    +0.006 C 
ATOM     19  C   LIG A   1      -7.140  -3.600 128.636  0.00  0.00    +0.031 C 
ATOM     20  C   LIG A   1      -6.653  -3.750 130.076  0.00  0.00    -0.026 C 
ATOM     21  C   LIG A   1      -5.983  -2.799 130.767  0.00  0.00    -0.060 C 
ATOM     22  C   LIG A   1      -5.495  -2.973 132.246  0.00  0.00    +0.061 C 
ATOM     23  C   LIG A   1      -6.260  -3.971 133.217  0.00  0.00    +0.128 C 
ATOM     24  C   LIG A   1      -6.177  -2.375 125.912  0.00  0.00    +0.012 C 
ATOM     25  C   LIG A   1      -8.011  -0.705 130.109  0.00  0.00    +0.012 C 
ATOM     26  C   LIG A   1      -4.391  -2.005 128.987  0.00  0.00    +0.016 C 
ATOM     27  C   LIG A   1      -4.398  -5.203 134.476  0.00  0.00    +0.013 C 
ENDROOT
BRANCH  23  28
ATOM     28  O   LIG A   1      -7.611  -3.566 133.414  0.00  0.00    -0.391 OA
ATOM     29  H   LIG A   1      -7.794  -3.523 134.374  0.00  0.00    +0.210 HD
ENDBRANCH  23  28
BRANCH  15  30
ATOM     30  O   LIG A   1     -10.063  -2.850 123.973  0.00  0.00    -0.389 OA
ATOM     31  H   LIG A   1     -10.507  -3.204 124.771  0.00  0.00    +0.210 HD
ENDBRANCH  15  30
BRANCH  14  32
ATOM     32  O   LIG A   1      -9.674  -0.294 123.088  0.00  0.00    -0.389 OA
ATOM     33  H   LIG A   1      -9.564  -1.104 122.540  0.00  0.00    +0.210 HD
ENDBRANCH  14  32
BRANCH   5  34
ATOM     34  C   LIG A   1      -6.284  -0.686 133.405  0.00  0.00    +0.316 C 
ATOM     35  O   LIG A   1      -7.188  -0.996 134.136  0.00  0.00    -0.250 OA
BRANCH  34  36
ATOM     36  O   LIG A   1      -6.098   0.589 132.919  0.00  0.00    -0.432 OA
BRANCH  36  37
ATOM     37  C   LIG A   1      -6.419   1.725 133.761  0.00  0.00    +0.342 C 
ATOM     38  O   LIG A   1      -7.859   1.919 133.752  0.00  0.00    -0.331 OA
ATOM     39  C   LIG A   1      -8.407   2.627 132.621  0.00  0.00    +0.179 C 
ATOM     40  C   LIG A   1      -7.425   2.711 131.451  0.00  0.00    +0.177 C 
ATOM     41  C   LIG A   1      -6.129   3.396 131.891  0.00  0.00    +0.180 C 
ATOM     42  C   LIG A   1      -5.670   2.991 133.296  0.00  0.00    +0.214 C 
BRANCH  41  43
ATOM     43  O   LIG A   1      -5.131   3.040 130.921  0.00  0.00    -0.386 OA
ATOM     44  H   LIG A   1      -5.179   2.063 130.865  0.00  0.00    +0.210 HD
ENDBRANCH  41  43
BRANCH  40  45
ATOM     45  O   LIG A   1      -7.895   3.400 130.288  0.00  0.00    -0.387 OA
ATOM     46  H   LIG A   1      -8.394   4.182 130.609  0.00  0.00    +0.210 HD
ENDBRANCH  40  45
BRANCH  42  47
ATOM     47  O   LIG A   1      -5.866   4.089 134.201  0.00  0.00    -0.383 OA
ATOM     48  H   LIG A   1      -5.470   3.805 135.047  0.00  0.00    +0.210 HD
ENDBRANCH  42  47
BRANCH  39  49
ATOM     49  C   LIG A   1      -9.692   1.895 132.195  0.00  0.00    +0.190 C 
BRANCH  49  50
ATOM     50  O   LIG A   1     -10.557   2.734 131.433  0.00  0.00    -0.392 OA
ATOM     51  H   LIG A   1     -10.123   3.605 131.378  0.00  0.00    +0.209 HD
ENDBRANCH  49  50
ENDBRANCH  39  49
ENDBRANCH  36  37
ENDBRANCH  34  36
ENDBRANCH   5  34
BRANCH  13  52
ATOM     52  C   LIG A   1      -8.886   1.696 125.234  0.00  0.00    +0.167 C 
BRANCH  52  53
ATOM     53  O   LIG A   1     -10.128   1.814 124.552  0.00  0.00    -0.394 OA
ATOM     54  H   LIG A   1     -10.599   0.968 124.650  0.00  0.00    +0.209 HD
ENDBRANCH  52  53
ENDBRANCH  13  52
BRANCH  13  55
ATOM     55  C   LIG A   1      -6.996   0.526 124.049  0.00  0.00    +0.167 C 
BRANCH  55  56
ATOM     56  O   LIG A   1      -7.248   1.623 123.168  0.00  0.00    -0.394 OA
ATOM     57  H   LIG A   1      -8.167   1.519 122.860  0.00  0.00    +0.209 HD
ENDBRANCH  55  56
ENDBRANCH  13  55
TORSDOF 15
ENDMDL
MODEL 4
REMARK VINA RESULT:      -8.2      6.289      9.186
REMARK  Name = NuBBE_544
REMARK  20 active torsions:
REMARK  status: ('A' for Active; 'I' for Inactive)
REMARK    1  A    between atoms: C_1  and  C_2
REMARK    2  A    between atoms: C_2  and  C_59
REMARK    3  A    between atoms: C_5  and  C_40
REMARK    4  A    between atoms: C_8  and  C_39
REMARK    5  A    between atoms: C_9  and  C_38
REMARK    6  A    between atoms: C_14  and  C_15
REMARK    7  A    between atoms: C_14  and  C_36
REMARK    8  A    between atoms: C_15  and  O_16
REMARK    9  A    between atoms: C_17  and  O_35
REMARK   10  A    between atoms: C_19  and  O_34
REMARK   11  A    between atoms: C_22  and  C_33
REMARK   12  A    between atoms: C_30  and  O_32
REMARK   13  A    between atoms: C_36  and  O_37
REMARK   14  A    between atoms: C_40  and  O_41
REMARK   15  A    between atoms: O_41  and  C_42
REMARK   16  A    between atoms: C_45  and  C_53
REMARK   17  A    between atoms: C_47  and  O_52
REMARK   18  A    between atoms: C_49  and  O_51
REMARK   19  A    between atoms: C_53  and  O_54
REMARK   20  A    between atoms: C_55  and  O_57
REMARK                            x       y       z     vdW  Elec       q    Type
REMARK                         _______ _______ _______ _____ _____    ______ ____
ROOT
ATOM      1  C   LIG A   1      -8.138  -2.945 124.166  0.00  0.00    +0.013 C 
ATOM      2  C   LIG A   1      -8.531  -2.382 125.560  0.00  0.00    -0.008 C 
ATOM      3  C   LIG A   1      -8.542  -0.841 125.441  0.00  0.00    +0.010 C 
ATOM      4  C   LIG A   1      -8.653  -0.123 126.782  0.00  0.00    +0.019 C 
ATOM      5  C   LIG A   1      -7.518  -0.478 127.770  0.00  0.00    +0.077 C 
ATOM      6  C   LIG A   1      -7.830   0.225 129.100  0.00  0.00    +0.019 C 
ATOM      7  C   LIG A   1      -6.732  -0.041 130.112  0.00  0.00    +0.012 C 
ATOM      8  C   LIG A   1      -6.484  -1.541 130.455  0.00  0.00    -0.005 C 
ATOM      9  C   LIG A   1      -4.958  -1.771 130.937  0.00  0.00    -0.019 C 
ATOM     10  C   LIG A   1      -4.527  -0.642 131.932  0.00  0.00    +0.008 C 
ATOM     11  C   LIG A   1      -4.216  -1.048 133.345  0.00  0.00    +0.005 C 
ATOM     12  C   LIG A   1      -3.324  -2.286 133.327  0.00  0.00    +0.008 C 
ATOM     13  C   LIG A   1      -2.366  -2.384 134.578  0.00  0.00    +0.049 C 
ATOM     14  C   LIG A   1      -1.660  -3.769 134.574  0.00  0.00    +0.154 C 
ATOM     15  C   LIG A   1      -2.605  -4.951 134.326  0.00  0.00    +0.144 C 
ATOM     16  C   LIG A   1      -3.336  -4.804 132.990  0.00  0.00    +0.041 C 
ATOM     17  C   LIG A   1      -4.218  -3.524 132.910  0.00  0.00    -0.022 C 
ATOM     18  C   LIG A   1      -4.685  -3.279 131.395  0.00  0.00    +0.006 C 
ATOM     19  C   LIG A   1      -5.672  -4.306 130.731  0.00  0.00    +0.031 C 
ATOM     20  C   LIG A   1      -6.459  -3.808 129.521  0.00  0.00    -0.026 C 
ATOM     21  C   LIG A   1      -6.790  -2.516 129.293  0.00  0.00    -0.060 C 
ATOM     22  C   LIG A   1      -7.596  -2.027 128.041  0.00  0.00    +0.061 C 
ATOM     23  C   LIG A   1      -7.539  -2.863 126.691  0.00  0.00    +0.128 C 
ATOM     24  C   LIG A   1      -5.449  -3.762 133.814  0.00  0.00    +0.012 C 
ATOM     25  C   LIG A   1      -3.980  -1.586 129.705  0.00  0.00    +0.012 C 
ATOM     26  C   LIG A   1      -7.497  -1.831 131.609  0.00  0.00    +0.016 C 
ATOM     27  C   LIG A   1      -9.961  -2.898 125.851  0.00  0.00    +0.013 C 
ENDROOT
BRANCH  23  28
ATOM     28  O   LIG A   1      -6.215  -2.914 126.169  0.00  0.00    -0.391 OA
ATOM     29  H   LIG A   1      -5.599  -3.165 126.887  0.00  0.00    +0.210 HD
ENDBRANCH  23  28
BRANCH  15  30
ATOM     30  O   LIG A   1      -1.824  -6.152 134.285  0.00  0.00    -0.389 OA
ATOM     31  H   LIG A   1      -1.660  -6.374 135.226  0.00  0.00    +0.210 HD
ENDBRANCH  15  30
BRANCH  14  32
ATOM     32  O   LIG A   1      -0.907  -4.046 135.766  0.00  0.00    -0.389 OA
ATOM     33  H   LIG A   1      -0.512  -3.200 136.076  0.00  0.00    +0.210 HD
ENDBRANCH  14  32
BRANCH   5  34
ATOM     34  C   LIG A   1      -6.169   0.084 127.203  0.00  0.00    +0.316 C 
ATOM     35  O   LIG A   1      -5.161  -0.557 127.057  0.00  0.00    -0.250 OA
BRANCH  34  36
ATOM     36  O   LIG A   1      -6.310   1.391 126.791  0.00  0.00    -0.432 OA
BRANCH  36  37
ATOM     37  C   LIG A   1      -5.319   2.373 127.190  0.00  0.00    +0.342 C 
ATOM     38  O   LIG A   1      -5.755   2.998 128.426  0.00  0.00    -0.331 OA
ATOM     39  C   LIG A   1      -6.728   4.056 128.306  0.00  0.00    +0.179 C 
ATOM     40  C   LIG A   1      -7.409   4.072 126.937  0.00  0.00    +0.177 C 
ATOM     41  C   LIG A   1      -6.368   4.219 125.825  0.00  0.00    +0.180 C 
ATOM     42  C   LIG A   1      -5.088   3.414 126.075  0.00  0.00    +0.214 C 
BRANCH  41  43
ATOM     43  O   LIG A   1      -7.002   3.780 124.613  0.00  0.00    -0.386 OA
ATOM     44  H   LIG A   1      -7.818   4.318 124.552  0.00  0.00    +0.210 HD
ENDBRANCH  41  43
BRANCH  40  45
ATOM     45  O   LIG A   1      -8.390   5.096 126.738  0.00  0.00    -0.387 OA
ATOM     46  H   LIG A   1      -7.935   5.832 126.275  0.00  0.00    +0.210 HD
ENDBRANCH  40  45
BRANCH  42  47
ATOM     47  O   LIG A   1      -4.012   4.308 126.396  0.00  0.00    -0.383 OA
ATOM     48  H   LIG A   1      -4.428   5.182 126.531  0.00  0.00    +0.210 HD
ENDBRANCH  42  47
BRANCH  39  49
ATOM     49  C   LIG A   1      -7.768   3.859 129.423  0.00  0.00    +0.190 C 
BRANCH  49  50
ATOM     50  O   LIG A   1      -9.034   3.451 128.909  0.00  0.00    -0.392 OA
ATOM     51  H   LIG A   1      -9.695   4.067 129.276  0.00  0.00    +0.209 HD
ENDBRANCH  49  50
ENDBRANCH  39  49
ENDBRANCH  36  37
ENDBRANCH  34  36
ENDBRANCH   5  34
BRANCH  13  52
ATOM     52  C   LIG A   1      -1.198  -1.332 134.448  0.00  0.00    +0.167 C 
BRANCH  52  53
ATOM     53  O   LIG A   1       0.004  -1.883 133.927  0.00  0.00    -0.394 OA
ATOM     54  H   LIG A   1      -0.194  -2.240 133.043  0.00  0.00    +0.209 HD
ENDBRANCH  52  53
ENDBRANCH  13  52
BRANCH  13  55
ATOM     55  C   LIG A   1      -3.120  -2.084 135.893  0.00  0.00    +0.167 C 
BRANCH  55  56
ATOM     56  O   LIG A   1      -2.228  -1.612 136.904  0.00  0.00    -0.394 OA
ATOM     57  H   LIG A   1      -2.783  -1.175 137.576  0.00  0.00    +0.209 HD
ENDBRANCH  55  56
ENDBRANCH  13  55
TORSDOF 15
ENDMDL
MODEL 5
REMARK VINA RESULT:      -8.1      5.079     10.788
REMARK  Name = NuBBE_544
REMARK  20 active torsions:
REMARK  status: ('A' for Active; 'I' for Inactive)
REMARK    1  A    between atoms: C_1  and  C_2
REMARK    2  A    between atoms: C_2  and  C_59
REMARK    3  A    between atoms: C_5  and  C_40
REMARK    4  A    between atoms: C_8  and  C_39
REMARK    5  A    between atoms: C_9  and  C_38
REMARK    6  A    between atoms: C_14  and  C_15
REMARK    7  A    between atoms: C_14  and  C_36
REMARK    8  A    between atoms: C_15  and  O_16
REMARK    9  A    between atoms: C_17  and  O_35
REMARK   10  A    between atoms: C_19  and  O_34
REMARK   11  A    between atoms: C_22  and  C_33
REMARK   12  A    between atoms: C_30  and  O_32
REMARK   13  A    between atoms: C_36  and  O_37
REMARK   14  A    between atoms: C_40  and  O_41
REMARK   15  A    between atoms: O_41  and  C_42
REMARK   16  A    between atoms: C_45  and  C_53
REMARK   17  A    between atoms: C_47  and  O_52
REMARK   18  A    between atoms: C_49  and  O_51
REMARK   19  A    between atoms: C_53  and  O_54
REMARK   20  A    between atoms: C_55  and  O_57
REMARK                            x       y       z     vdW  Elec       q    Type
REMARK                         _______ _______ _______ _____ _____    ______ ____
ROOT
ATOM      1  C   LIG A   1      -6.412  -4.084 136.317  0.00  0.00    +0.013 C 
ATOM      2  C   LIG A   1      -5.416  -3.617 135.220  0.00  0.00    -0.008 C 
ATOM      3  C   LIG A   1      -4.809  -2.278 135.698  0.00  0.00    +0.010 C 
ATOM      4  C   LIG A   1      -4.007  -1.550 134.624  0.00  0.00    +0.019 C 
ATOM      5  C   LIG A   1      -4.825  -1.231 133.351  0.00  0.00    +0.077 C 
ATOM      6  C   LIG A   1      -3.861  -0.610 132.329  0.00  0.00    +0.019 C 
ATOM      7  C   LIG A   1      -4.603  -0.226 131.063  0.00  0.00    +0.012 C 
ATOM      8  C   LIG A   1      -5.328  -1.394 130.330  0.00  0.00    -0.005 C 
ATOM      9  C   LIG A   1      -6.585  -0.839 129.478  0.00  0.00    -0.019 C 
ATOM     10  C   LIG A   1      -6.186   0.463 128.705  0.00  0.00    +0.008 C 
ATOM     11  C   LIG A   1      -6.188   0.404 127.204  0.00  0.00    +0.005 C 
ATOM     12  C   LIG A   1      -7.468  -0.276 126.729  0.00  0.00    +0.008 C 
ATOM     13  C   LIG A   1      -7.947   0.217 125.309  0.00  0.00    +0.049 C 
ATOM     14  C   LIG A   1      -9.125  -0.677 124.827  0.00  0.00    +0.154 C 
ATOM     15  C   LIG A   1      -8.876  -2.181 124.996  0.00  0.00    +0.144 C 
ATOM     16  C   LIG A   1      -8.598  -2.535 126.458  0.00  0.00    +0.041 C 
ATOM     17  C   LIG A   1      -7.338  -1.825 127.033  0.00  0.00    -0.022 C 
ATOM     18  C   LIG A   1      -7.300  -1.990 128.627  0.00  0.00    +0.006 C 
ATOM     19  C   LIG A   1      -7.079  -3.423 129.235  0.00  0.00    +0.031 C 
ATOM     20  C   LIG A   1      -6.569  -3.481 130.673  0.00  0.00    -0.026 C 
ATOM     21  C   LIG A   1      -5.823  -2.521 131.268  0.00  0.00    -0.060 C 
ATOM     22  C   LIG A   1      -5.313  -2.600 132.747  0.00  0.00    +0.061 C 
ATOM     23  C   LIG A   1      -6.119  -3.459 133.815  0.00  0.00    +0.128 C 
ATOM     24  C   LIG A   1      -6.102  -2.502 126.398  0.00  0.00    +0.012 C 
ATOM     25  C   LIG A   1      -7.726  -0.361 130.466  0.00  0.00    +0.012 C 
ATOM     26  C   LIG A   1      -4.225  -1.990 129.397  0.00  0.00    +0.016 C 
ATOM     27  C   LIG A   1      -4.312  -4.699 135.143  0.00  0.00    +0.013 C 
ENDROOT
BRANCH  23  28
ATOM     28  O   LIG A   1      -7.436  -2.949 133.999  0.00  0.00    -0.391 OA
ATOM     29  H   LIG A   1      -8.044  -3.409 133.385  0.00  0.00    +0.210 HD
ENDBRANCH  23  28
BRANCH  15  30
ATOM     30  O   LIG A   1     -10.054  -2.882 124.576  0.00  0.00    -0.389 OA
ATOM     31  H   LIG A   1      -9.732  -3.766 124.303  0.00  0.00    +0.210 HD
ENDBRANCH  15  30
BRANCH  14  32
ATOM     32  O   LIG A   1      -9.521  -0.443 123.466  0.00  0.00    -0.389 OA
ATOM     33  H   LIG A   1      -9.684   0.522 123.363  0.00  0.00    +0.210 HD
ENDBRANCH  14  32
BRANCH   5  34
ATOM     34  C   LIG A   1      -5.926  -0.175 133.717  0.00  0.00    +0.316 C 
ATOM     35  O   LIG A   1      -7.112  -0.367 133.659  0.00  0.00    -0.250 OA
BRANCH  34  36
ATOM     36  O   LIG A   1      -5.361   0.978 134.217  0.00  0.00    -0.432 OA
BRANCH  36  37
ATOM     37  C   LIG A   1      -6.110   2.219 134.159  0.00  0.00    +0.342 C 
ATOM     38  O   LIG A   1      -5.902   2.828 132.857  0.00  0.00    -0.331 OA
ATOM     39  C   LIG A   1      -4.683   3.578 132.683  0.00  0.00    +0.179 C 
ATOM     40  C   LIG A   1      -3.651   3.280 133.772  0.00  0.00    +0.177 C 
ATOM     41  C   LIG A   1      -4.233   3.582 135.155  0.00  0.00    +0.180 C 
ATOM     42  C   LIG A   1      -5.701   3.168 135.304  0.00  0.00    +0.214 C 
BRANCH  41  43
ATOM     43  O   LIG A   1      -3.419   2.875 136.103  0.00  0.00    -0.386 OA
ATOM     44  H   LIG A   1      -2.974   2.180 135.576  0.00  0.00    +0.210 HD
ENDBRANCH  41  43
BRANCH  40  45
ATOM     45  O   LIG A   1      -2.411   3.987 133.670  0.00  0.00    -0.387 OA
ATOM     46  H   LIG A   1      -2.445   4.709 134.334  0.00  0.00    +0.210 HD
ENDBRANCH  40  45
BRANCH  42  47
ATOM     47  O   LIG A   1      -6.530   4.340 135.347  0.00  0.00    -0.383 OA
ATOM     48  H   LIG A   1      -7.079   4.303 134.540  0.00  0.00    +0.210 HD
ENDBRANCH  42  47
BRANCH  39  49
ATOM     49  C   LIG A   1      -4.118   3.228 131.295  0.00  0.00    +0.190 C 
BRANCH  49  50
ATOM     50  O   LIG A   1      -3.297   4.271 130.773  0.00  0.00    -0.392 OA
ATOM     51  H   LIG A   1      -3.900   4.923 130.368  0.00  0.00    +0.209 HD
ENDBRANCH  49  50
ENDBRANCH  39  49
ENDBRANCH  36  37
ENDBRANCH  34  36
ENDBRANCH   5  34
BRANCH  13  52
ATOM     52  C   LIG A   1      -8.557   1.668 125.417  0.00  0.00    +0.167 C 
BRANCH  52  53
ATOM     53  O   LIG A   1      -9.795   1.813 124.734  0.00  0.00    -0.394 OA
ATOM     54  H   LIG A   1      -9.717   2.580 124.141  0.00  0.00    +0.209 HD
ENDBRANCH  52  53
ENDBRANCH  13  52
BRANCH  13  55
ATOM     55  C   LIG A   1      -6.774   0.277 124.304  0.00  0.00    +0.167 C 
BRANCH  55  56
ATOM     56  O   LIG A   1      -7.039   1.212 123.257  0.00  0.00    -0.394 OA
ATOM     57  H   LIG A   1      -6.460   0.959 122.514  0.00  0.00    +0.209 HD
ENDBRANCH  55  56
ENDBRANCH  13  55
TORSDOF 15
ENDMDL
MODEL 6
REMARK VINA RESULT:      -8.1      4.768     10.684
REMARK  Name = NuBBE_544
REMARK  20 active torsions:
REMARK  status: ('A' for Active; 'I' for Inactive)
REMARK    1  A    between atoms: C_1  and  C_2
REMARK    2  A    between atoms: C_2  and  C_59
REMARK    3  A    between atoms: C_5  and  C_40
REMARK    4  A    between atoms: C_8  and  C_39
REMARK    5  A    between atoms: C_9  and  C_38
REMARK    6  A    between atoms: C_14  and  C_15
REMARK    7  A    between atoms: C_14  and  C_36
REMARK    8  A    between atoms: C_15  and  O_16
REMARK    9  A    between atoms: C_17  and  O_35
REMARK   10  A    between atoms: C_19  and  O_34
REMARK   11  A    between atoms: C_22  and  C_33
REMARK   12  A    between atoms: C_30  and  O_32
REMARK   13  A    between atoms: C_36  and  O_37
REMARK   14  A    between atoms: C_40  and  O_41
REMARK   15  A    between atoms: O_41  and  C_42
REMARK   16  A    between atoms: C_45  and  C_53
REMARK   17  A    between atoms: C_47  and  O_52
REMARK   18  A    between atoms: C_49  and  O_51
REMARK   19  A    between atoms: C_53  and  O_54
REMARK   20  A    between atoms: C_55  and  O_57
REMARK                            x       y       z     vdW  Elec       q    Type
REMARK                         _______ _______ _______ _____ _____    ______ ____
ROOT
ATOM      1  C   LIG A   1      -7.289  -2.990 136.221  0.00  0.00    +0.013 C 
ATOM      2  C   LIG A   1      -6.227  -2.608 135.154  0.00  0.00    -0.008 C 
ATOM      3  C   LIG A   1      -5.695  -1.205 135.525  0.00  0.00    +0.010 C 
ATOM      4  C   LIG A   1      -4.835  -0.569 134.438  0.00  0.00    +0.019 C 
ATOM      5  C   LIG A   1      -5.564  -0.415 133.083  0.00  0.00    +0.077 C 
ATOM      6  C   LIG A   1      -4.543   0.127 132.071  0.00  0.00    +0.019 C 
ATOM      7  C   LIG A   1      -5.199   0.347 130.721  0.00  0.00    +0.012 C 
ATOM      8  C   LIG A   1      -5.835  -0.918 130.070  0.00  0.00    -0.005 C 
ATOM      9  C   LIG A   1      -7.040  -0.501 129.075  0.00  0.00    -0.019 C 
ATOM     10  C   LIG A   1      -6.620   0.724 128.196  0.00  0.00    +0.008 C 
ATOM     11  C   LIG A   1      -6.508   0.506 126.714  0.00  0.00    +0.005 C 
ATOM     12  C   LIG A   1      -7.730  -0.266 126.226  0.00  0.00    +0.008 C 
ATOM     13  C   LIG A   1      -8.116   0.056 124.730  0.00  0.00    +0.049 C 
ATOM     14  C   LIG A   1      -9.229  -0.925 124.265  0.00  0.00    +0.154 C 
ATOM     15  C   LIG A   1      -8.953  -2.393 124.614  0.00  0.00    +0.144 C 
ATOM     16  C   LIG A   1      -8.775  -2.579 126.122  0.00  0.00    +0.041 C 
ATOM     17  C   LIG A   1      -7.581  -1.768 126.705  0.00  0.00    -0.022 C 
ATOM     18  C   LIG A   1      -7.658  -1.761 128.306  0.00  0.00    +0.006 C 
ATOM     19  C   LIG A   1      -7.444  -3.112 129.080  0.00  0.00    +0.031 C 
ATOM     20  C   LIG A   1      -7.041  -2.998 130.549  0.00  0.00    -0.026 C 
ATOM     21  C   LIG A   1      -6.368  -1.955 131.087  0.00  0.00    -0.060 C 
ATOM     22  C   LIG A   1      -5.968  -1.858 132.599  0.00  0.00    +0.061 C 
ATOM     23  C   LIG A   1      -6.828  -2.625 133.693  0.00  0.00    +0.128 C 
ATOM     24  C   LIG A   1      -6.284  -2.465 126.237  0.00  0.00    +0.012 C 
ATOM     25  C   LIG A   1      -8.264   0.040 129.921  0.00  0.00    +0.012 C 
ATOM     26  C   LIG A   1      -4.650  -1.571 129.289  0.00  0.00    +0.016 C 
ATOM     27  C   LIG A   1      -5.092  -3.653 135.275  0.00  0.00    +0.013 C 
ENDROOT
BRANCH  23  28
ATOM     28  O   LIG A   1      -8.168  -2.146 133.727  0.00  0.00    -0.391 OA
ATOM     29  H   LIG A   1      -8.188  -1.289 134.199  0.00  0.00    +0.210 HD
ENDBRANCH  23  28
BRANCH  15  30
ATOM     30  O   LIG A   1     -10.076  -3.175 124.190  0.00  0.00    -0.389 OA
ATOM     31  H   LIG A   1     -10.855  -2.717 124.570  0.00  0.00    +0.210 HD
ENDBRANCH  15  30
BRANCH  14  32
ATOM     32  O   LIG A   1      -9.528  -0.851 122.862  0.00  0.00    -0.389 OA
ATOM     33  H   LIG A   1      -9.492   0.096 122.597  0.00  0.00    +0.210 HD
ENDBRANCH  14  32
BRANCH   5  34
ATOM     34  C   LIG A   1      -6.717   0.634 133.253  0.00  0.00    +0.316 C 
ATOM     35  O   LIG A   1      -7.877   0.432 133.003  0.00  0.00    -0.250 OA
BRANCH  34  36
ATOM     36  O   LIG A   1      -6.250   1.796 133.827  0.00  0.00    -0.432 OA
BRANCH  36  37
ATOM     37  C   LIG A   1      -5.922   2.925 132.978  0.00  0.00    +0.342 C 
ATOM     38  O   LIG A   1      -5.342   3.973 133.800  0.00  0.00    -0.331 OA
ATOM     39  C   LIG A   1      -6.266   4.810 134.524  0.00  0.00    +0.179 C 
ATOM     40  C   LIG A   1      -7.669   4.207 134.598  0.00  0.00    +0.177 C 
ATOM     41  C   LIG A   1      -8.217   3.956 133.191  0.00  0.00    +0.180 C 
ATOM     42  C   LIG A   1      -7.164   3.424 132.211  0.00  0.00    +0.214 C 
BRANCH  41  43
ATOM     43  O   LIG A   1      -9.286   3.007 133.333  0.00  0.00    -0.386 OA
ATOM     44  H   LIG A   1      -8.849   2.132 133.275  0.00  0.00    +0.210 HD
ENDBRANCH  41  43
BRANCH  40  45
ATOM     45  O   LIG A   1      -8.647   4.979 135.301  0.00  0.00    -0.387 OA
ATOM     46  H   LIG A   1      -8.726   5.833 134.824  0.00  0.00    +0.210 HD
ENDBRANCH  40  45
BRANCH  42  47
ATOM     47  O   LIG A   1      -6.830   4.448 131.262  0.00  0.00    -0.383 OA
ATOM     48  H   LIG A   1      -7.631   5.001 131.180  0.00  0.00    +0.210 HD
ENDBRANCH  42  47
BRANCH  39  49
ATOM     49  C   LIG A   1      -5.694   5.018 135.937  0.00  0.00    +0.190 C 
BRANCH  49  50
ATOM     50  O   LIG A   1      -6.332   6.096 136.620  0.00  0.00    -0.392 OA
ATOM     51  H   LIG A   1      -6.120   5.991 137.566  0.00  0.00    +0.209 HD
ENDBRANCH  49  50
ENDBRANCH  39  49
ENDBRANCH  36  37
ENDBRANCH  34  36
ENDBRANCH   5  34
BRANCH  13  52
ATOM     52  C   LIG A   1      -8.770   1.488 124.635  0.00  0.00    +0.167 C 
BRANCH  52  53
ATOM     53  O   LIG A   1     -10.183   1.454 124.483  0.00  0.00    -0.394 OA
ATOM     54  H   LIG A   1     -10.388   0.827 123.767  0.00  0.00    +0.209 HD
ENDBRANCH  52  53
ENDBRANCH  13  52
BRANCH  13  55
ATOM     55  C   LIG A   1      -6.873   0.050 123.811  0.00  0.00    +0.167 C 
BRANCH  55  56
ATOM     56  O   LIG A   1      -6.924   1.120 122.866  0.00  0.00    -0.394 OA
ATOM     57  H   LIG A   1      -7.847   1.167 122.556  0.00  0.00    +0.209 HD
ENDBRANCH  55  56
ENDBRANCH  13  55
TORSDOF 15
ENDMDL
MODEL 7
REMARK VINA RESULT:      -8.1      3.858      9.822
REMARK  Name = NuBBE_544
REMARK  20 active torsions:
REMARK  status: ('A' for Active; 'I' for Inactive)
REMARK    1  A    between atoms: C_1  and  C_2
REMARK    2  A    between atoms: C_2  and  C_59
REMARK    3  A    between atoms: C_5  and  C_40
REMARK    4  A    between atoms: C_8  and  C_39
REMARK    5  A    between atoms: C_9  and  C_38
REMARK    6  A    between atoms: C_14  and  C_15
REMARK    7  A    between atoms: C_14  and  C_36
REMARK    8  A    between atoms: C_15  and  O_16
REMARK    9  A    between atoms: C_17  and  O_35
REMARK   10  A    between atoms: C_19  and  O_34
REMARK   11  A    between atoms: C_22  and  C_33
REMARK   12  A    between atoms: C_30  and  O_32
REMARK   13  A    between atoms: C_36  and  O_37
REMARK   14  A    between atoms: C_40  and  O_41
REMARK   15  A    between atoms: O_41  and  C_42
REMARK   16  A    between atoms: C_45  and  C_53
REMARK   17  A    between atoms: C_47  and  O_52
REMARK   18  A    between atoms: C_49  and  O_51
REMARK   19  A    between atoms: C_53  and  O_54
REMARK   20  A    between atoms: C_55  and  O_57
REMARK                            x       y       z     vdW  Elec       q    Type
REMARK                         _______ _______ _______ _____ _____    ______ ____
ROOT
ATOM      1  C   LIG A   1      -1.915   6.645 130.944  0.00  0.00    +0.013 C 
ATOM      2  C   LIG A   1      -3.253   6.618 130.154  0.00  0.00    -0.008 C 
ATOM      3  C   LIG A   1      -4.388   6.854 131.175  0.00  0.00    +0.010 C 
ATOM      4  C   LIG A   1      -5.782   6.600 130.612  0.00  0.00    +0.019 C 
ATOM      5  C   LIG A   1      -5.977   5.168 130.064  0.00  0.00    +0.077 C 
ATOM      6  C   LIG A   1      -7.376   5.103 129.432  0.00  0.00    +0.019 C 
ATOM      7  C   LIG A   1      -7.659   3.707 128.909  0.00  0.00    +0.012 C 
ATOM      8  C   LIG A   1      -6.665   3.180 127.832  0.00  0.00    -0.005 C 
ATOM      9  C   LIG A   1      -6.603   1.565 127.855  0.00  0.00    -0.019 C 
ATOM     10  C   LIG A   1      -8.046   0.968 127.972  0.00  0.00    +0.008 C 
ATOM     11  C   LIG A   1      -8.555   0.158 126.813  0.00  0.00    +0.005 C 
ATOM     12  C   LIG A   1      -7.471  -0.820 126.369  0.00  0.00    +0.008 C 
ATOM     13  C   LIG A   1      -8.048  -2.143 125.731  0.00  0.00    +0.049 C 
ATOM     14  C   LIG A   1      -6.879  -2.971 125.124  0.00  0.00    +0.154 C 
ATOM     15  C   LIG A   1      -5.911  -2.147 124.266  0.00  0.00    +0.144 C 
ATOM     16  C   LIG A   1      -5.294  -1.002 125.073  0.00  0.00    +0.041 C 
ATOM     17  C   LIG A   1      -6.350   0.005 125.615  0.00  0.00    -0.022 C 
ATOM     18  C   LIG A   1      -5.671   0.973 126.698  0.00  0.00    +0.006 C 
ATOM     19  C   LIG A   1      -4.574   1.993 126.219  0.00  0.00    +0.031 C 
ATOM     20  C   LIG A   1      -4.315   3.192 127.130  0.00  0.00    -0.026 C 
ATOM     21  C   LIG A   1      -5.227   3.734 127.971  0.00  0.00    -0.060 C 
ATOM     22  C   LIG A   1      -4.938   4.962 128.899  0.00  0.00    +0.061 C 
ATOM     23  C   LIG A   1      -3.452   5.257 129.379  0.00  0.00    +0.128 C 
ATOM     24  C   LIG A   1      -6.857   0.827 124.410  0.00  0.00    +0.012 C 
ATOM     25  C   LIG A   1      -5.883   1.080 129.180  0.00  0.00    +0.012 C 
ATOM     26  C   LIG A   1      -7.259   3.709 126.487  0.00  0.00    +0.016 C 
ATOM     27  C   LIG A   1      -3.191   7.796 129.152  0.00  0.00    +0.013 C 
ENDROOT
BRANCH  23  28
ATOM     28  O   LIG A   1      -2.941   4.185 130.166  0.00  0.00    -0.391 OA
ATOM     29  H   LIG A   1      -2.714   3.437 129.577  0.00  0.00    +0.210 HD
ENDBRANCH  23  28
BRANCH  15  30
ATOM     30  O   LIG A   1      -4.855  -3.011 123.825  0.00  0.00    -0.389 OA
ATOM     31  H   LIG A   1      -4.622  -3.541 124.615  0.00  0.00    +0.210 HD
ENDBRANCH  15  30
BRANCH  14  32
ATOM     32  O   LIG A   1      -7.303  -4.105 124.350  0.00  0.00    -0.389 OA
ATOM     33  H   LIG A   1      -6.669  -4.214 123.606  0.00  0.00    +0.210 HD
ENDBRANCH  14  32
BRANCH   5  34
ATOM     34  C   LIG A   1      -5.916   4.162 131.266  0.00  0.00    +0.316 C 
ATOM     35  O   LIG A   1      -4.944   3.955 131.944  0.00  0.00    -0.250 OA
BRANCH  34  36
ATOM     36  O   LIG A   1      -7.154   3.612 131.516  0.00  0.00    -0.432 OA
BRANCH  36  37
ATOM     37  C   LIG A   1      -7.665   3.601 132.874  0.00  0.00    +0.342 C 
ATOM     38  O   LIG A   1      -7.172   2.413 133.548  0.00  0.00    -0.331 OA
ATOM     39  C   LIG A   1      -7.881   1.185 133.291  0.00  0.00    +0.179 C 
ATOM     40  C   LIG A   1      -8.788   1.277 132.063  0.00  0.00    +0.177 C 
ATOM     41  C   LIG A   1      -9.798   2.414 132.230  0.00  0.00    +0.180 C 
ATOM     42  C   LIG A   1      -9.206   3.666 132.888  0.00  0.00    +0.214 C 
BRANCH  41  43
ATOM     43  O   LIG A   1     -10.282   2.727 130.914  0.00  0.00    -0.386 OA
ATOM     44  H   LIG A   1     -11.053   3.312 131.067  0.00  0.00    +0.210 HD
ENDBRANCH  41  43
BRANCH  40  45
ATOM     45  O   LIG A   1      -9.529   0.096 131.741  0.00  0.00    -0.387 OA
ATOM     46  H   LIG A   1     -10.367   0.144 132.248  0.00  0.00    +0.210 HD
ENDBRANCH  40  45
BRANCH  42  47
ATOM     47  O   LIG A   1      -9.723   3.799 134.221  0.00  0.00    -0.383 OA
ATOM     48  H   LIG A   1     -10.617   4.178 134.118  0.00  0.00    +0.210 HD
ENDBRANCH  42  47
BRANCH  39  49
ATOM     49  C   LIG A   1      -6.833   0.073 133.105  0.00  0.00    +0.190 C 
BRANCH  49  50
ATOM     50  O   LIG A   1      -7.345  -1.210 133.459  0.00  0.00    -0.392 OA
ATOM     51  H   LIG A   1      -8.151  -1.053 133.985  0.00  0.00    +0.209 HD
ENDBRANCH  49  50
ENDBRANCH  39  49
ENDBRANCH  36  37
ENDBRANCH  34  36
ENDBRANCH   5  34
BRANCH  13  52
ATOM     52  C   LIG A   1      -8.659  -3.065 126.855  0.00  0.00    +0.167 C 
BRANCH  52  53
ATOM     53  O   LIG A   1      -7.876  -3.104 128.041  0.00  0.00    -0.394 OA
ATOM     54  H   LIG A   1      -6.967  -2.853 127.803  0.00  0.00    +0.209 HD
ENDBRANCH  52  53
ENDBRANCH  13  52
BRANCH  13  55
ATOM     55  C   LIG A   1      -9.173  -1.838 124.715  0.00  0.00    +0.167 C 
BRANCH  55  56
ATOM     56  O   LIG A   1      -9.877  -3.028 124.351  0.00  0.00    -0.394 OA
ATOM     57  H   LIG A   1      -9.196  -3.697 124.153  0.00  0.00    +0.209 HD
ENDBRANCH  55  56
ENDBRANCH  13  55
TORSDOF 15
ENDMDL
MODEL 8
REMARK VINA RESULT:      -8.1      1.663      2.728
REMARK  Name = NuBBE_544
REMARK  20 active torsions:
REMARK  status: ('A' for Active; 'I' for Inactive)
REMARK    1  A    between atoms: C_1  and  C_2
REMARK    2  A    between atoms: C_2  and  C_59
REMARK    3  A    between atoms: C_5  and  C_40
REMARK    4  A    between atoms: C_8  and  C_39
REMARK    5  A    between atoms: C_9  and  C_38
REMARK    6  A    between atoms: C_14  and  C_15
REMARK    7  A    between atoms: C_14  and  C_36
REMARK    8  A    between atoms: C_15  and  O_16
REMARK    9  A    between atoms: C_17  and  O_35
REMARK   10  A    between atoms: C_19  and  O_34
REMARK   11  A    between atoms: C_22  and  C_33
REMARK   12  A    between atoms: C_30  and  O_32
REMARK   13  A    between atoms: C_36  and  O_37
REMARK   14  A    between atoms: C_40  and  O_41
REMARK   15  A    between atoms: O_41  and  C_42
REMARK   16  A    between atoms: C_45  and  C_53
REMARK   17  A    between atoms: C_47  and  O_52
REMARK   18  A    between atoms: C_49  and  O_51
REMARK   19  A    between atoms: C_53  and  O_54
REMARK   20  A    between atoms: C_55  and  O_57
REMARK                            x       y       z     vdW  Elec       q    Type
REMARK                         _______ _______ _______ _____ _____    ______ ____
ROOT
ATOM      1  C   LIG A   1      -4.485   4.084 125.643  0.00  0.00    +0.013 C 
ATOM      2  C   LIG A   1      -3.822   3.540 126.939  0.00  0.00    -0.008 C 
ATOM      3  C   LIG A   1      -4.713   2.387 127.454  0.00  0.00    +0.010 C 
ATOM      4  C   LIG A   1      -4.350   1.912 128.858  0.00  0.00    +0.019 C 
ATOM      5  C   LIG A   1      -4.417   3.029 129.926  0.00  0.00    +0.077 C 
ATOM      6  C   LIG A   1      -3.918   2.430 131.249  0.00  0.00    +0.019 C 
ATOM      7  C   LIG A   1      -3.997   3.458 132.362  0.00  0.00    +0.012 C 
ATOM      8  C   LIG A   1      -3.174   4.761 132.130  0.00  0.00    -0.005 C 
ATOM      9  C   LIG A   1      -3.828   5.999 132.939  0.00  0.00    -0.019 C 
ATOM     10  C   LIG A   1      -4.227   5.552 134.386  0.00  0.00    +0.008 C 
ATOM     11  C   LIG A   1      -3.501   6.195 135.533  0.00  0.00    +0.005 C 
ATOM     12  C   LIG A   1      -3.434   7.703 135.304  0.00  0.00    +0.008 C 
ATOM     13  C   LIG A   1      -3.390   8.536 136.644  0.00  0.00    +0.049 C 
ATOM     14  C   LIG A   1      -3.112  10.029 136.309  0.00  0.00    +0.154 C 
ATOM     15  C   LIG A   1      -1.962  10.242 135.317  0.00  0.00    +0.144 C 
ATOM     16  C   LIG A   1      -2.229   9.516 133.996  0.00  0.00    +0.041 C 
ATOM     17  C   LIG A   1      -2.373   7.975 134.161  0.00  0.00    -0.022 C 
ATOM     18  C   LIG A   1      -2.960   7.337 132.812  0.00  0.00    +0.006 C 
ATOM     19  C   LIG A   1      -2.076   7.368 131.513  0.00  0.00    +0.031 C 
ATOM     20  C   LIG A   1      -2.432   6.358 130.424  0.00  0.00    -0.026 C 
ATOM     21  C   LIG A   1      -3.028   5.163 130.643  0.00  0.00    -0.060 C 
ATOM     22  C   LIG A   1      -3.387   4.143 129.509  0.00  0.00    +0.061 C 
ATOM     23  C   LIG A   1      -3.653   4.667 128.032  0.00  0.00    +0.128 C 
ATOM     24  C   LIG A   1      -0.962   7.412 134.446  0.00  0.00    +0.012 C 
ATOM     25  C   LIG A   1      -5.207   6.401 132.271  0.00  0.00    +0.012 C 
ATOM     26  C   LIG A   1      -1.755   4.408 132.678  0.00  0.00    +0.016 C 
ATOM     27  C   LIG A   1      -2.436   2.990 126.523  0.00  0.00    +0.013 C 
ENDROOT
BRANCH  23  28
ATOM     28  O   LIG A   1      -4.777   5.541 127.988  0.00  0.00    -0.391 OA
ATOM     29  H   LIG A   1      -4.535   6.392 128.406  0.00  0.00    +0.210 HD
ENDBRANCH  23  28
BRANCH  15  30
ATOM     30  O   LIG A   1      -1.853  11.646 135.048  0.00  0.00    -0.389 OA
ATOM     31  H   LIG A   1      -2.687  12.029 135.393  0.00  0.00    +0.210 HD
ENDBRANCH  15  30
BRANCH  14  32
ATOM     32  O   LIG A   1      -2.863  10.852 137.460  0.00  0.00    -0.389 OA
ATOM     33  H   LIG A   1      -3.663  11.403 137.613  0.00  0.00    +0.210 HD
ENDBRANCH  14  32
BRANCH   5  34
ATOM     34  C   LIG A   1      -5.914   3.464 130.098  0.00  0.00    +0.316 C 
ATOM     35  O   LIG A   1      -6.366   4.528 129.765  0.00  0.00    -0.250 OA
BRANCH  34  36
ATOM     36  O   LIG A   1      -6.679   2.429 130.590  0.00  0.00    -0.432 OA
BRANCH  36  37
ATOM     37  C   LIG A   1      -7.804   2.726 131.456  0.00  0.00    +0.342 C 
ATOM     38  O   LIG A   1      -7.367   2.627 132.838  0.00  0.00    -0.331 OA
ATOM     39  C   LIG A   1      -7.307   1.301 133.401  0.00  0.00    +0.179 C 
ATOM     40  C   LIG A   1      -7.347   0.208 132.333  0.00  0.00    +0.177 C 
ATOM     41  C   LIG A   1      -8.616   0.336 131.486  0.00  0.00    +0.180 C 
ATOM     42  C   LIG A   1      -8.992   1.787 131.165  0.00  0.00    +0.214 C 
BRANCH  41  43
ATOM     43  O   LIG A   1      -8.371  -0.393 130.272  0.00  0.00    -0.386 OA
ATOM     44  H   LIG A   1      -8.972   0.016 129.614  0.00  0.00    +0.210 HD
ENDBRANCH  41  43
BRANCH  40  45
ATOM     45  O   LIG A   1      -7.293  -1.140 132.813  0.00  0.00    -0.387 OA
ATOM     46  H   LIG A   1      -8.214  -1.478 132.803  0.00  0.00    +0.210 HD
ENDBRANCH  40  45
BRANCH  42  47
ATOM     47  O   LIG A   1     -10.161   2.157 131.913  0.00  0.00    -0.383 OA
ATOM     48  H   LIG A   1     -10.257   1.473 132.604  0.00  0.00    +0.210 HD
ENDBRANCH  42  47
BRANCH  39  49
ATOM     49  C   LIG A   1      -6.009   1.204 134.223  0.00  0.00    +0.190 C 
BRANCH  49  50
ATOM     50  O   LIG A   1      -6.076   0.177 135.210  0.00  0.00    -0.392 OA
ATOM     51  H   LIG A   1      -6.997  -0.144 135.216  0.00  0.00    +0.209 HD
ENDBRANCH  49  50
ENDBRANCH  39  49
ENDBRANCH  36  37
ENDBRANCH  34  36
ENDBRANCH   5  34
BRANCH  13  52
ATOM     52  C   LIG A   1      -4.809   8.532 137.331  0.00  0.00    +0.167 C 
BRANCH  52  53
ATOM     53  O   LIG A   1      -5.508   9.762 137.193  0.00  0.00    -0.394 OA
ATOM     54  H   LIG A   1      -6.334   9.580 136.712  0.00  0.00    +0.209 HD
ENDBRANCH  52  53
ENDBRANCH  13  52
BRANCH  13  55
ATOM     55  C   LIG A   1      -2.382   7.937 137.651  0.00  0.00    +0.167 C 
BRANCH  55  56
ATOM     56  O   LIG A   1      -2.610   8.438 138.969  0.00  0.00    -0.394 OA
ATOM     57  H   LIG A   1      -2.259   7.764 139.581  0.00  0.00    +0.209 HD
ENDBRANCH  55  56
ENDBRANCH  13  55
TORSDOF 15
ENDMDL
MODEL 9
REMARK VINA RESULT:      -8.0      4.040      9.724
REMARK  Name = NuBBE_544
REMARK  20 active torsions:
REMARK  status: ('A' for Active; 'I' for Inactive)
REMARK    1  A    between atoms: C_1  and  C_2
REMARK    2  A    between atoms: C_2  and  C_59
REMARK    3  A    between atoms: C_5  and  C_40
REMARK    4  A    between atoms: C_8  and  C_39
REMARK    5  A    between atoms: C_9  and  C_38
REMARK    6  A    between atoms: C_14  and  C_15
REMARK    7  A    between atoms: C_14  and  C_36
REMARK    8  A    between atoms: C_15  and  O_16
REMARK    9  A    between atoms: C_17  and  O_35
REMARK   10  A    between atoms: C_19  and  O_34
REMARK   11  A    between atoms: C_22  and  C_33
REMARK   12  A    between atoms: C_30  and  O_32
REMARK   13  A    between atoms: C_36  and  O_37
REMARK   14  A    between atoms: C_40  and  O_41
REMARK   15  A    between atoms: O_41  and  C_42
REMARK   16  A    between atoms: C_45  and  C_53
REMARK   17  A    between atoms: C_47  and  O_52
REMARK   18  A    between atoms: C_49  and  O_51
REMARK   19  A    between atoms: C_53  and  O_54
REMARK   20  A    between atoms: C_55  and  O_57
REMARK                            x       y       z     vdW  Elec       q    Type
REMARK                         _______ _______ _______ _____ _____    ______ ____
ROOT
ATOM      1  C   LIG A   1      -8.194  -3.306 135.088  0.00  0.00    +0.013 C 
ATOM      2  C   LIG A   1      -7.010  -2.929 134.155  0.00  0.00    -0.008 C 
ATOM      3  C   LIG A   1      -6.133  -1.914 134.923  0.00  0.00    +0.010 C 
ATOM      4  C   LIG A   1      -5.072  -1.243 134.057  0.00  0.00    +0.019 C 
ATOM      5  C   LIG A   1      -5.654  -0.486 132.840  0.00  0.00    +0.077 C 
ATOM      6  C   LIG A   1      -4.469   0.031 132.011  0.00  0.00    +0.019 C 
ATOM      7  C   LIG A   1      -4.962   0.828 130.818  0.00  0.00    +0.012 C 
ATOM      8  C   LIG A   1      -5.886   0.053 129.830  0.00  0.00    -0.005 C 
ATOM      9  C   LIG A   1      -6.872   1.072 129.054  0.00  0.00    -0.019 C 
ATOM     10  C   LIG A   1      -6.082   2.339 128.582  0.00  0.00    +0.008 C 
ATOM     11  C   LIG A   1      -5.953   2.561 127.102  0.00  0.00    +0.005 C 
ATOM     12  C   LIG A   1      -7.312   2.349 126.441  0.00  0.00    +0.008 C 
ATOM     13  C   LIG A   1      -7.510   3.207 125.131  0.00  0.00    +0.049 C 
ATOM     14  C   LIG A   1      -8.823   2.766 124.425  0.00  0.00    +0.154 C 
ATOM     15  C   LIG A   1      -8.982   1.247 124.294  0.00  0.00    +0.144 C 
ATOM     16  C   LIG A   1      -8.946   0.567 125.664  0.00  0.00    +0.041 C 
ATOM     17  C   LIG A   1      -7.609   0.794 126.428  0.00  0.00    -0.022 C 
ATOM     18  C   LIG A   1      -7.770   0.333 127.955  0.00  0.00    +0.006 C 
ATOM     19  C   LIG A   1      -7.980  -1.193 128.267  0.00  0.00    +0.031 C 
ATOM     20  C   LIG A   1      -7.644  -1.651 129.684  0.00  0.00    -0.026 C 
ATOM     21  C   LIG A   1      -6.740  -1.053 130.495  0.00  0.00    -0.060 C 
ATOM     22  C   LIG A   1      -6.413  -1.538 131.949  0.00  0.00    +0.061 C 
ATOM     23  C   LIG A   1      -7.511  -2.331 132.781  0.00  0.00    +0.128 C 
ATOM     24  C   LIG A   1      -6.531  -0.060 125.725  0.00  0.00    +0.012 C 
ATOM     25  C   LIG A   1      -7.945   1.648 130.066  0.00  0.00    +0.012 C 
ATOM     26  C   LIG A   1      -4.886  -0.634 128.846  0.00  0.00    +0.016 C 
ATOM     27  C   LIG A   1      -6.215  -4.234 133.909  0.00  0.00    +0.013 C 
ENDROOT
BRANCH  23  28
ATOM     28  O   LIG A   1      -8.666  -1.530 133.007  0.00  0.00    -0.391 OA
ATOM     29  H   LIG A   1      -9.368  -2.087 133.400  0.00  0.00    +0.210 HD
ENDBRANCH  23  28
BRANCH  15  30
ATOM     30  O   LIG A   1     -10.253   0.978 123.687  0.00  0.00    -0.389 OA
ATOM     31  H   LIG A   1     -10.874   0.893 124.440  0.00  0.00    +0.210 HD
ENDBRANCH  15  30
BRANCH  14  32
ATOM     32  O   LIG A   1      -9.012   3.346 123.123  0.00  0.00    -0.389 OA
ATOM     33  H   LIG A   1      -8.778   4.300 123.183  0.00  0.00    +0.210 HD
ENDBRANCH  14  32
BRANCH   5  34
ATOM     34  C   LIG A   1      -6.481   0.740 133.364  0.00  0.00    +0.316 C 
ATOM     35  O   LIG A   1      -7.672   0.866 133.255  0.00  0.00    -0.250 OA
BRANCH  34  36
ATOM     36  O   LIG A   1      -5.680   1.616 134.063  0.00  0.00    -0.432 OA
BRANCH  36  37
ATOM     37  C   LIG A   1      -6.219   2.898 134.474  0.00  0.00    +0.342 C 
ATOM     38  O   LIG A   1      -6.096   3.832 133.368  0.00  0.00    -0.331 OA
ATOM     39  C   LIG A   1      -4.807   4.453 133.190  0.00  0.00    +0.179 C 
ATOM     40  C   LIG A   1      -3.698   3.733 133.959  0.00  0.00    +0.177 C 
ATOM     41  C   LIG A   1      -4.029   3.686 135.452  0.00  0.00    +0.180 C 
ATOM     42  C   LIG A   1      -5.511   3.419 135.742  0.00  0.00    +0.214 C 
BRANCH  41  43
ATOM     43  O   LIG A   1      -3.218   2.643 136.017  0.00  0.00    -0.386 OA
ATOM     44  H   LIG A   1      -3.659   1.812 135.742  0.00  0.00    +0.210 HD
ENDBRANCH  41  43
BRANCH  40  45
ATOM     45  O   LIG A   1      -2.386   4.290 133.833  0.00  0.00    -0.387 OA
ATOM     46  H   LIG A   1      -1.774   3.536 133.694  0.00  0.00    +0.210 HD
ENDBRANCH  40  45
BRANCH  42  47
ATOM     47  O   LIG A   1      -6.125   4.616 136.243  0.00  0.00    -0.383 OA
ATOM     48  H   LIG A   1      -5.572   4.898 136.997  0.00  0.00    +0.210 HD
ENDBRANCH  42  47
BRANCH  39  49
ATOM     49  C   LIG A   1      -4.500   4.459 131.681  0.00  0.00    +0.190 C 
BRANCH  49  50
ATOM     50  O   LIG A   1      -5.644   4.810 130.905  0.00  0.00    -0.392 OA
ATOM     51  H   LIG A   1      -6.024   3.974 130.576  0.00  0.00    +0.209 HD
ENDBRANCH  49  50
ENDBRANCH  39  49
ENDBRANCH  36  37
ENDBRANCH  34  36
ENDBRANCH   5  34
BRANCH  13  52
ATOM     52  C   LIG A   1      -7.738   4.722 125.505  0.00  0.00    +0.167 C 
BRANCH  52  53
ATOM     53  O   LIG A   1      -9.110   5.079 125.606  0.00  0.00    -0.394 OA
ATOM     54  H   LIG A   1      -9.336   5.120 126.552  0.00  0.00    +0.209 HD
ENDBRANCH  52  53
ENDBRANCH  13  52
BRANCH  13  55
ATOM     55  C   LIG A   1      -6.268   3.135 124.213  0.00  0.00    +0.167 C 
BRANCH  55  56
ATOM     56  O   LIG A   1      -6.286   4.178 123.237  0.00  0.00    -0.394 OA
ATOM     57  H   LIG A   1      -6.969   3.930 122.587  0.00  0.00    +0.209 HD
ENDBRANCH  55  56
ENDBRANCH  13  55
TORSDOF 15
ENDMDL
