MODEL 1
REMARK VINA RESULT:      -9.4      0.000      0.000
REMARK  Name = NuBBE_557
REMARK  14 active torsions:
REMARK  status: ('A' for Active; 'I' for Inactive)
REMARK    1  A    between atoms: O_1  and  C_2
REMARK    2  A    between atoms: C_6  and  O_7
REMARK    3  A    between atoms: C_10  and  O_11
REMARK    4  A    between atoms: O_11  and  C_12
REMARK    5  A    between atoms: C_15  and  C_37
REMARK    6  A    between atoms: C_17  and  O_25
REMARK    7  A    between atoms: C_19  and  O_24
REMARK    8  A    between atoms: C_21  and  O_23
REMARK    9  A    between atoms: O_25  and  C_26
REMARK   10  A    between atoms: C_26  and  C_27
REMARK   11  A    between atoms: C_28  and  C_29
REMARK   12  A    between atoms: C_32  and  O_35
REMARK   13  A    between atoms: C_38  and  C_40
REMARK   14  A    between atoms: C_43  and  O_46
REMARK                            x       y       z     vdW  Elec       q    Type
REMARK                         _______ _______ _______ _____ _____    ______ ____
ROOT
ATOM      1  O   LIG A   1      -6.832   4.401 127.692  0.00  0.00    -0.453 OA
ENDROOT
BRANCH   1   9
ATOM      2  C   LIG A   1     -10.067   1.077 123.171  0.00  0.00    +0.124 A 
ATOM      3  C   LIG A   1      -9.983   0.956 124.558  0.00  0.00    +0.092 A 
ATOM      4  C   LIG A   1      -9.116   1.794 125.269  0.00  0.00    +0.146 A 
ATOM      5  C   LIG A   1      -8.357   2.744 124.599  0.00  0.00    +0.109 A 
ATOM      6  C   LIG A   1      -8.445   2.848 123.205  0.00  0.00    +0.135 A 
ATOM      7  C   LIG A   1      -9.303   2.017 122.491  0.00  0.00    +0.091 A 
ATOM      8  C   LIG A   1      -7.509   3.650 125.384  0.00  0.00    +0.238 A 
ATOM      9  C   LIG A   1      -7.503   3.501 126.872  0.00  0.00    +0.214 A 
ATOM     10  C   LIG A   1      -8.271   2.504 127.378  0.00  0.00    +0.181 A 
ATOM     11  O   LIG A   1      -9.055   1.635 126.627  0.00  0.00    -0.451 OA
ATOM     12  O   LIG A   1      -6.888   4.522 124.783  0.00  0.00    -0.283 OA
BRANCH  10  13
ATOM     13  C   LIG A   1      -8.411   2.209 128.822  0.00  0.00    +0.021 A 
ATOM     14  C   LIG A   1      -7.726   1.127 129.398  0.00  0.00    +0.015 A 
ATOM     15  C   LIG A   1      -7.783   0.894 130.779  0.00  0.00    +0.046 A 
ATOM     16  C   LIG A   1      -8.517   1.751 131.591  0.00  0.00    +0.117 A 
ATOM     17  C   LIG A   1      -9.177   2.846 131.046  0.00  0.00    +0.046 A 
ATOM     18  C   LIG A   1      -9.123   3.076 129.665  0.00  0.00    +0.015 A 
BRANCH  16  19
ATOM     19  O   LIG A   1      -8.608   1.558 132.938  0.00  0.00    -0.507 OA
ATOM     20  H   LIG A   1      -8.825   0.626 133.109  0.00  0.00    +0.292 HD
ENDBRANCH  16  19
ENDBRANCH  10  13
BRANCH   2  21
ATOM     21  O   LIG A   1     -10.892   0.286 122.429  0.00  0.00    -0.506 OA
ATOM     22  H   LIG A   1     -10.785   0.496 121.486  0.00  0.00    +0.292 HD
ENDBRANCH   2  21
BRANCH   6  23
ATOM     23  O   LIG A   1      -7.716   3.747 122.476  0.00  0.00    -0.506 OA
ATOM     24  H   LIG A   1      -7.442   3.308 121.638  0.00  0.00    +0.292 HD
ENDBRANCH   6  23
ENDBRANCH   1   9
BRANCH   1  25
ATOM     25  C   LIG A   1      -5.499   4.090 128.192  0.00  0.00    +0.340 C 
ATOM     26  O   LIG A   1      -5.483   4.155 129.615  0.00  0.00    -0.333 OA
ATOM     27  C   LIG A   1      -4.180   4.219 130.220  0.00  0.00    +0.163 C 
ATOM     28  C   LIG A   1      -3.431   5.470 129.727  0.00  0.00    +0.236 C 
ATOM     29  C   LIG A   1      -3.248   5.432 128.220  0.00  0.00    +0.192 C 
ATOM     30  C   LIG A   1      -4.551   5.104 127.478  0.00  0.00    +0.215 C 
ATOM     31  C   LIG A   1      -3.395   2.917 130.085  0.00  0.00    +0.042 C 
BRANCH  30  32
ATOM     32  O   LIG A   1      -4.165   4.626 126.161  0.00  0.00    -0.383 OA
ATOM     33  H   LIG A   1      -3.601   5.309 125.751  0.00  0.00    +0.210 HD
ENDBRANCH  30  32
BRANCH  29  34
ATOM     34  O   LIG A   1      -2.221   4.494 127.872  0.00  0.00    -0.385 OA
ATOM     35  H   LIG A   1      -2.703   3.720 127.512  0.00  0.00    +0.210 HD
ENDBRANCH  29  34
BRANCH  28  36
ATOM     36  O   LIG A   1      -4.295   6.579 130.052  0.00  0.00    -0.453 OA
BRANCH  36  37
ATOM     37  C   LIG A   1      -4.468   6.859 131.360  0.00  0.00    +0.332 C 
ATOM     38  O   LIG A   1      -3.605   7.101 132.172  0.00  0.00    -0.246 OA
BRANCH  37  39
ATOM     39  C   LIG A   1      -5.906   6.738 131.700  0.00  0.00    +0.092 C 
ATOM     40  C   LIG A   1      -6.892   6.891 130.800  0.00  0.00    +0.015 C 
BRANCH  40  41
ATOM     41  C   LIG A   1      -8.321   6.770 131.112  0.00  0.00    -0.025 A 
ATOM     42  C   LIG A   1      -9.305   7.173 130.199  0.00  0.00    +0.011 A 
ATOM     43  C   LIG A   1     -10.659   6.996 130.483  0.00  0.00    +0.046 A 
ATOM     44  C   LIG A   1     -11.033   6.400 131.681  0.00  0.00    +0.117 A 
ATOM     45  C   LIG A   1     -10.077   5.995 132.603  0.00  0.00    +0.046 A 
ATOM     46  C   LIG A   1      -8.721   6.174 132.318  0.00  0.00    +0.011 A 
BRANCH  44  47
ATOM     47  O   LIG A   1     -12.346   6.190 131.980  0.00  0.00    -0.507 OA
ATOM     48  H   LIG A   1     -12.446   5.275 132.293  0.00  0.00    +0.292 HD
ENDBRANCH  44  47
ENDBRANCH  40  41
ENDBRANCH  37  39
ENDBRANCH  36  37
ENDBRANCH  28  36
ENDBRANCH   1  25
TORSDOF 13
ENDMDL
MODEL 2
REMARK VINA RESULT:      -9.2      3.388      6.949
REMARK  Name = NuBBE_557
REMARK  14 active torsions:
REMARK  status: ('A' for Active; 'I' for Inactive)
REMARK    1  A    between atoms: O_1  and  C_2
REMARK    2  A    between atoms: C_6  and  O_7
REMARK    3  A    between atoms: C_10  and  O_11
REMARK    4  A    between atoms: O_11  and  C_12
REMARK    5  A    between atoms: C_15  and  C_37
REMARK    6  A    between atoms: C_17  and  O_25
REMARK    7  A    between atoms: C_19  and  O_24
REMARK    8  A    between atoms: C_21  and  O_23
REMARK    9  A    between atoms: O_25  and  C_26
REMARK   10  A    between atoms: C_26  and  C_27
REMARK   11  A    between atoms: C_28  and  C_29
REMARK   12  A    between atoms: C_32  and  O_35
REMARK   13  A    between atoms: C_38  and  C_40
REMARK   14  A    between atoms: C_43  and  O_46
REMARK                            x       y       z     vdW  Elec       q    Type
REMARK                         _______ _______ _______ _____ _____    ______ ____
ROOT
ATOM      1  O   LIG A   1      -5.424  -0.138 128.066  0.00  0.00    -0.453 OA
ENDROOT
BRANCH   1   9
ATOM      2  C   LIG A   1      -9.426  -3.160 123.967  0.00  0.00    +0.124 A 
ATOM      3  C   LIG A   1      -9.347  -3.121 125.358  0.00  0.00    +0.092 A 
ATOM      4  C   LIG A   1      -8.296  -2.425 125.968  0.00  0.00    +0.146 A 
ATOM      5  C   LIG A   1      -7.349  -1.771 125.191  0.00  0.00    +0.109 A 
ATOM      6  C   LIG A   1      -7.436  -1.828 123.795  0.00  0.00    +0.135 A 
ATOM      7  C   LIG A   1      -8.476  -2.518 123.181  0.00  0.00    +0.091 A 
ATOM      8  C   LIG A   1      -6.299  -0.997 125.865  0.00  0.00    +0.238 A 
ATOM      9  C   LIG A   1      -6.301  -0.953 127.360  0.00  0.00    +0.214 A 
ATOM     10  C   LIG A   1      -7.271  -1.671 127.979  0.00  0.00    +0.181 A 
ATOM     11  O   LIG A   1      -8.249  -2.421 127.335  0.00  0.00    -0.451 OA
ATOM     12  O   LIG A   1      -5.503  -0.377 125.165  0.00  0.00    -0.283 OA
BRANCH  10  13
ATOM     13  C   LIG A   1      -7.449  -1.740 129.447  0.00  0.00    +0.021 A 
ATOM     14  C   LIG A   1      -6.902  -2.804 130.182  0.00  0.00    +0.015 A 
ATOM     15  C   LIG A   1      -6.991  -2.831 131.581  0.00  0.00    +0.046 A 
ATOM     16  C   LIG A   1      -7.618  -1.786 132.250  0.00  0.00    +0.117 A 
ATOM     17  C   LIG A   1      -8.138  -0.707 131.544  0.00  0.00    +0.046 A 
ATOM     18  C   LIG A   1      -8.053  -0.684 130.146  0.00  0.00    +0.015 A 
BRANCH  16  19
ATOM     19  O   LIG A   1      -7.735  -1.775 133.609  0.00  0.00    -0.507 OA
ATOM     20  H   LIG A   1      -6.972  -1.307 133.988  0.00  0.00    +0.292 HD
ENDBRANCH  16  19
ENDBRANCH  10  13
BRANCH   2  21
ATOM     21  O   LIG A   1     -10.426  -3.825 123.322  0.00  0.00    -0.506 OA
ATOM     22  H   LIG A   1     -11.158  -3.991 123.940  0.00  0.00    +0.292 HD
ENDBRANCH   2  21
BRANCH   6  23
ATOM     23  O   LIG A   1      -6.530  -1.223 122.966  0.00  0.00    -0.506 OA
ATOM     24  H   LIG A   1      -6.960  -1.094 122.089  0.00  0.00    +0.292 HD
ENDBRANCH   6  23
ENDBRANCH   1   9
BRANCH   1  25
ATOM     25  C   LIG A   1      -5.665   1.296 128.161  0.00  0.00    +0.340 C 
ATOM     26  O   LIG A   1      -7.042   1.577 127.929  0.00  0.00    -0.333 OA
ATOM     27  C   LIG A   1      -7.356   2.951 127.645  0.00  0.00    +0.163 C 
ATOM     28  C   LIG A   1      -6.608   3.414 126.383  0.00  0.00    +0.236 C 
ATOM     29  C   LIG A   1      -5.105   3.307 126.575  0.00  0.00    +0.192 C 
ATOM     30  C   LIG A   1      -4.681   1.941 127.135  0.00  0.00    +0.215 C 
ATOM     31  C   LIG A   1      -7.183   3.865 128.855  0.00  0.00    +0.042 C 
BRANCH  30  32
ATOM     32  O   LIG A   1      -3.362   2.128 127.717  0.00  0.00    -0.383 OA
ATOM     33  H   LIG A   1      -3.378   2.959 128.227  0.00  0.00    +0.210 HD
ENDBRANCH  30  32
BRANCH  29  34
ATOM     34  O   LIG A   1      -4.641   4.365 127.424  0.00  0.00    -0.385 OA
ATOM     35  H   LIG A   1      -3.929   4.801 126.912  0.00  0.00    +0.210 HD
ENDBRANCH  29  34
BRANCH  28  36
ATOM     36  O   LIG A   1      -7.000   2.487 125.350  0.00  0.00    -0.453 OA
BRANCH  36  37
ATOM     37  C   LIG A   1      -8.157   2.741 124.704  0.00  0.00    +0.332 C 
ATOM     38  O   LIG A   1      -9.267   2.396 125.039  0.00  0.00    -0.246 OA
BRANCH  37  39
ATOM     39  C   LIG A   1      -7.863   3.447 123.435  0.00  0.00    +0.092 C 
ATOM     40  C   LIG A   1      -6.864   3.094 122.607  0.00  0.00    +0.015 C 
BRANCH  40  41
ATOM     41  C   LIG A   1      -6.558   3.775 121.344  0.00  0.00    -0.025 A 
ATOM     42  C   LIG A   1      -7.497   3.844 120.305  0.00  0.00    +0.011 A 
ATOM     43  C   LIG A   1      -7.217   4.547 119.134  0.00  0.00    +0.046 A 
ATOM     44  C   LIG A   1      -5.997   5.197 119.003  0.00  0.00    +0.117 A 
ATOM     45  C   LIG A   1      -5.049   5.142 120.017  0.00  0.00    +0.046 A 
ATOM     46  C   LIG A   1      -5.330   4.436 121.189  0.00  0.00    +0.011 A 
BRANCH  44  47
ATOM     47  O   LIG A   1      -5.700   5.913 117.882  0.00  0.00    -0.507 OA
ATOM     48  H   LIG A   1      -6.110   5.472 117.119  0.00  0.00    +0.292 HD
ENDBRANCH  44  47
ENDBRANCH  40  41
ENDBRANCH  37  39
ENDBRANCH  36  37
ENDBRANCH  28  36
ENDBRANCH   1  25
TORSDOF 13
ENDMDL
MODEL 3
REMARK VINA RESULT:      -8.8      2.683      6.128
REMARK  Name = NuBBE_557
REMARK  14 active torsions:
REMARK  status: ('A' for Active; 'I' for Inactive)
REMARK    1  A    between atoms: O_1  and  C_2
REMARK    2  A    between atoms: C_6  and  O_7
REMARK    3  A    between atoms: C_10  and  O_11
REMARK    4  A    between atoms: O_11  and  C_12
REMARK    5  A    between atoms: C_15  and  C_37
REMARK    6  A    between atoms: C_17  and  O_25
REMARK    7  A    between atoms: C_19  and  O_24
REMARK    8  A    between atoms: C_21  and  O_23
REMARK    9  A    between atoms: O_25  and  C_26
REMARK   10  A    between atoms: C_26  and  C_27
REMARK   11  A    between atoms: C_28  and  C_29
REMARK   12  A    between atoms: C_32  and  O_35
REMARK   13  A    between atoms: C_38  and  C_40
REMARK   14  A    between atoms: C_43  and  O_46
REMARK                            x       y       z     vdW  Elec       q    Type
REMARK                         _______ _______ _______ _____ _____    ______ ____
ROOT
ATOM      1  O   LIG A   1      -6.593   4.905 128.921  0.00  0.00    -0.453 OA
ENDROOT
BRANCH   1   9
ATOM      2  C   LIG A   1     -12.339   6.902 131.144  0.00  0.00    +0.124 A 
ATOM      3  C   LIG A   1     -11.178   6.463 131.779  0.00  0.00    +0.092 A 
ATOM      4  C   LIG A   1     -10.101   6.012 131.007  0.00  0.00    +0.146 A 
ATOM      5  C   LIG A   1     -10.186   6.013 129.621  0.00  0.00    +0.109 A 
ATOM      6  C   LIG A   1     -11.363   6.448 128.998  0.00  0.00    +0.135 A 
ATOM      7  C   LIG A   1     -12.438   6.896 129.758  0.00  0.00    +0.091 A 
ATOM      8  C   LIG A   1      -9.014   5.596 128.842  0.00  0.00    +0.238 A 
ATOM      9  C   LIG A   1      -7.782   5.185 129.583  0.00  0.00    +0.214 A 
ATOM     10  C   LIG A   1      -7.863   5.204 130.937  0.00  0.00    +0.181 A 
ATOM     11  O   LIG A   1      -8.985   5.578 131.669  0.00  0.00    -0.451 OA
ATOM     12  O   LIG A   1      -9.085   5.658 127.618  0.00  0.00    -0.283 OA
BRANCH  10  13
ATOM     13  C   LIG A   1      -6.748   4.849 131.845  0.00  0.00    +0.021 A 
ATOM     14  C   LIG A   1      -6.153   3.579 131.780  0.00  0.00    +0.015 A 
ATOM     15  C   LIG A   1      -5.042   3.266 132.575  0.00  0.00    +0.046 A 
ATOM     16  C   LIG A   1      -4.514   4.228 133.428  0.00  0.00    +0.117 A 
ATOM     17  C   LIG A   1      -5.068   5.501 133.485  0.00  0.00    +0.046 A 
ATOM     18  C   LIG A   1      -6.182   5.812 132.695  0.00  0.00    +0.015 A 
BRANCH  16  19
ATOM     19  O   LIG A   1      -3.439   3.965 134.226  0.00  0.00    -0.507 OA
ATOM     20  H   LIG A   1      -2.647   3.878 133.670  0.00  0.00    +0.292 HD
ENDBRANCH  16  19
ENDBRANCH  10  13
BRANCH   2  21
ATOM     21  O   LIG A   1     -13.418   7.348 131.848  0.00  0.00    -0.506 OA
ATOM     22  H   LIG A   1     -13.853   6.599 132.288  0.00  0.00    +0.292 HD
ENDBRANCH   2  21
BRANCH   6  23
ATOM     23  O   LIG A   1     -11.527   6.463 127.639  0.00  0.00    -0.506 OA
ATOM     24  H   LIG A   1     -12.388   6.032 127.432  0.00  0.00    +0.292 HD
ENDBRANCH   6  23
ENDBRANCH   1   9
BRANCH   1  25
ATOM     25  C   LIG A   1      -6.550   3.881 127.885  0.00  0.00    +0.340 C 
ATOM     26  O   LIG A   1      -6.094   2.648 128.433  0.00  0.00    -0.333 OA
ATOM     27  C   LIG A   1      -5.671   1.661 127.477  0.00  0.00    +0.163 C 
ATOM     28  C   LIG A   1      -4.507   2.209 126.634  0.00  0.00    +0.236 C 
ATOM     29  C   LIG A   1      -4.929   3.451 125.870  0.00  0.00    +0.192 C 
ATOM     30  C   LIG A   1      -5.641   4.477 126.764  0.00  0.00    +0.215 C 
ATOM     31  C   LIG A   1      -6.827   1.085 126.663  0.00  0.00    +0.042 C 
BRANCH  30  32
ATOM     32  O   LIG A   1      -6.400   5.341 125.875  0.00  0.00    -0.383 OA
ATOM     33  H   LIG A   1      -7.339   5.090 125.948  0.00  0.00    +0.210 HD
ENDBRANCH  30  32
BRANCH  29  34
ATOM     34  O   LIG A   1      -5.763   3.088 124.760  0.00  0.00    -0.385 OA
ATOM     35  H   LIG A   1      -6.286   3.893 124.567  0.00  0.00    +0.210 HD
ENDBRANCH  29  34
BRANCH  28  36
ATOM     36  O   LIG A   1      -3.494   2.587 127.589  0.00  0.00    -0.453 OA
BRANCH  36  37
ATOM     37  C   LIG A   1      -2.529   3.427 127.161  0.00  0.00    +0.332 C 
ATOM     38  O   LIG A   1      -1.784   3.260 126.222  0.00  0.00    -0.246 OA
BRANCH  37  39
ATOM     39  C   LIG A   1      -2.442   4.584 128.083  0.00  0.00    +0.092 C 
ATOM     40  C   LIG A   1      -3.013   4.601 129.301  0.00  0.00    +0.015 C 
BRANCH  40  41
ATOM     41  C   LIG A   1      -2.935   5.732 130.233  0.00  0.00    -0.025 A 
ATOM     42  C   LIG A   1      -1.969   5.778 131.247  0.00  0.00    +0.011 A 
ATOM     43  C   LIG A   1      -1.866   6.886 132.087  0.00  0.00    +0.046 A 
ATOM     44  C   LIG A   1      -2.725   7.962 131.905  0.00  0.00    +0.117 A 
ATOM     45  C   LIG A   1      -3.692   7.940 130.909  0.00  0.00    +0.046 A 
ATOM     46  C   LIG A   1      -3.795   6.828 130.069  0.00  0.00    +0.011 A 
BRANCH  44  47
ATOM     47  O   LIG A   1      -2.637   9.071 132.692  0.00  0.00    -0.507 OA
ATOM     48  H   LIG A   1      -3.456   9.145 133.211  0.00  0.00    +0.292 HD
ENDBRANCH  44  47
ENDBRANCH  40  41
ENDBRANCH  37  39
ENDBRANCH  36  37
ENDBRANCH  28  36
ENDBRANCH   1  25
TORSDOF 13
ENDMDL
MODEL 4
REMARK VINA RESULT:      -8.8      2.702      4.331
REMARK  Name = NuBBE_557
REMARK  14 active torsions:
REMARK  status: ('A' for Active; 'I' for Inactive)
REMARK    1  A    between atoms: O_1  and  C_2
REMARK    2  A    between atoms: C_6  and  O_7
REMARK    3  A    between atoms: C_10  and  O_11
REMARK    4  A    between atoms: O_11  and  C_12
REMARK    5  A    between atoms: C_15  and  C_37
REMARK    6  A    between atoms: C_17  and  O_25
REMARK    7  A    between atoms: C_19  and  O_24
REMARK    8  A    between atoms: C_21  and  O_23
REMARK    9  A    between atoms: O_25  and  C_26
REMARK   10  A    between atoms: C_26  and  C_27
REMARK   11  A    between atoms: C_28  and  C_29
REMARK   12  A    between atoms: C_32  and  O_35
REMARK   13  A    between atoms: C_38  and  C_40
REMARK   14  A    between atoms: C_43  and  O_46
REMARK                            x       y       z     vdW  Elec       q    Type
REMARK                         _______ _______ _______ _____ _____    ______ ____
ROOT
ATOM      1  O   LIG A   1      -6.606   1.452 129.009  0.00  0.00    -0.453 OA
ENDROOT
BRANCH   1   9
ATOM      2  C   LIG A   1      -9.783   0.478 123.449  0.00  0.00    +0.124 A 
ATOM      3  C   LIG A   1      -9.191  -0.389 124.367  0.00  0.00    +0.092 A 
ATOM      4  C   LIG A   1      -8.493   0.139 125.460  0.00  0.00    +0.146 A 
ATOM      5  C   LIG A   1      -8.401   1.514 125.632  0.00  0.00    +0.109 A 
ATOM      6  C   LIG A   1      -8.992   2.372 124.696  0.00  0.00    +0.135 A 
ATOM      7  C   LIG A   1      -9.687   1.856 123.607  0.00  0.00    +0.091 A 
ATOM      8  C   LIG A   1      -7.718   2.031 126.824  0.00  0.00    +0.238 A 
ATOM      9  C   LIG A   1      -7.149   1.046 127.796  0.00  0.00    +0.214 A 
ATOM     10  C   LIG A   1      -7.289  -0.264 127.473  0.00  0.00    +0.181 A 
ATOM     11  O   LIG A   1      -7.917  -0.746 126.330  0.00  0.00    -0.451 OA
ATOM     12  O   LIG A   1      -7.695   3.247 126.992  0.00  0.00    -0.283 OA
BRANCH  10  13
ATOM     13  C   LIG A   1      -6.809  -1.386 128.312  0.00  0.00    +0.021 A 
ATOM     14  C   LIG A   1      -7.718  -2.171 129.038  0.00  0.00    +0.015 A 
ATOM     15  C   LIG A   1      -7.282  -3.288 129.765  0.00  0.00    +0.046 A 
ATOM     16  C   LIG A   1      -5.934  -3.629 129.755  0.00  0.00    +0.117 A 
ATOM     17  C   LIG A   1      -5.022  -2.884 129.018  0.00  0.00    +0.046 A 
ATOM     18  C   LIG A   1      -5.458  -1.765 128.297  0.00  0.00    +0.015 A 
BRANCH  16  19
ATOM     19  O   LIG A   1      -5.463  -4.702 130.454  0.00  0.00    -0.507 OA
ATOM     20  H   LIG A   1      -6.189  -5.081 130.977  0.00  0.00    +0.292 HD
ENDBRANCH  16  19
ENDBRANCH  10  13
BRANCH   2  21
ATOM     21  O   LIG A   1     -10.472   0.018 122.367  0.00  0.00    -0.506 OA
ATOM     22  H   LIG A   1     -11.206   0.623 122.167  0.00  0.00    +0.292 HD
ENDBRANCH   2  21
BRANCH   6  23
ATOM     23  O   LIG A   1      -8.929   3.736 124.790  0.00  0.00    -0.506 OA
ATOM     24  H   LIG A   1      -8.126   4.037 124.307  0.00  0.00    +0.292 HD
ENDBRANCH   6  23
ENDBRANCH   1   9
BRANCH   1  25
ATOM     25  C   LIG A   1      -7.392   1.364 130.234  0.00  0.00    +0.340 C 
ATOM     26  O   LIG A   1      -8.414   2.356 130.233  0.00  0.00    -0.333 OA
ATOM     27  C   LIG A   1      -9.029   2.616 131.506  0.00  0.00    +0.163 C 
ATOM     28  C   LIG A   1      -7.971   3.095 132.515  0.00  0.00    +0.236 C 
ATOM     29  C   LIG A   1      -6.900   2.038 132.719  0.00  0.00    +0.192 C 
ATOM     30  C   LIG A   1      -6.352   1.493 131.392  0.00  0.00    +0.215 C 
ATOM     31  C   LIG A   1      -9.895   1.459 131.997  0.00  0.00    +0.042 C 
BRANCH  30  32
ATOM     32  O   LIG A   1      -5.740   0.211 131.696  0.00  0.00    -0.383 OA
ATOM     33  H   LIG A   1      -4.969   0.104 131.109  0.00  0.00    +0.210 HD
ENDBRANCH  30  32
BRANCH  29  34
ATOM     34  O   LIG A   1      -7.410   0.970 133.529  0.00  0.00    -0.385 OA
ATOM     35  H   LIG A   1      -7.423   0.191 132.935  0.00  0.00    +0.210 HD
ENDBRANCH  29  34
BRANCH  28  36
ATOM     36  O   LIG A   1      -7.359   4.248 131.901  0.00  0.00    -0.453 OA
BRANCH  36  37
ATOM     37  C   LIG A   1      -7.556   5.440 132.502  0.00  0.00    +0.332 C 
ATOM     38  O   LIG A   1      -7.173   5.771 133.601  0.00  0.00    -0.246 OA
BRANCH  37  39
ATOM     39  C   LIG A   1      -8.411   6.288 131.639  0.00  0.00    +0.092 C 
ATOM     40  C   LIG A   1      -9.741   6.120 131.525  0.00  0.00    +0.015 C 
BRANCH  40  41
ATOM     41  C   LIG A   1     -10.608   6.951 130.681  0.00  0.00    -0.025 A 
ATOM     42  C   LIG A   1     -11.938   7.214 131.037  0.00  0.00    +0.011 A 
ATOM     43  C   LIG A   1     -12.733   8.055 130.260  0.00  0.00    +0.046 A 
ATOM     44  C   LIG A   1     -12.193   8.648 129.125  0.00  0.00    +0.117 A 
ATOM     45  C   LIG A   1     -10.879   8.401 128.750  0.00  0.00    +0.046 A 
ATOM     46  C   LIG A   1     -10.084   7.557 129.529  0.00  0.00    +0.011 A 
BRANCH  44  47
ATOM     47  O   LIG A   1     -12.934   9.494 128.355  0.00  0.00    -0.507 OA
ATOM     48  H   LIG A   1     -12.350  10.195 128.020  0.00  0.00    +0.292 HD
ENDBRANCH  44  47
ENDBRANCH  40  41
ENDBRANCH  37  39
ENDBRANCH  36  37
ENDBRANCH  28  36
ENDBRANCH   1  25
TORSDOF 13
ENDMDL
MODEL 5
REMARK VINA RESULT:      -8.6      3.806      9.507
REMARK  Name = NuBBE_557
REMARK  14 active torsions:
REMARK  status: ('A' for Active; 'I' for Inactive)
REMARK    1  A    between atoms: O_1  and  C_2
REMARK    2  A    between atoms: C_6  and  O_7
REMARK    3  A    between atoms: C_10  and  O_11
REMARK    4  A    between atoms: O_11  and  C_12
REMARK    5  A    between atoms: C_15  and  C_37
REMARK    6  A    between atoms: C_17  and  O_25
REMARK    7  A    between atoms: C_19  and  O_24
REMARK    8  A    between atoms: C_21  and  O_23
REMARK    9  A    between atoms: O_25  and  C_26
REMARK   10  A    between atoms: C_26  and  C_27
REMARK   11  A    between atoms: C_28  and  C_29
REMARK   12  A    between atoms: C_32  and  O_35
REMARK   13  A    between atoms: C_38  and  C_40
REMARK   14  A    between atoms: C_43  and  O_46
REMARK                            x       y       z     vdW  Elec       q    Type
REMARK                         _______ _______ _______ _____ _____    ______ ____
ROOT
ATOM      1  O   LIG A   1      -7.445  -0.766 127.324  0.00  0.00    -0.453 OA
ENDROOT
BRANCH   1   9
ATOM      2  C   LIG A   1      -3.481  -2.591 132.110  0.00  0.00    +0.124 A 
ATOM      3  C   LIG A   1      -3.614  -1.404 131.390  0.00  0.00    +0.092 A 
ATOM      4  C   LIG A   1      -4.533  -1.339 130.335  0.00  0.00    +0.146 A 
ATOM      5  C   LIG A   1      -5.311  -2.444 130.019  0.00  0.00    +0.109 A 
ATOM      6  C   LIG A   1      -5.160  -3.632 130.746  0.00  0.00    +0.135 A 
ATOM      7  C   LIG A   1      -4.249  -3.705 131.794  0.00  0.00    +0.091 A 
ATOM      8  C   LIG A   1      -6.311  -2.319 128.951  0.00  0.00    +0.238 A 
ATOM      9  C   LIG A   1      -6.438  -1.003 128.251  0.00  0.00    +0.214 A 
ATOM     10  C   LIG A   1      -5.583  -0.028 128.649  0.00  0.00    +0.181 A 
ATOM     11  O   LIG A   1      -4.623  -0.160 129.647  0.00  0.00    -0.451 OA
ATOM     12  O   LIG A   1      -7.032  -3.286 128.722  0.00  0.00    -0.283 OA
BRANCH  10  13
ATOM     13  C   LIG A   1      -5.564   1.343 128.092  0.00  0.00    +0.021 A 
ATOM     14  C   LIG A   1      -6.131   2.411 128.805  0.00  0.00    +0.015 A 
ATOM     15  C   LIG A   1      -6.040   3.725 128.326  0.00  0.00    +0.046 A 
ATOM     16  C   LIG A   1      -5.367   3.976 127.134  0.00  0.00    +0.117 A 
ATOM     17  C   LIG A   1      -4.771   2.938 126.428  0.00  0.00    +0.046 A 
ATOM     18  C   LIG A   1      -4.868   1.625 126.906  0.00  0.00    +0.015 A 
BRANCH  16  19
ATOM     19  O   LIG A   1      -5.261   5.237 126.625  0.00  0.00    -0.507 OA
ATOM     20  H   LIG A   1      -4.498   5.272 126.025  0.00  0.00    +0.292 HD
ENDBRANCH  16  19
ENDBRANCH  10  13
BRANCH   2  21
ATOM     21  O   LIG A   1      -2.601  -2.709 133.144  0.00  0.00    -0.506 OA
ATOM     22  H   LIG A   1      -3.089  -2.756 133.984  0.00  0.00    +0.292 HD
ENDBRANCH   2  21
BRANCH   6  23
ATOM     23  O   LIG A   1      -5.880  -4.765 130.481  0.00  0.00    -0.506 OA
ATOM     24  H   LIG A   1      -5.744  -4.997 129.533  0.00  0.00    +0.292 HD
ENDBRANCH   6  23
ENDBRANCH   1   9
BRANCH   1  25
ATOM     25  C   LIG A   1      -7.371  -1.349 125.990  0.00  0.00    +0.340 C 
ATOM     26  O   LIG A   1      -6.966  -0.362 125.046  0.00  0.00    -0.333 OA
ATOM     27  C   LIG A   1      -7.189  -0.695 123.665  0.00  0.00    +0.163 C 
ATOM     28  C   LIG A   1      -8.688  -0.935 123.415  0.00  0.00    +0.236 C 
ATOM     29  C   LIG A   1      -9.201  -2.086 124.263  0.00  0.00    +0.192 C 
ATOM     30  C   LIG A   1      -8.785  -1.960 125.737  0.00  0.00    +0.215 C 
ATOM     31  C   LIG A   1      -6.277  -1.813 123.166  0.00  0.00    +0.042 C 
BRANCH  30  32
ATOM     32  O   LIG A   1      -8.894  -3.291 126.309  0.00  0.00    -0.383 OA
ATOM     33  H   LIG A   1      -8.535  -3.254 127.215  0.00  0.00    +0.210 HD
ENDBRANCH  30  32
BRANCH  29  34
ATOM     34  O   LIG A   1      -8.754  -3.335 123.720  0.00  0.00    -0.385 OA
ATOM     35  H   LIG A   1      -8.954  -3.996 124.416  0.00  0.00    +0.210 HD
ENDBRANCH  29  34
BRANCH  28  36
ATOM     36  O   LIG A   1      -9.342   0.275 123.850  0.00  0.00    -0.453 OA
BRANCH  36  37
ATOM     37  C   LIG A   1     -10.156   0.885 122.964  0.00  0.00    +0.332 C 
ATOM     38  O   LIG A   1     -11.357   0.766 122.879  0.00  0.00    -0.246 OA
BRANCH  37  39
ATOM     39  C   LIG A   1      -9.340   1.680 122.016  0.00  0.00    +0.092 C 
ATOM     40  C   LIG A   1      -8.483   2.640 122.405  0.00  0.00    +0.015 C 
BRANCH  40  41
ATOM     41  C   LIG A   1      -7.662   3.436 121.485  0.00  0.00    -0.025 A 
ATOM     42  C   LIG A   1      -6.314   3.706 121.757  0.00  0.00    +0.011 A 
ATOM     43  C   LIG A   1      -5.527   4.409 120.846  0.00  0.00    +0.046 A 
ATOM     44  C   LIG A   1      -6.087   4.837 119.648  0.00  0.00    +0.117 A 
ATOM     45  C   LIG A   1      -7.421   4.584 119.356  0.00  0.00    +0.046 A 
ATOM     46  C   LIG A   1      -8.208   3.880 120.271  0.00  0.00    +0.011 A 
BRANCH  44  47
ATOM     47  O   LIG A   1      -5.342   5.506 118.725  0.00  0.00    -0.507 OA
ATOM     48  H   LIG A   1      -4.408   5.272 118.856  0.00  0.00    +0.292 HD
ENDBRANCH  44  47
ENDBRANCH  40  41
ENDBRANCH  37  39
ENDBRANCH  36  37
ENDBRANCH  28  36
ENDBRANCH   1  25
TORSDOF 13
ENDMDL
MODEL 6
REMARK VINA RESULT:      -8.6      1.997      5.051
REMARK  Name = NuBBE_557
REMARK  14 active torsions:
REMARK  status: ('A' for Active; 'I' for Inactive)
REMARK    1  A    between atoms: O_1  and  C_2
REMARK    2  A    between atoms: C_6  and  O_7
REMARK    3  A    between atoms: C_10  and  O_11
REMARK    4  A    between atoms: O_11  and  C_12
REMARK    5  A    between atoms: C_15  and  C_37
REMARK    6  A    between atoms: C_17  and  O_25
REMARK    7  A    between atoms: C_19  and  O_24
REMARK    8  A    between atoms: C_21  and  O_23
REMARK    9  A    between atoms: O_25  and  C_26
REMARK   10  A    between atoms: C_26  and  C_27
REMARK   11  A    between atoms: C_28  and  C_29
REMARK   12  A    between atoms: C_32  and  O_35
REMARK   13  A    between atoms: C_38  and  C_40
REMARK   14  A    between atoms: C_43  and  O_46
REMARK                            x       y       z     vdW  Elec       q    Type
REMARK                         _______ _______ _______ _____ _____    ______ ____
ROOT
ATOM      1  O   LIG A   1      -6.441   4.960 127.172  0.00  0.00    -0.453 OA
ENDROOT
BRANCH   1   9
ATOM      2  C   LIG A   1      -9.969   1.321 123.139  0.00  0.00    +0.124 A 
ATOM      3  C   LIG A   1      -9.922   1.422 124.528  0.00  0.00    +0.092 A 
ATOM      4  C   LIG A   1      -8.975   2.263 125.125  0.00  0.00    +0.146 A 
ATOM      5  C   LIG A   1      -8.098   2.997 124.337  0.00  0.00    +0.109 A 
ATOM      6  C   LIG A   1      -8.151   2.878 122.943  0.00  0.00    +0.135 A 
ATOM      7  C   LIG A   1      -9.088   2.044 122.342  0.00  0.00    +0.091 A 
ATOM      8  C   LIG A   1      -7.163   3.919 124.994  0.00  0.00    +0.238 A 
ATOM      9  C   LIG A   1      -7.199   4.018 126.486  0.00  0.00    +0.214 A 
ATOM     10  C   LIG A   1      -8.087   3.212 127.119  0.00  0.00    +0.181 A 
ATOM     11  O   LIG A   1      -8.955   2.325 126.492  0.00  0.00    -0.451 OA
ATOM     12  O   LIG A   1      -6.434   4.604 124.282  0.00  0.00    -0.283 OA
BRANCH  10  13
ATOM     13  C   LIG A   1      -8.284   3.177 128.586  0.00  0.00    +0.021 A 
ATOM     14  C   LIG A   1      -8.301   1.953 129.274  0.00  0.00    +0.015 A 
ATOM     15  C   LIG A   1      -8.398   1.916 130.672  0.00  0.00    +0.046 A 
ATOM     16  C   LIG A   1      -8.468   3.107 131.387  0.00  0.00    +0.117 A 
ATOM     17  C   LIG A   1      -8.421   4.329 130.729  0.00  0.00    +0.046 A 
ATOM     18  C   LIG A   1      -8.329   4.365 129.332  0.00  0.00    +0.015 A 
BRANCH  16  19
ATOM     19  O   LIG A   1      -8.572   3.119 132.747  0.00  0.00    -0.507 OA
ATOM     20  H   LIG A   1      -7.905   3.724 133.110  0.00  0.00    +0.292 HD
ENDBRANCH  16  19
ENDBRANCH  10  13
BRANCH   2  21
ATOM     21  O   LIG A   1     -10.868   0.516 122.506  0.00  0.00    -0.506 OA
ATOM     22  H   LIG A   1     -10.941  -0.328 122.981  0.00  0.00    +0.292 HD
ENDBRANCH   2  21
BRANCH   6  23
ATOM     23  O   LIG A   1      -7.309   3.556 122.103  0.00  0.00    -0.506 OA
ATOM     24  H   LIG A   1      -7.503   4.518 122.190  0.00  0.00    +0.292 HD
ENDBRANCH   6  23
ENDBRANCH   1   9
BRANCH   1  25
ATOM     25  C   LIG A   1      -5.062   4.667 127.544  0.00  0.00    +0.340 C 
ATOM     26  O   LIG A   1      -4.707   3.356 127.114  0.00  0.00    -0.333 OA
ATOM     27  C   LIG A   1      -3.519   2.807 127.710  0.00  0.00    +0.163 C 
ATOM     28  C   LIG A   1      -3.686   2.724 129.237  0.00  0.00    +0.236 C 
ATOM     29  C   LIG A   1      -3.915   4.103 129.832  0.00  0.00    +0.192 C 
ATOM     30  C   LIG A   1      -5.003   4.890 129.088  0.00  0.00    +0.215 C 
ATOM     31  C   LIG A   1      -2.243   3.505 127.249  0.00  0.00    +0.042 C 
BRANCH  30  32
ATOM     32  O   LIG A   1      -4.789   6.291 129.409  0.00  0.00    -0.383 OA
ATOM     33  H   LIG A   1      -5.285   6.824 128.760  0.00  0.00    +0.210 HD
ENDBRANCH  30  32
BRANCH  29  34
ATOM     34  O   LIG A   1      -2.685   4.841 129.853  0.00  0.00    -0.385 OA
ATOM     35  H   LIG A   1      -2.720   5.405 129.052  0.00  0.00    +0.210 HD
ENDBRANCH  29  34
BRANCH  28  36
ATOM     36  O   LIG A   1      -4.877   1.937 129.446  0.00  0.00    -0.453 OA
BRANCH  36  37
ATOM     37  C   LIG A   1      -4.736   0.595 129.435  0.00  0.00    +0.332 C 
ATOM     38  O   LIG A   1      -3.871  -0.048 129.983  0.00  0.00    -0.246 OA
BRANCH  37  39
ATOM     39  C   LIG A   1      -5.769   0.002 128.554  0.00  0.00    +0.092 C 
ATOM     40  C   LIG A   1      -5.690   0.013 127.212  0.00  0.00    +0.015 C 
BRANCH  40  41
ATOM     41  C   LIG A   1      -6.698  -0.573 126.320  0.00  0.00    -0.025 A 
ATOM     42  C   LIG A   1      -6.501  -0.632 124.934  0.00  0.00    +0.011 A 
ATOM     43  C   LIG A   1      -7.438  -1.247 124.105  0.00  0.00    +0.046 A 
ATOM     44  C   LIG A   1      -8.575  -1.818 124.664  0.00  0.00    +0.117 A 
ATOM     45  C   LIG A   1      -8.794  -1.770 126.034  0.00  0.00    +0.046 A 
ATOM     46  C   LIG A   1      -7.855  -1.152 126.864  0.00  0.00    +0.011 A 
BRANCH  44  47
ATOM     47  O   LIG A   1      -9.499  -2.447 123.886  0.00  0.00    -0.507 OA
ATOM     48  H   LIG A   1     -10.377  -2.310 124.281  0.00  0.00    +0.292 HD
ENDBRANCH  44  47
ENDBRANCH  40  41
ENDBRANCH  37  39
ENDBRANCH  36  37
ENDBRANCH  28  36
ENDBRANCH   1  25
TORSDOF 13
ENDMDL
MODEL 7
REMARK VINA RESULT:      -8.5      3.330      8.236
REMARK  Name = NuBBE_557
REMARK  14 active torsions:
REMARK  status: ('A' for Active; 'I' for Inactive)
REMARK    1  A    between atoms: O_1  and  C_2
REMARK    2  A    between atoms: C_6  and  O_7
REMARK    3  A    between atoms: C_10  and  O_11
REMARK    4  A    between atoms: O_11  and  C_12
REMARK    5  A    between atoms: C_15  and  C_37
REMARK    6  A    between atoms: C_17  and  O_25
REMARK    7  A    between atoms: C_19  and  O_24
REMARK    8  A    between atoms: C_21  and  O_23
REMARK    9  A    between atoms: O_25  and  C_26
REMARK   10  A    between atoms: C_26  and  C_27
REMARK   11  A    between atoms: C_28  and  C_29
REMARK   12  A    between atoms: C_32  and  O_35
REMARK   13  A    between atoms: C_38  and  C_40
REMARK   14  A    between atoms: C_43  and  O_46
REMARK                            x       y       z     vdW  Elec       q    Type
REMARK                         _______ _______ _______ _____ _____    ______ ____
ROOT
ATOM      1  O   LIG A   1      -8.373   1.149 130.479  0.00  0.00    -0.453 OA
ENDROOT
BRANCH   1   9
ATOM      2  C   LIG A   1     -10.662   7.175 129.851  0.00  0.00    +0.124 A 
ATOM      3  C   LIG A   1     -10.039   6.301 128.961  0.00  0.00    +0.092 A 
ATOM      4  C   LIG A   1      -9.576   5.064 129.425  0.00  0.00    +0.146 A 
ATOM      5  C   LIG A   1      -9.746   4.708 130.756  0.00  0.00    +0.109 A 
ATOM      6  C   LIG A   1     -10.366   5.601 131.640  0.00  0.00    +0.135 A 
ATOM      7  C   LIG A   1     -10.828   6.833 131.188  0.00  0.00    +0.091 A 
ATOM      8  C   LIG A   1      -9.307   3.377 131.193  0.00  0.00    +0.238 A 
ATOM      9  C   LIG A   1      -8.692   2.468 130.177  0.00  0.00    +0.214 A 
ATOM     10  C   LIG A   1      -8.562   2.969 128.924  0.00  0.00    +0.181 A 
ATOM     11  O   LIG A   1      -8.959   4.240 128.523  0.00  0.00    -0.451 OA
ATOM     12  O   LIG A   1      -9.517   3.055 132.359  0.00  0.00    -0.283 OA
BRANCH  10  13
ATOM     13  C   LIG A   1      -7.994   2.220 127.780  0.00  0.00    +0.021 A 
ATOM     14  C   LIG A   1      -8.774   1.280 127.086  0.00  0.00    +0.015 A 
ATOM     15  C   LIG A   1      -8.273   0.632 125.949  0.00  0.00    +0.046 A 
ATOM     16  C   LIG A   1      -6.994   0.931 125.494  0.00  0.00    +0.117 A 
ATOM     17  C   LIG A   1      -6.217   1.881 126.147  0.00  0.00    +0.046 A 
ATOM     18  C   LIG A   1      -6.716   2.525 127.286  0.00  0.00    +0.015 A 
BRANCH  16  19
ATOM     19  O   LIG A   1      -6.463   0.318 124.397  0.00  0.00    -0.507 OA
ATOM     20  H   LIG A   1      -5.519   0.540 124.337  0.00  0.00    +0.292 HD
ENDBRANCH  16  19
ENDBRANCH  10  13
BRANCH   2  21
ATOM     21  O   LIG A   1     -11.130   8.392 129.453  0.00  0.00    -0.506 OA
ATOM     22  H   LIG A   1     -11.260   8.961 130.231  0.00  0.00    +0.292 HD
ENDBRANCH   2  21
BRANCH   6  23
ATOM     23  O   LIG A   1     -10.553   5.328 132.968  0.00  0.00    -0.506 OA
ATOM     24  H   LIG A   1     -10.383   6.154 133.475  0.00  0.00    +0.292 HD
ENDBRANCH   6  23
ENDBRANCH   1   9
BRANCH   1  25
ATOM     25  C   LIG A   1      -7.068   0.815 131.035  0.00  0.00    +0.340 C 
ATOM     26  O   LIG A   1      -6.337   0.005 130.118  0.00  0.00    -0.333 OA
ATOM     27  C   LIG A   1      -5.199  -0.681 130.666  0.00  0.00    +0.163 C 
ATOM     28  C   LIG A   1      -5.645  -1.618 131.802  0.00  0.00    +0.236 C 
ATOM     29  C   LIG A   1      -6.303  -0.834 132.923  0.00  0.00    +0.192 C 
ATOM     30  C   LIG A   1      -7.373   0.140 132.409  0.00  0.00    +0.215 C 
ATOM     31  C   LIG A   1      -4.055   0.259 131.032  0.00  0.00    +0.042 C 
BRANCH  30  32
ATOM     32  O   LIG A   1      -7.560   1.133 133.453  0.00  0.00    -0.383 OA
ATOM     33  H   LIG A   1      -8.500   1.119 133.712  0.00  0.00    +0.210 HD
ENDBRANCH  30  32
BRANCH  29  34
ATOM     34  O   LIG A   1      -5.309  -0.134 133.684  0.00  0.00    -0.385 OA
ATOM     35  H   LIG A   1      -5.158   0.699 133.190  0.00  0.00    +0.210 HD
ENDBRANCH  29  34
BRANCH  28  36
ATOM     36  O   LIG A   1      -6.636  -2.484 131.211  0.00  0.00    -0.453 OA
BRANCH  36  37
ATOM     37  C   LIG A   1      -6.187  -3.487 130.429  0.00  0.00    +0.332 C 
ATOM     38  O   LIG A   1      -5.220  -4.186 130.627  0.00  0.00    -0.246 OA
BRANCH  37  39
ATOM     39  C   LIG A   1      -7.018  -3.562 129.204  0.00  0.00    +0.092 C 
ATOM     40  C   LIG A   1      -6.813  -2.785 128.125  0.00  0.00    +0.015 C 
BRANCH  40  41
ATOM     41  C   LIG A   1      -7.619  -2.845 126.900  0.00  0.00    -0.025 A 
ATOM     42  C   LIG A   1      -7.022  -2.843 125.632  0.00  0.00    +0.011 A 
ATOM     43  C   LIG A   1      -7.795  -2.963 124.478  0.00  0.00    +0.046 A 
ATOM     44  C   LIG A   1      -9.173  -3.098 124.590  0.00  0.00    +0.117 A 
ATOM     45  C   LIG A   1      -9.788  -3.101 125.835  0.00  0.00    +0.046 A 
ATOM     46  C   LIG A   1      -9.013  -2.979 126.990  0.00  0.00    +0.011 A 
BRANCH  44  47
ATOM     47  O   LIG A   1      -9.956  -3.241 123.484  0.00  0.00    -0.507 OA
ATOM     48  H   LIG A   1     -10.887  -3.174 123.757  0.00  0.00    +0.292 HD
ENDBRANCH  44  47
ENDBRANCH  40  41
ENDBRANCH  37  39
ENDBRANCH  36  37
ENDBRANCH  28  36
ENDBRANCH   1  25
TORSDOF 13
ENDMDL
MODEL 8
REMARK VINA RESULT:      -8.4      3.417      6.318
REMARK  Name = NuBBE_557
REMARK  14 active torsions:
REMARK  status: ('A' for Active; 'I' for Inactive)
REMARK    1  A    between atoms: O_1  and  C_2
REMARK    2  A    between atoms: C_6  and  O_7
REMARK    3  A    between atoms: C_10  and  O_11
REMARK    4  A    between atoms: O_11  and  C_12
REMARK    5  A    between atoms: C_15  and  C_37
REMARK    6  A    between atoms: C_17  and  O_25
REMARK    7  A    between atoms: C_19  and  O_24
REMARK    8  A    between atoms: C_21  and  O_23
REMARK    9  A    between atoms: O_25  and  C_26
REMARK   10  A    between atoms: C_26  and  C_27
REMARK   11  A    between atoms: C_28  and  C_29
REMARK   12  A    between atoms: C_32  and  O_35
REMARK   13  A    between atoms: C_38  and  C_40
REMARK   14  A    between atoms: C_43  and  O_46
REMARK                            x       y       z     vdW  Elec       q    Type
REMARK                         _______ _______ _______ _____ _____    ______ ____
ROOT
ATOM      1  O   LIG A   1      -5.296  -0.362 128.345  0.00  0.00    -0.453 OA
ENDROOT
BRANCH   1   9
ATOM      2  C   LIG A   1      -9.289  -2.963 123.958  0.00  0.00    +0.124 A 
ATOM      3  C   LIG A   1      -8.996  -3.286 125.282  0.00  0.00    +0.092 A 
ATOM      4  C   LIG A   1      -8.005  -2.568 125.962  0.00  0.00    +0.146 A 
ATOM      5  C   LIG A   1      -7.329  -1.536 125.325  0.00  0.00    +0.109 A 
ATOM      6  C   LIG A   1      -7.628  -1.229 123.991  0.00  0.00    +0.135 A 
ATOM      7  C   LIG A   1      -8.610  -1.939 123.308  0.00  0.00    +0.091 A 
ATOM      8  C   LIG A   1      -6.343  -0.762 126.089  0.00  0.00    +0.238 A 
ATOM      9  C   LIG A   1      -6.113  -1.127 127.520  0.00  0.00    +0.214 A 
ATOM     10  C   LIG A   1      -6.824  -2.182 127.992  0.00  0.00    +0.181 A 
ATOM     11  O   LIG A   1      -7.740  -2.925 127.256  0.00  0.00    -0.451 OA
ATOM     12  O   LIG A   1      -5.796   0.184 125.529  0.00  0.00    -0.283 OA
BRANCH  10  13
ATOM     13  C   LIG A   1      -6.748  -2.684 129.383  0.00  0.00    +0.021 A 
ATOM     14  C   LIG A   1      -5.741  -3.586 129.760  0.00  0.00    +0.015 A 
ATOM     15  C   LIG A   1      -5.609  -3.999 131.094  0.00  0.00    +0.046 A 
ATOM     16  C   LIG A   1      -6.479  -3.499 132.056  0.00  0.00    +0.117 A 
ATOM     17  C   LIG A   1      -7.463  -2.581 131.710  0.00  0.00    +0.046 A 
ATOM     18  C   LIG A   1      -7.597  -2.174 130.376  0.00  0.00    +0.015 A 
BRANCH  16  19
ATOM     19  O   LIG A   1      -6.394  -3.879 133.363  0.00  0.00    -0.507 OA
ATOM     20  H   LIG A   1      -6.531  -4.839 133.423  0.00  0.00    +0.292 HD
ENDBRANCH  16  19
ENDBRANCH  10  13
BRANCH   2  21
ATOM     21  O   LIG A   1     -10.243  -3.630 123.249  0.00  0.00    -0.506 OA
ATOM     22  H   LIG A   1     -10.059  -3.548 122.298  0.00  0.00    +0.292 HD
ENDBRANCH   2  21
BRANCH   6  23
ATOM     23  O   LIG A   1      -6.993  -0.238 123.293  0.00  0.00    -0.506 OA
ATOM     24  H   LIG A   1      -6.597  -0.640 122.486  0.00  0.00    +0.292 HD
ENDBRANCH   6  23
ENDBRANCH   1   9
BRANCH   1  25
ATOM     25  C   LIG A   1      -5.849   0.760 129.094  0.00  0.00    +0.340 C 
ATOM     26  O   LIG A   1      -6.825   1.439 128.309  0.00  0.00    -0.333 OA
ATOM     27  C   LIG A   1      -7.191   2.750 128.771  0.00  0.00    +0.163 C 
ATOM     28  C   LIG A   1      -5.954   3.664 128.800  0.00  0.00    +0.236 C 
ATOM     29  C   LIG A   1      -4.896   3.114 129.740  0.00  0.00    +0.192 C 
ATOM     30  C   LIG A   1      -4.614   1.624 129.500  0.00  0.00    +0.215 C 
ATOM     31  C   LIG A   1      -7.989   2.722 130.072  0.00  0.00    +0.042 C 
BRANCH  30  32
ATOM     32  O   LIG A   1      -3.997   1.121 130.715  0.00  0.00    -0.383 OA
ATOM     33  H   LIG A   1      -3.146   0.712 130.469  0.00  0.00    +0.210 HD
ENDBRANCH  30  32
BRANCH  29  34
ATOM     34  O   LIG A   1      -5.283   3.339 131.102  0.00  0.00    -0.385 OA
ATOM     35  H   LIG A   1      -4.573   2.925 131.635  0.00  0.00    +0.210 HD
ENDBRANCH  29  34
BRANCH  28  36
ATOM     36  O   LIG A   1      -5.428   3.631 127.457  0.00  0.00    -0.453 OA
BRANCH  36  37
ATOM     37  C   LIG A   1      -5.106   4.814 126.894  0.00  0.00    +0.332 C 
ATOM     38  O   LIG A   1      -4.582   5.758 127.439  0.00  0.00    -0.246 OA
BRANCH  37  39
ATOM     39  C   LIG A   1      -5.579   4.833 125.490  0.00  0.00    +0.092 C 
ATOM     40  C   LIG A   1      -5.345   3.836 124.618  0.00  0.00    +0.015 C 
BRANCH  40  41
ATOM     41  C   LIG A   1      -5.809   3.831 123.226  0.00  0.00    -0.025 A 
ATOM     42  C   LIG A   1      -7.078   3.347 122.880  0.00  0.00    +0.011 A 
ATOM     43  C   LIG A   1      -7.530   3.405 121.562  0.00  0.00    +0.046 A 
ATOM     44  C   LIG A   1      -6.715   3.961 120.584  0.00  0.00    +0.117 A 
ATOM     45  C   LIG A   1      -5.452   4.446 120.902  0.00  0.00    +0.046 A 
ATOM     46  C   LIG A   1      -5.000   4.386 122.222  0.00  0.00    +0.011 A 
BRANCH  44  47
ATOM     47  O   LIG A   1      -7.134   4.056 119.291  0.00  0.00    -0.507 OA
ATOM     48  H   LIG A   1      -6.364   4.252 118.733  0.00  0.00    +0.292 HD
ENDBRANCH  44  47
ENDBRANCH  40  41
ENDBRANCH  37  39
ENDBRANCH  36  37
ENDBRANCH  28  36
ENDBRANCH   1  25
TORSDOF 13
ENDMDL
MODEL 9
REMARK VINA RESULT:      -8.4      2.995      7.645
REMARK  Name = NuBBE_557
REMARK  14 active torsions:
REMARK  status: ('A' for Active; 'I' for Inactive)
REMARK    1  A    between atoms: O_1  and  C_2
REMARK    2  A    between atoms: C_6  and  O_7
REMARK    3  A    between atoms: C_10  and  O_11
REMARK    4  A    between atoms: O_11  and  C_12
REMARK    5  A    between atoms: C_15  and  C_37
REMARK    6  A    between atoms: C_17  and  O_25
REMARK    7  A    between atoms: C_19  and  O_24
REMARK    8  A    between atoms: C_21  and  O_23
REMARK    9  A    between atoms: O_25  and  C_26
REMARK   10  A    between atoms: C_26  and  C_27
REMARK   11  A    between atoms: C_28  and  C_29
REMARK   12  A    between atoms: C_32  and  O_35
REMARK   13  A    between atoms: C_38  and  C_40
REMARK   14  A    between atoms: C_43  and  O_46
REMARK                            x       y       z     vdW  Elec       q    Type
REMARK                         _______ _______ _______ _____ _____    ______ ____
ROOT
ATOM      1  O   LIG A   1      -8.581   2.638 130.501  0.00  0.00    -0.453 OA
ENDROOT
BRANCH   1   9
ATOM      2  C   LIG A   1     -11.558   8.164 128.904  0.00  0.00    +0.124 A 
ATOM      3  C   LIG A   1     -10.492   7.464 128.339  0.00  0.00    +0.092 A 
ATOM      4  C   LIG A   1     -10.013   6.312 128.975  0.00  0.00    +0.146 A 
ATOM      5  C   LIG A   1     -10.602   5.866 130.150  0.00  0.00    +0.109 A 
ATOM      6  C   LIG A   1     -11.666   6.585 130.710  0.00  0.00    +0.135 A 
ATOM      7  C   LIG A   1     -12.147   7.732 130.086  0.00  0.00    +0.091 A 
ATOM      8  C   LIG A   1     -10.117   4.618 130.752  0.00  0.00    +0.238 A 
ATOM      9  C   LIG A   1      -9.005   3.889 130.069  0.00  0.00    +0.214 A 
ATOM     10  C   LIG A   1      -8.509   4.467 128.947  0.00  0.00    +0.181 A 
ATOM     11  O   LIG A   1      -8.958   5.661 128.394  0.00  0.00    -0.451 OA
ATOM     12  O   LIG A   1     -10.687   4.206 131.759  0.00  0.00    -0.283 OA
BRANCH  10  13
ATOM     13  C   LIG A   1      -7.422   3.892 128.122  0.00  0.00    +0.021 A 
ATOM     14  C   LIG A   1      -6.085   4.253 128.353  0.00  0.00    +0.015 A 
ATOM     15  C   LIG A   1      -5.044   3.648 127.636  0.00  0.00    +0.046 A 
ATOM     16  C   LIG A   1      -5.337   2.669 126.692  0.00  0.00    +0.117 A 
ATOM     17  C   LIG A   1      -6.651   2.275 126.470  0.00  0.00    +0.046 A 
ATOM     18  C   LIG A   1      -7.692   2.884 127.184  0.00  0.00    +0.015 A 
BRANCH  16  19
ATOM     19  O   LIG A   1      -4.357   2.060 125.965  0.00  0.00    -0.507 OA
ATOM     20  H   LIG A   1      -4.002   2.694 125.321  0.00  0.00    +0.292 HD
ENDBRANCH  16  19
ENDBRANCH  10  13
BRANCH   2  21
ATOM     21  O   LIG A   1     -12.062   9.292 128.329  0.00  0.00    -0.506 OA
ATOM     22  H   LIG A   1     -12.940   9.104 127.957  0.00  0.00    +0.292 HD
ENDBRANCH   2  21
BRANCH   6  23
ATOM     23  O   LIG A   1     -12.285   6.216 131.874  0.00  0.00    -0.506 OA
ATOM     24  H   LIG A   1     -13.041   5.630 131.643  0.00  0.00    +0.292 HD
ENDBRANCH   6  23
ENDBRANCH   1   9
BRANCH   1  25
ATOM     25  C   LIG A   1      -7.379   2.508 131.316  0.00  0.00    +0.340 C 
ATOM     26  O   LIG A   1      -6.453   1.627 130.688  0.00  0.00    -0.333 OA
ATOM     27  C   LIG A   1      -5.395   1.136 131.528  0.00  0.00    +0.163 C 
ATOM     28  C   LIG A   1      -5.985   0.358 132.717  0.00  0.00    +0.236 C 
ATOM     29  C   LIG A   1      -6.875   1.252 133.561  0.00  0.00    +0.192 C 
ATOM     30  C   LIG A   1      -7.888   2.038 132.715  0.00  0.00    +0.215 C 
ATOM     31  C   LIG A   1      -4.389   2.216 131.914  0.00  0.00    +0.042 C 
BRANCH  30  32
ATOM     32  O   LIG A   1      -8.314   3.166 133.527  0.00  0.00    -0.383 OA
ATOM     33  H   LIG A   1      -7.518   3.676 133.767  0.00  0.00    +0.210 HD
ENDBRANCH  30  32
BRANCH  29  34
ATOM     34  O   LIG A   1      -6.074   2.146 134.346  0.00  0.00    -0.385 OA
ATOM     35  H   LIG A   1      -5.288   1.619 134.599  0.00  0.00    +0.210 HD
ENDBRANCH  29  34
BRANCH  28  36
ATOM     36  O   LIG A   1      -6.804  -0.672 132.127  0.00  0.00    -0.453 OA
BRANCH  36  37
ATOM     37  C   LIG A   1      -6.178  -1.791 131.708  0.00  0.00    +0.332 C 
ATOM     38  O   LIG A   1      -5.190  -2.294 132.191  0.00  0.00    -0.246 OA
BRANCH  37  39
ATOM     39  C   LIG A   1      -6.835  -2.288 130.476  0.00  0.00    +0.092 C 
ATOM     40  C   LIG A   1      -7.220  -1.485 129.469  0.00  0.00    +0.015 C 
BRANCH  40  41
ATOM     41  C   LIG A   1      -7.868  -1.955 128.239  0.00  0.00    -0.025 A 
ATOM     42  C   LIG A   1      -8.343  -3.268 128.120  0.00  0.00    +0.011 A 
ATOM     43  C   LIG A   1      -9.011  -3.685 126.969  0.00  0.00    +0.046 A 
ATOM     44  C   LIG A   1      -9.218  -2.781 125.935  0.00  0.00    +0.117 A 
ATOM     45  C   LIG A   1      -8.755  -1.475 126.028  0.00  0.00    +0.046 A 
ATOM     46  C   LIG A   1      -8.084  -1.060 127.181  0.00  0.00    +0.011 A 
BRANCH  44  47
ATOM     47  O   LIG A   1      -9.888  -3.148 124.806  0.00  0.00    -0.507 OA
ATOM     48  H   LIG A   1      -9.912  -2.386 124.203  0.00  0.00    +0.292 HD
ENDBRANCH  44  47
ENDBRANCH  40  41
ENDBRANCH  37  39
ENDBRANCH  36  37
ENDBRANCH  28  36
ENDBRANCH   1  25
TORSDOF 13
ENDMDL
