MODEL 1
REMARK VINA RESULT:      -6.7      0.000      0.000
REMARK  Name = NuBBE_974
REMARK  12 active torsions:
REMARK  status: ('A' for Active; 'I' for Inactive)
REMARK    1  A    between atoms: C_2  and  C_22
REMARK    2  A    between atoms: N_3  and  C_4
REMARK    3  A    between atoms: C_4  and  C_5
REMARK    4  A    between atoms: C_5  and  C_6
REMARK    5  A    between atoms: C_9  and  O_10
REMARK    6  A    between atoms: O_10  and  C_11
REMARK    7  A    between atoms: C_11  and  C_12
REMARK    8  A    between atoms: C_12  and  O_13
REMARK    9  A    between atoms: C_12  and  C_14
REMARK   10  A    between atoms: C_14  and  C_15
REMARK   11  A    between atoms: C_14  and  O_17
REMARK   12  A    between atoms: C_14  and  C_18
REMARK                            x       y       z     vdW  Elec       q    Type
REMARK                         _______ _______ _______ _____ _____    ______ ____
ROOT
ATOM      1  C   LIG A   1      -8.336  -0.720 122.959  0.00  0.00    -0.046 A 
ATOM      2  C   LIG A   1      -7.213  -0.015 123.403  0.00  0.00    +0.007 A 
ATOM      3  C   LIG A   1      -7.315   1.341 123.728  0.00  0.00    +0.046 A 
ATOM      4  C   LIG A   1      -8.531   2.021 123.611  0.00  0.00    +0.121 A 
ATOM      5  C   LIG A   1      -9.675   1.300 123.281  0.00  0.00    +0.046 A 
ATOM      6  C   LIG A   1      -9.577  -0.065 122.963  0.00  0.00    +0.007 A 
ENDROOT
BRANCH   1   7
ATOM      7  C   LIG A   1      -8.224  -2.150 122.468  0.00  0.00    +0.054 C 
BRANCH   7   8
ATOM      8  C   LIG A   1      -8.916  -3.178 123.373  0.00  0.00    +0.109 C 
BRANCH   8  11
ATOM      9  O   LIG A   1     -10.025  -2.246 125.857  0.00  0.00    -0.270 OA
ATOM     10  C   LIG A   1      -8.893  -2.766 125.828  0.00  0.00    +0.244 C 
ATOM     11  N   LIG A   1      -8.305  -3.248 124.688  0.00  0.00    -0.311 N 
ATOM     12  H   LIG A   1      -7.322  -3.534 124.716  0.00  0.00    +0.149 HD
BRANCH  10  13
ATOM     13  C   LIG A   1      -8.093  -2.855 127.073  0.00  0.00    +0.037 A 
ATOM     14  C   LIG A   1      -6.793  -2.306 127.153  0.00  0.00    +0.013 A 
ATOM     15  C   LIG A   1      -6.075  -2.387 128.343  0.00  0.00    +0.001 A 
ATOM     16  C   LIG A   1      -6.630  -3.015 129.457  0.00  0.00    +0.000 A 
ATOM     17  C   LIG A   1      -7.905  -3.575 129.381  0.00  0.00    +0.001 A 
ATOM     18  C   LIG A   1      -8.631  -3.499 128.193  0.00  0.00    +0.013 A 
ENDBRANCH  10  13
ENDBRANCH   8  11
ENDBRANCH   7   8
ENDBRANCH   1   7
BRANCH   4  19
ATOM     19  O   LIG A   1      -8.439   3.372 123.793  0.00  0.00    -0.489 OA
BRANCH  19  20
ATOM     20  C   LIG A   1      -7.271   3.907 124.415  0.00  0.00    +0.263 C 
BRANCH  20  21
ATOM     21  C   LIG A   1      -7.613   4.525 125.788  0.00  0.00    +0.190 C 
BRANCH  21  22
ATOM     22  O   LIG A   1      -8.867   5.229 125.662  0.00  0.00    -0.385 OA
ATOM     23  H   LIG A   1      -9.436   4.883 126.386  0.00  0.00    +0.210 HD
ENDBRANCH  21  22
BRANCH  21  24
ATOM     24  C   LIG A   1      -7.664   3.586 127.021  0.00  0.00    +0.146 C 
ATOM     25  C   LIG A   1      -6.422   2.735 127.254  0.00  0.00    +0.052 C 
BRANCH  24  26
ATOM     26  C   LIG A   1      -7.971   4.309 128.331  0.00  0.00    +0.260 C 
ATOM     27  O   LIG A   1      -8.930   3.995 129.042  0.00  0.00    -0.298 OA
ENDBRANCH  24  26
BRANCH  24  28
ATOM     28  O   LIG A   1      -8.769   2.675 126.786  0.00  0.00    -0.379 OA
ATOM     29  H   LIG A   1      -9.083   2.850 125.872  0.00  0.00    +0.211 HD
ENDBRANCH  24  28
ENDBRANCH  21  24
ENDBRANCH  20  21
ENDBRANCH  19  20
ENDBRANCH   4  19
TORSDOF 11
ENDMDL
MODEL 2
REMARK VINA RESULT:      -6.7      4.174      6.683
REMARK  Name = NuBBE_974
REMARK  12 active torsions:
REMARK  status: ('A' for Active; 'I' for Inactive)
REMARK    1  A    between atoms: C_2  and  C_22
REMARK    2  A    between atoms: N_3  and  C_4
REMARK    3  A    between atoms: C_4  and  C_5
REMARK    4  A    between atoms: C_5  and  C_6
REMARK    5  A    between atoms: C_9  and  O_10
REMARK    6  A    between atoms: O_10  and  C_11
REMARK    7  A    between atoms: C_11  and  C_12
REMARK    8  A    between atoms: C_12  and  O_13
REMARK    9  A    between atoms: C_12  and  C_14
REMARK   10  A    between atoms: C_14  and  C_15
REMARK   11  A    between atoms: C_14  and  O_17
REMARK   12  A    between atoms: C_14  and  C_18
REMARK                            x       y       z     vdW  Elec       q    Type
REMARK                         _______ _______ _______ _____ _____    ______ ____
ROOT
ATOM      1  C   LIG A   1      -8.276   1.618 131.562  0.00  0.00    -0.046 A 
ATOM      2  C   LIG A   1      -9.554   1.810 132.094  0.00  0.00    +0.007 A 
ATOM      3  C   LIG A   1     -10.458   2.673 131.465  0.00  0.00    +0.046 A 
ATOM      4  C   LIG A   1     -10.105   3.363 130.302  0.00  0.00    +0.121 A 
ATOM      5  C   LIG A   1      -8.878   3.089 129.704  0.00  0.00    +0.046 A 
ATOM      6  C   LIG A   1      -7.972   2.217 130.329  0.00  0.00    +0.007 A 
ENDROOT
BRANCH   1   7
ATOM      7  C   LIG A   1      -7.232   0.801 132.298  0.00  0.00    +0.054 C 
BRANCH   7   8
ATOM      8  C   LIG A   1      -7.550  -0.698 132.371  0.00  0.00    +0.109 C 
BRANCH   8  11
ATOM      9  O   LIG A   1      -6.002  -2.198 130.468  0.00  0.00    -0.270 OA
ATOM     10  C   LIG A   1      -7.193  -1.920 130.232  0.00  0.00    +0.244 C 
ATOM     11  N   LIG A   1      -7.999  -1.225 131.095  0.00  0.00    -0.311 N 
ATOM     12  H   LIG A   1      -8.921  -0.915 130.776  0.00  0.00    +0.149 HD
BRANCH  10  13
ATOM     13  C   LIG A   1      -7.798  -2.320 128.939  0.00  0.00    +0.037 A 
ATOM     14  C   LIG A   1      -8.452  -3.564 128.785  0.00  0.00    +0.013 A 
ATOM     15  C   LIG A   1      -9.030  -3.901 127.564  0.00  0.00    +0.001 A 
ATOM     16  C   LIG A   1      -8.960  -3.019 126.487  0.00  0.00    +0.000 A 
ATOM     17  C   LIG A   1      -8.303  -1.797 126.625  0.00  0.00    +0.001 A 
ATOM     18  C   LIG A   1      -7.720  -1.452 127.844  0.00  0.00    +0.013 A 
ENDBRANCH  10  13
ENDBRANCH   8  11
ENDBRANCH   7   8
ENDBRANCH   1   7
BRANCH   4  19
ATOM     19  O   LIG A   1     -11.020   4.297 129.903  0.00  0.00    -0.489 OA
BRANCH  19  20
ATOM     20  C   LIG A   1     -11.194   5.473 130.692  0.00  0.00    +0.263 C 
BRANCH  20  21
ATOM     21  C   LIG A   1     -12.472   6.231 130.272  0.00  0.00    +0.190 C 
BRANCH  21  22
ATOM     22  O   LIG A   1     -12.892   7.052 131.383  0.00  0.00    -0.385 OA
ATOM     23  H   LIG A   1     -13.176   7.906 130.985  0.00  0.00    +0.210 HD
ENDBRANCH  21  22
BRANCH  21  24
ATOM     24  C   LIG A   1     -12.424   7.088 128.980  0.00  0.00    +0.146 C 
ATOM     25  C   LIG A   1     -13.686   7.068 128.127  0.00  0.00    +0.052 C 
BRANCH  24  26
ATOM     26  C   LIG A   1     -12.067   8.552 129.227  0.00  0.00    +0.260 C 
ATOM     27  O   LIG A   1     -12.877   9.352 129.701  0.00  0.00    -0.298 OA
ENDBRANCH  24  26
BRANCH  24  28
ATOM     28  O   LIG A   1     -11.353   6.535 128.173  0.00  0.00    -0.379 OA
ATOM     29  H   LIG A   1     -11.501   5.565 128.142  0.00  0.00    +0.211 HD
ENDBRANCH  24  28
ENDBRANCH  21  24
ENDBRANCH  20  21
ENDBRANCH  19  20
ENDBRANCH   4  19
TORSDOF 11
ENDMDL
MODEL 3
REMARK VINA RESULT:      -6.6      6.360      9.142
REMARK  Name = NuBBE_974
REMARK  12 active torsions:
REMARK  status: ('A' for Active; 'I' for Inactive)
REMARK    1  A    between atoms: C_2  and  C_22
REMARK    2  A    between atoms: N_3  and  C_4
REMARK    3  A    between atoms: C_4  and  C_5
REMARK    4  A    between atoms: C_5  and  C_6
REMARK    5  A    between atoms: C_9  and  O_10
REMARK    6  A    between atoms: O_10  and  C_11
REMARK    7  A    between atoms: C_11  and  C_12
REMARK    8  A    between atoms: C_12  and  O_13
REMARK    9  A    between atoms: C_12  and  C_14
REMARK   10  A    between atoms: C_14  and  C_15
REMARK   11  A    between atoms: C_14  and  O_17
REMARK   12  A    between atoms: C_14  and  C_18
REMARK                            x       y       z     vdW  Elec       q    Type
REMARK                         _______ _______ _______ _____ _____    ______ ____
ROOT
ATOM      1  C   LIG A   1      -6.922   6.146 132.339  0.00  0.00    -0.046 A 
ATOM      2  C   LIG A   1      -7.952   5.592 133.105  0.00  0.00    +0.007 A 
ATOM      3  C   LIG A   1      -9.285   5.745 132.710  0.00  0.00    +0.046 A 
ATOM      4  C   LIG A   1      -9.617   6.455 131.552  0.00  0.00    +0.121 A 
ATOM      5  C   LIG A   1      -8.592   6.908 130.726  0.00  0.00    +0.046 A 
ATOM      6  C   LIG A   1      -7.253   6.749 131.116  0.00  0.00    +0.007 A 
ENDROOT
BRANCH   1   7
ATOM      7  C   LIG A   1      -5.483   6.116 132.818  0.00  0.00    +0.054 C 
BRANCH   7   8
ATOM      8  C   LIG A   1      -4.851   4.718 132.812  0.00  0.00    +0.109 C 
BRANCH   8  11
ATOM      9  O   LIG A   1      -2.517   5.193 131.202  0.00  0.00    -0.270 OA
ATOM     10  C   LIG A   1      -3.465   4.520 130.754  0.00  0.00    +0.244 C 
ATOM     11  N   LIG A   1      -4.602   4.237 131.465  0.00  0.00    -0.311 N 
ATOM     12  H   LIG A   1      -5.393   3.799 130.986  0.00  0.00    +0.149 HD
BRANCH  10  13
ATOM     13  C   LIG A   1      -3.410   4.007 129.364  0.00  0.00    +0.037 A 
ATOM     14  C   LIG A   1      -2.603   4.626 128.383  0.00  0.00    +0.013 A 
ATOM     15  C   LIG A   1      -2.556   4.108 127.091  0.00  0.00    +0.001 A 
ATOM     16  C   LIG A   1      -3.309   2.984 126.758  0.00  0.00    +0.000 A 
ATOM     17  C   LIG A   1      -4.121   2.377 127.716  0.00  0.00    +0.001 A 
ATOM     18  C   LIG A   1      -4.175   2.890 129.011  0.00  0.00    +0.013 A 
ENDBRANCH  10  13
ENDBRANCH   8  11
ENDBRANCH   7   8
ENDBRANCH   1   7
BRANCH   4  19
ATOM     19  O   LIG A   1     -10.956   6.670 131.389  0.00  0.00    -0.489 OA
BRANCH  19  20
ATOM     20  C   LIG A   1     -11.583   6.234 130.183  0.00  0.00    +0.263 C 
BRANCH  20  21
ATOM     21  C   LIG A   1     -12.513   7.331 129.620  0.00  0.00    +0.190 C 
BRANCH  21  22
ATOM     22  O   LIG A   1     -12.729   8.312 130.656  0.00  0.00    -0.385 OA
ATOM     23  H   LIG A   1     -13.642   8.648 130.512  0.00  0.00    +0.210 HD
ENDBRANCH  21  22
BRANCH  21  24
ATOM     24  C   LIG A   1     -12.092   8.043 128.308  0.00  0.00    +0.146 C 
ATOM     25  C   LIG A   1     -10.621   8.428 128.209  0.00  0.00    +0.052 C 
BRANCH  24  26
ATOM     26  C   LIG A   1     -12.441   7.259 127.044  0.00  0.00    +0.260 C 
ATOM     27  O   LIG A   1     -11.576   6.874 126.253  0.00  0.00    -0.298 OA
ENDBRANCH  24  26
BRANCH  24  28
ATOM     28  O   LIG A   1     -12.861   9.272 128.254  0.00  0.00    -0.379 OA
ATOM     29  H   LIG A   1     -12.649   9.768 129.073  0.00  0.00    +0.211 HD
ENDBRANCH  24  28
ENDBRANCH  21  24
ENDBRANCH  20  21
ENDBRANCH  19  20
ENDBRANCH   4  19
TORSDOF 11
ENDMDL
MODEL 4
REMARK VINA RESULT:      -6.6      3.217      5.920
REMARK  Name = NuBBE_974
REMARK  12 active torsions:
REMARK  status: ('A' for Active; 'I' for Inactive)
REMARK    1  A    between atoms: C_2  and  C_22
REMARK    2  A    between atoms: N_3  and  C_4
REMARK    3  A    between atoms: C_4  and  C_5
REMARK    4  A    between atoms: C_5  and  C_6
REMARK    5  A    between atoms: C_9  and  O_10
REMARK    6  A    between atoms: O_10  and  C_11
REMARK    7  A    between atoms: C_11  and  C_12
REMARK    8  A    between atoms: C_12  and  O_13
REMARK    9  A    between atoms: C_12  and  C_14
REMARK   10  A    between atoms: C_14  and  C_15
REMARK   11  A    between atoms: C_14  and  O_17
REMARK   12  A    between atoms: C_14  and  C_18
REMARK                            x       y       z     vdW  Elec       q    Type
REMARK                         _______ _______ _______ _____ _____    ______ ____
ROOT
ATOM      1  C   LIG A   1      -8.399  -0.006 130.749  0.00  0.00    -0.046 A 
ATOM      2  C   LIG A   1      -8.088   0.908 129.738  0.00  0.00    +0.007 A 
ATOM      3  C   LIG A   1      -8.645   2.191 129.752  0.00  0.00    +0.046 A 
ATOM      4  C   LIG A   1      -9.524   2.585 130.766  0.00  0.00    +0.121 A 
ATOM      5  C   LIG A   1      -9.746   1.721 131.834  0.00  0.00    +0.046 A 
ATOM      6  C   LIG A   1      -9.182   0.435 131.827  0.00  0.00    +0.007 A 
ENDROOT
BRANCH   1   7
ATOM      7  C   LIG A   1      -7.923  -1.444 130.683  0.00  0.00    +0.054 C 
BRANCH   7   8
ATOM      8  C   LIG A   1      -6.778  -1.677 129.688  0.00  0.00    +0.109 C 
BRANCH   8  11
ATOM      9  O   LIG A   1      -5.962  -0.745 127.094  0.00  0.00    -0.270 OA
ATOM     10  C   LIG A   1      -6.829  -1.633 127.200  0.00  0.00    +0.244 C 
ATOM     11  N   LIG A   1      -7.258  -2.140 128.399  0.00  0.00    -0.311 N 
ATOM     12  H   LIG A   1      -8.069  -2.764 128.415  0.00  0.00    +0.149 HD
BRANCH  10  13
ATOM     13  C   LIG A   1      -7.483  -2.171 125.983  0.00  0.00    +0.037 A 
ATOM     14  C   LIG A   1      -8.782  -2.727 126.030  0.00  0.00    +0.013 A 
ATOM     15  C   LIG A   1      -9.377  -3.205 124.866  0.00  0.00    +0.001 A 
ATOM     16  C   LIG A   1      -8.694  -3.147 123.652  0.00  0.00    +0.000 A 
ATOM     17  C   LIG A   1      -7.405  -2.616 123.601  0.00  0.00    +0.001 A 
ATOM     18  C   LIG A   1      -6.801  -2.136 124.762  0.00  0.00    +0.013 A 
ENDBRANCH  10  13
ENDBRANCH   8  11
ENDBRANCH   7   8
ENDBRANCH   1   7
BRANCH   4  19
ATOM     19  O   LIG A   1     -10.120   3.796 130.554  0.00  0.00    -0.489 OA
BRANCH  19  20
ATOM     20  C   LIG A   1      -9.400   4.985 130.877  0.00  0.00    +0.263 C 
BRANCH  20  21
ATOM     21  C   LIG A   1      -9.635   6.077 129.809  0.00  0.00    +0.190 C 
BRANCH  21  22
ATOM     22  O   LIG A   1      -9.249   5.539 128.526  0.00  0.00    -0.385 OA
ATOM     23  H   LIG A   1      -8.714   6.245 128.097  0.00  0.00    +0.210 HD
ENDBRANCH  21  22
BRANCH  21  24
ATOM     24  C   LIG A   1     -11.049   6.707 129.707  0.00  0.00    +0.146 C 
ATOM     25  C   LIG A   1     -11.750   6.973 131.032  0.00  0.00    +0.052 C 
BRANCH  24  26
ATOM     26  C   LIG A   1     -11.085   8.007 128.905  0.00  0.00    +0.260 C 
ATOM     27  O   LIG A   1     -10.085   8.452 128.335  0.00  0.00    -0.298 OA
ENDBRANCH  24  26
BRANCH  24  28
ATOM     28  O   LIG A   1     -11.861   5.752 128.976  0.00  0.00    -0.379 OA
ATOM     29  H   LIG A   1     -11.864   4.927 129.507  0.00  0.00    +0.211 HD
ENDBRANCH  24  28
ENDBRANCH  21  24
ENDBRANCH  20  21
ENDBRANCH  19  20
ENDBRANCH   4  19
TORSDOF 11
ENDMDL
MODEL 5
REMARK VINA RESULT:      -6.5      8.777     12.516
REMARK  Name = NuBBE_974
REMARK  12 active torsions:
REMARK  status: ('A' for Active; 'I' for Inactive)
REMARK    1  A    between atoms: C_2  and  C_22
REMARK    2  A    between atoms: N_3  and  C_4
REMARK    3  A    between atoms: C_4  and  C_5
REMARK    4  A    between atoms: C_5  and  C_6
REMARK    5  A    between atoms: C_9  and  O_10
REMARK    6  A    between atoms: O_10  and  C_11
REMARK    7  A    between atoms: C_11  and  C_12
REMARK    8  A    between atoms: C_12  and  O_13
REMARK    9  A    between atoms: C_12  and  C_14
REMARK   10  A    between atoms: C_14  and  C_15
REMARK   11  A    between atoms: C_14  and  O_17
REMARK   12  A    between atoms: C_14  and  C_18
REMARK                            x       y       z     vdW  Elec       q    Type
REMARK                         _______ _______ _______ _____ _____    ______ ____
ROOT
ATOM      1  C   LIG A   1      -7.250   5.904 133.794  0.00  0.00    -0.046 A 
ATOM      2  C   LIG A   1      -8.609   5.799 133.482  0.00  0.00    +0.007 A 
ATOM      3  C   LIG A   1      -9.045   5.963 132.164  0.00  0.00    +0.046 A 
ATOM      4  C   LIG A   1      -8.140   6.240 131.135  0.00  0.00    +0.121 A 
ATOM      5  C   LIG A   1      -6.777   6.231 131.418  0.00  0.00    +0.046 A 
ATOM      6  C   LIG A   1      -6.336   6.059 132.740  0.00  0.00    +0.007 A 
ENDROOT
BRANCH   1   7
ATOM      7  C   LIG A   1      -6.767   5.871 135.231  0.00  0.00    +0.054 C 
BRANCH   7   8
ATOM      8  C   LIG A   1      -7.894   5.948 136.270  0.00  0.00    +0.109 C 
BRANCH   8  11
ATOM      9  O   LIG A   1      -9.586   8.271 136.341  0.00  0.00    -0.270 OA
ATOM     10  C   LIG A   1      -8.603   8.185 137.100  0.00  0.00    +0.244 C 
ATOM     11  N   LIG A   1      -7.760   7.104 137.137  0.00  0.00    -0.311 N 
ATOM     12  H   LIG A   1      -6.897   7.163 137.684  0.00  0.00    +0.149 HD
BRANCH  10  13
ATOM     13  C   LIG A   1      -8.273   9.311 138.007  0.00  0.00    +0.037 A 
ATOM     14  C   LIG A   1      -9.248   9.879 138.859  0.00  0.00    +0.013 A 
ATOM     15  C   LIG A   1      -8.902  10.922 139.715  0.00  0.00    +0.001 A 
ATOM     16  C   LIG A   1      -7.598  11.414 139.731  0.00  0.00    +0.000 A 
ATOM     17  C   LIG A   1      -6.635  10.870 138.881  0.00  0.00    +0.001 A 
ATOM     18  C   LIG A   1      -6.973   9.827 138.020  0.00  0.00    +0.013 A 
ENDBRANCH  10  13
ENDBRANCH   8  11
ENDBRANCH   7   8
ENDBRANCH   1   7
BRANCH   4  19
ATOM     19  O   LIG A   1      -8.726   6.546 129.938  0.00  0.00    -0.489 OA
BRANCH  19  20
ATOM     20  C   LIG A   1      -9.812   7.471 129.920  0.00  0.00    +0.263 C 
BRANCH  20  21
ATOM     21  C   LIG A   1     -10.976   6.935 129.057  0.00  0.00    +0.190 C 
BRANCH  21  22
ATOM     22  O   LIG A   1     -11.254   5.581 129.471  0.00  0.00    -0.385 OA
ATOM     23  H   LIG A   1     -12.013   5.288 128.918  0.00  0.00    +0.210 HD
ENDBRANCH  21  22
BRANCH  21  24
ATOM     24  C   LIG A   1     -12.294   7.750 129.018  0.00  0.00    +0.146 C 
ATOM     25  C   LIG A   1     -13.398   7.180 128.137  0.00  0.00    +0.052 C 
BRANCH  24  26
ATOM     26  C   LIG A   1     -12.900   8.003 130.398  0.00  0.00    +0.260 C 
ATOM     27  O   LIG A   1     -13.085   7.091 131.208  0.00  0.00    -0.298 OA
ENDBRANCH  24  26
BRANCH  24  28
ATOM     28  O   LIG A   1     -11.945   9.052 128.480  0.00  0.00    -0.379 OA
ATOM     29  H   LIG A   1     -11.883   9.662 129.246  0.00  0.00    +0.211 HD
ENDBRANCH  24  28
ENDBRANCH  21  24
ENDBRANCH  20  21
ENDBRANCH  19  20
ENDBRANCH   4  19
TORSDOF 11
ENDMDL
MODEL 6
REMARK VINA RESULT:      -6.5      2.655      6.460
REMARK  Name = NuBBE_974
REMARK  12 active torsions:
REMARK  status: ('A' for Active; 'I' for Inactive)
REMARK    1  A    between atoms: C_2  and  C_22
REMARK    2  A    between atoms: N_3  and  C_4
REMARK    3  A    between atoms: C_4  and  C_5
REMARK    4  A    between atoms: C_5  and  C_6
REMARK    5  A    between atoms: C_9  and  O_10
REMARK    6  A    between atoms: O_10  and  C_11
REMARK    7  A    between atoms: C_11  and  C_12
REMARK    8  A    between atoms: C_12  and  O_13
REMARK    9  A    between atoms: C_12  and  C_14
REMARK   10  A    between atoms: C_14  and  C_15
REMARK   11  A    between atoms: C_14  and  O_17
REMARK   12  A    between atoms: C_14  and  C_18
REMARK                            x       y       z     vdW  Elec       q    Type
REMARK                         _______ _______ _______ _____ _____    ______ ____
ROOT
ATOM      1  C   LIG A   1      -7.464  -3.049 129.156  0.00  0.00    -0.046 A 
ATOM      2  C   LIG A   1      -6.812  -2.402 128.101  0.00  0.00    +0.007 A 
ATOM      3  C   LIG A   1      -7.307  -2.504 126.797  0.00  0.00    +0.046 A 
ATOM      4  C   LIG A   1      -8.452  -3.256 126.518  0.00  0.00    +0.121 A 
ATOM      5  C   LIG A   1      -9.169  -3.806 127.577  0.00  0.00    +0.046 A 
ATOM      6  C   LIG A   1      -8.679  -3.698 128.888  0.00  0.00    +0.007 A 
ENDROOT
BRANCH   1   7
ATOM      7  C   LIG A   1      -6.872  -3.071 130.552  0.00  0.00    +0.054 C 
BRANCH   7   8
ATOM      8  C   LIG A   1      -7.465  -2.018 131.498  0.00  0.00    +0.109 C 
BRANCH   8  11
ATOM      9  O   LIG A   1      -9.511  -0.024 131.816  0.00  0.00    -0.270 OA
ATOM     10  C   LIG A   1      -8.528   0.193 131.082  0.00  0.00    +0.244 C 
ATOM     11  N   LIG A   1      -7.506  -0.700 130.893  0.00  0.00    -0.311 N 
ATOM     12  H   LIG A   1      -6.805  -0.510 130.171  0.00  0.00    +0.149 HD
BRANCH  10  13
ATOM     13  C   LIG A   1      -8.442   1.466 130.327  0.00  0.00    +0.037 A 
ATOM     14  C   LIG A   1      -8.180   1.482 128.938  0.00  0.00    +0.013 A 
ATOM     15  C   LIG A   1      -8.126   2.692 128.252  0.00  0.00    +0.001 A 
ATOM     16  C   LIG A   1      -8.323   3.893 128.932  0.00  0.00    +0.000 A 
ATOM     17  C   LIG A   1      -8.565   3.888 130.305  0.00  0.00    +0.001 A 
ATOM     18  C   LIG A   1      -8.619   2.680 131.000  0.00  0.00    +0.013 A 
ENDBRANCH  10  13
ENDBRANCH   8  11
ENDBRANCH   7   8
ENDBRANCH   1   7
BRANCH   4  19
ATOM     19  O   LIG A   1      -8.714  -3.408 125.185  0.00  0.00    -0.489 OA
BRANCH  19  20
ATOM     20  C   LIG A   1      -7.890  -2.728 124.239  0.00  0.00    +0.263 C 
BRANCH  20  21
ATOM     21  C   LIG A   1      -8.727  -1.754 123.381  0.00  0.00    +0.190 C 
BRANCH  21  22
ATOM     22  O   LIG A   1      -9.996  -2.383 123.099  0.00  0.00    -0.385 OA
ATOM     23  H   LIG A   1     -10.202  -2.151 122.165  0.00  0.00    +0.210 HD
ENDBRANCH  21  22
BRANCH  21  24
ATOM     24  C   LIG A   1      -8.964  -0.321 123.922  0.00  0.00    +0.146 C 
ATOM     25  C   LIG A   1      -7.720   0.417 124.402  0.00  0.00    +0.052 C 
BRANCH  24  26
ATOM     26  C   LIG A   1      -9.683   0.598 122.936  0.00  0.00    +0.260 C 
ATOM     27  O   LIG A   1     -10.832   0.368 122.547  0.00  0.00    -0.298 OA
ENDBRANCH  24  26
BRANCH  24  28
ATOM     28  O   LIG A   1      -9.845  -0.464 125.066  0.00  0.00    -0.379 OA
ATOM     29  H   LIG A   1     -10.230  -1.365 125.008  0.00  0.00    +0.211 HD
ENDBRANCH  24  28
ENDBRANCH  21  24
ENDBRANCH  20  21
ENDBRANCH  19  20
ENDBRANCH   4  19
TORSDOF 11
ENDMDL
MODEL 7
REMARK VINA RESULT:      -6.5      3.043      5.883
REMARK  Name = NuBBE_974
REMARK  12 active torsions:
REMARK  status: ('A' for Active; 'I' for Inactive)
REMARK    1  A    between atoms: C_2  and  C_22
REMARK    2  A    between atoms: N_3  and  C_4
REMARK    3  A    between atoms: C_4  and  C_5
REMARK    4  A    between atoms: C_5  and  C_6
REMARK    5  A    between atoms: C_9  and  O_10
REMARK    6  A    between atoms: O_10  and  C_11
REMARK    7  A    between atoms: C_11  and  C_12
REMARK    8  A    between atoms: C_12  and  O_13
REMARK    9  A    between atoms: C_12  and  C_14
REMARK   10  A    between atoms: C_14  and  C_15
REMARK   11  A    between atoms: C_14  and  O_17
REMARK   12  A    between atoms: C_14  and  C_18
REMARK                            x       y       z     vdW  Elec       q    Type
REMARK                         _______ _______ _______ _____ _____    ______ ____
ROOT
ATOM      1  C   LIG A   1      -8.039  -0.175 130.651  0.00  0.00    -0.046 A 
ATOM      2  C   LIG A   1      -8.928   0.092 131.696  0.00  0.00    +0.007 A 
ATOM      3  C   LIG A   1      -9.594   1.320 131.759  0.00  0.00    +0.046 A 
ATOM      4  C   LIG A   1      -9.383   2.305 130.790  0.00  0.00    +0.121 A 
ATOM      5  C   LIG A   1      -8.589   2.003 129.687  0.00  0.00    +0.046 A 
ATOM      6  C   LIG A   1      -7.926   0.767 129.617  0.00  0.00    +0.007 A 
ENDROOT
BRANCH   1   7
ATOM      7  C   LIG A   1      -7.200  -1.438 130.634  0.00  0.00    +0.054 C 
BRANCH   7   8
ATOM      8  C   LIG A   1      -7.854  -2.613 129.894  0.00  0.00    +0.109 C 
BRANCH   8  11
ATOM      9  O   LIG A   1      -9.240  -4.230 127.964  0.00  0.00    -0.270 OA
ATOM     10  C   LIG A   1      -8.668  -3.181 127.612  0.00  0.00    +0.244 C 
ATOM     11  N   LIG A   1      -8.002  -2.350 128.475  0.00  0.00    -0.311 N 
ATOM     12  H   LIG A   1      -7.440  -1.583 128.095  0.00  0.00    +0.149 HD
BRANCH  10  13
ATOM     13  C   LIG A   1      -8.657  -2.794 126.181  0.00  0.00    +0.037 A 
ATOM     14  C   LIG A   1      -8.433  -3.748 125.162  0.00  0.00    +0.013 A 
ATOM     15  C   LIG A   1      -8.450  -3.358 123.826  0.00  0.00    +0.001 A 
ATOM     16  C   LIG A   1      -8.679  -2.026 123.486  0.00  0.00    +0.000 A 
ATOM     17  C   LIG A   1      -8.883  -1.075 124.486  0.00  0.00    +0.001 A 
ATOM     18  C   LIG A   1      -8.867  -1.457 125.827  0.00  0.00    +0.013 A 
ENDBRANCH  10  13
ENDBRANCH   8  11
ENDBRANCH   7   8
ENDBRANCH   1   7
BRANCH   4  19
ATOM     19  O   LIG A   1      -9.963   3.509 131.077  0.00  0.00    -0.489 OA
BRANCH  19  20
ATOM     20  C   LIG A   1      -9.148   4.563 131.587  0.00  0.00    +0.263 C 
BRANCH  20  21
ATOM     21  C   LIG A   1      -9.239   5.814 130.686  0.00  0.00    +0.190 C 
BRANCH  21  22
ATOM     22  O   LIG A   1      -8.512   5.544 129.469  0.00  0.00    -0.385 OA
ATOM     23  H   LIG A   1      -7.782   6.204 129.448  0.00  0.00    +0.210 HD
ENDBRANCH  21  22
BRANCH  21  24
ATOM     24  C   LIG A   1     -10.647   6.365 130.341  0.00  0.00    +0.146 C 
ATOM     25  C   LIG A   1     -11.589   6.557 131.523  0.00  0.00    +0.052 C 
BRANCH  24  26
ATOM     26  C   LIG A   1     -10.619   7.681 129.566  0.00  0.00    +0.260 C 
ATOM     27  O   LIG A   1      -9.995   7.804 128.508  0.00  0.00    -0.298 OA
ENDBRANCH  24  26
BRANCH  24  28
ATOM     28  O   LIG A   1     -11.257   5.385 129.463  0.00  0.00    -0.379 OA
ATOM     29  H   LIG A   1     -11.681   4.717 130.044  0.00  0.00    +0.211 HD
ENDBRANCH  24  28
ENDBRANCH  21  24
ENDBRANCH  20  21
ENDBRANCH  19  20
ENDBRANCH   4  19
TORSDOF 11
ENDMDL
MODEL 8
REMARK VINA RESULT:      -6.5      4.015      8.617
REMARK  Name = NuBBE_974
REMARK  12 active torsions:
REMARK  status: ('A' for Active; 'I' for Inactive)
REMARK    1  A    between atoms: C_2  and  C_22
REMARK    2  A    between atoms: N_3  and  C_4
REMARK    3  A    between atoms: C_4  and  C_5
REMARK    4  A    between atoms: C_5  and  C_6
REMARK    5  A    between atoms: C_9  and  O_10
REMARK    6  A    between atoms: O_10  and  C_11
REMARK    7  A    between atoms: C_11  and  C_12
REMARK    8  A    between atoms: C_12  and  O_13
REMARK    9  A    between atoms: C_12  and  C_14
REMARK   10  A    between atoms: C_14  and  C_15
REMARK   11  A    between atoms: C_14  and  O_17
REMARK   12  A    between atoms: C_14  and  C_18
REMARK                            x       y       z     vdW  Elec       q    Type
REMARK                         _______ _______ _______ _____ _____    ______ ____
ROOT
ATOM      1  C   LIG A   1      -7.709   4.320 130.479  0.00  0.00    -0.046 A 
ATOM      2  C   LIG A   1      -8.493   3.203 130.783  0.00  0.00    +0.007 A 
ATOM      3  C   LIG A   1      -8.885   2.320 129.772  0.00  0.00    +0.046 A 
ATOM      4  C   LIG A   1      -8.511   2.535 128.442  0.00  0.00    +0.121 A 
ATOM      5  C   LIG A   1      -7.638   3.579 128.150  0.00  0.00    +0.046 A 
ATOM      6  C   LIG A   1      -7.235   4.462 129.165  0.00  0.00    +0.007 A 
ENDROOT
BRANCH   1   7
ATOM      7  C   LIG A   1      -7.389   5.366 131.529  0.00  0.00    +0.054 C 
BRANCH   7   8
ATOM      8  C   LIG A   1      -8.568   6.284 131.876  0.00  0.00    +0.109 C 
BRANCH   8  11
ATOM      9  O   LIG A   1     -11.433   6.185 131.670  0.00  0.00    -0.270 OA
ATOM     10  C   LIG A   1     -10.742   6.515 130.687  0.00  0.00    +0.244 C 
ATOM     11  N   LIG A   1      -9.375   6.601 130.712  0.00  0.00    -0.311 N 
ATOM     12  H   LIG A   1      -8.868   6.742 129.834  0.00  0.00    +0.149 HD
BRANCH  10  13
ATOM     13  C   LIG A   1     -11.399   6.805 129.391  0.00  0.00    +0.037 A 
ATOM     14  C   LIG A   1     -10.651   7.196 128.257  0.00  0.00    +0.013 A 
ATOM     15  C   LIG A   1     -11.294   7.441 127.047  0.00  0.00    +0.001 A 
ATOM     16  C   LIG A   1     -12.678   7.311 126.949  0.00  0.00    +0.000 A 
ATOM     17  C   LIG A   1     -13.427   6.943 128.067  0.00  0.00    +0.001 A 
ATOM     18  C   LIG A   1     -12.790   6.697 129.283  0.00  0.00    +0.013 A 
ENDBRANCH  10  13
ENDBRANCH   8  11
ENDBRANCH   7   8
ENDBRANCH   1   7
BRANCH   4  19
ATOM     19  O   LIG A   1      -9.110   1.694 127.546  0.00  0.00    -0.489 OA
BRANCH  19  20
ATOM     20  C   LIG A   1      -8.290   0.857 126.732  0.00  0.00    +0.263 C 
BRANCH  20  21
ATOM     21  C   LIG A   1      -9.009   0.500 125.413  0.00  0.00    +0.190 C 
BRANCH  21  22
ATOM     22  O   LIG A   1     -10.371   0.138 125.728  0.00  0.00    -0.385 OA
ATOM     23  H   LIG A   1     -10.563   0.567 126.592  0.00  0.00    +0.210 HD
ENDBRANCH  21  22
BRANCH  21  24
ATOM     24  C   LIG A   1      -9.000   1.546 124.268  0.00  0.00    +0.146 C 
ATOM     25  C   LIG A   1      -7.667   1.733 123.555  0.00  0.00    +0.052 C 
BRANCH  24  26
ATOM     26  C   LIG A   1     -10.057   1.292 123.194  0.00  0.00    +0.260 C 
ATOM     27  O   LIG A   1     -10.312   0.157 122.785  0.00  0.00    -0.298 OA
ENDBRANCH  24  26
BRANCH  24  28
ATOM     28  O   LIG A   1      -9.338   2.816 124.883  0.00  0.00    -0.379 OA
ATOM     29  H   LIG A   1      -8.629   3.007 125.534  0.00  0.00    +0.211 HD
ENDBRANCH  24  28
ENDBRANCH  21  24
ENDBRANCH  20  21
ENDBRANCH  19  20
ENDBRANCH   4  19
TORSDOF 11
ENDMDL
MODEL 9
REMARK VINA RESULT:      -6.5      8.631     12.159
REMARK  Name = NuBBE_974
REMARK  12 active torsions:
REMARK  status: ('A' for Active; 'I' for Inactive)
REMARK    1  A    between atoms: C_2  and  C_22
REMARK    2  A    between atoms: N_3  and  C_4
REMARK    3  A    between atoms: C_4  and  C_5
REMARK    4  A    between atoms: C_5  and  C_6
REMARK    5  A    between atoms: C_9  and  O_10
REMARK    6  A    between atoms: O_10  and  C_11
REMARK    7  A    between atoms: C_11  and  C_12
REMARK    8  A    between atoms: C_12  and  O_13
REMARK    9  A    between atoms: C_12  and  C_14
REMARK   10  A    between atoms: C_14  and  C_15
REMARK   11  A    between atoms: C_14  and  O_17
REMARK   12  A    between atoms: C_14  and  C_18
REMARK                            x       y       z     vdW  Elec       q    Type
REMARK                         _______ _______ _______ _____ _____    ______ ____
ROOT
ATOM      1  C   LIG A   1      -6.897   5.319 134.322  0.00  0.00    -0.046 A 
ATOM      2  C   LIG A   1      -6.268   5.776 133.160  0.00  0.00    +0.007 A 
ATOM      3  C   LIG A   1      -7.017   6.028 132.006  0.00  0.00    +0.046 A 
ATOM      4  C   LIG A   1      -8.400   5.824 131.985  0.00  0.00    +0.121 A 
ATOM      5  C   LIG A   1      -9.046   5.482 133.169  0.00  0.00    +0.046 A 
ATOM      6  C   LIG A   1      -8.298   5.236 134.331  0.00  0.00    +0.007 A 
ENDROOT
BRANCH   1   7
ATOM      7  C   LIG A   1      -6.094   4.905 135.540  0.00  0.00    +0.054 C 
BRANCH   7   8
ATOM      8  C   LIG A   1      -5.474   6.080 136.309  0.00  0.00    +0.109 C 
BRANCH   8  11
ATOM      9  O   LIG A   1      -6.677   6.278 138.912  0.00  0.00    -0.270 OA
ATOM     10  C   LIG A   1      -7.013   7.059 138.002  0.00  0.00    +0.244 C 
ATOM     11  N   LIG A   1      -6.474   7.038 136.742  0.00  0.00    -0.311 N 
ATOM     12  H   LIG A   1      -6.896   7.616 136.010  0.00  0.00    +0.149 HD
BRANCH  10  13
ATOM     13  C   LIG A   1      -8.077   8.060 138.249  0.00  0.00    +0.037 A 
ATOM     14  C   LIG A   1      -9.302   8.022 137.545  0.00  0.00    +0.013 A 
ATOM     15  C   LIG A   1     -10.291   8.964 137.815  0.00  0.00    +0.001 A 
ATOM     16  C   LIG A   1     -10.077   9.953 138.773  0.00  0.00    +0.000 A 
ATOM     17  C   LIG A   1      -8.864  10.009 139.460  0.00  0.00    +0.001 A 
ATOM     18  C   LIG A   1      -7.868   9.070 139.196  0.00  0.00    +0.013 A 
ENDBRANCH  10  13
ENDBRANCH   8  11
ENDBRANCH   7   8
ENDBRANCH   1   7
BRANCH   4  19
ATOM     19  O   LIG A   1      -8.966   5.943 130.747  0.00  0.00    -0.489 OA
BRANCH  19  20
ATOM     20  C   LIG A   1      -9.431   7.223 130.321  0.00  0.00    +0.263 C 
BRANCH  20  21
ATOM     21  C   LIG A   1     -10.373   7.089 129.104  0.00  0.00    +0.190 C 
BRANCH  21  22
ATOM     22  O   LIG A   1      -9.738   6.224 128.139  0.00  0.00    -0.385 OA
ATOM     23  H   LIG A   1      -8.790   6.486 128.135  0.00  0.00    +0.210 HD
ENDBRANCH  21  22
BRANCH  21  24
ATOM     24  C   LIG A   1     -11.827   6.612 129.355  0.00  0.00    +0.146 C 
ATOM     25  C   LIG A   1     -12.528   7.233 130.556  0.00  0.00    +0.052 C 
BRANCH  24  26
ATOM     26  C   LIG A   1     -12.749   6.791 128.149  0.00  0.00    +0.260 C 
ATOM     27  O   LIG A   1     -12.320   6.792 126.992  0.00  0.00    -0.298 OA
ENDBRANCH  24  26
BRANCH  24  28
ATOM     28  O   LIG A   1     -11.745   5.184 129.598  0.00  0.00    -0.379 OA
ATOM     29  H   LIG A   1     -12.049   4.744 128.775  0.00  0.00    +0.211 HD
ENDBRANCH  24  28
ENDBRANCH  21  24
ENDBRANCH  20  21
ENDBRANCH  19  20
ENDBRANCH   4  19
TORSDOF 11
ENDMDL
