MODEL 1
REMARK VINA RESULT:      -9.4      0.000      0.000
REMARK  Name = NuBBE_1519
REMARK  15 active torsions:
REMARK  status: ('A' for Active; 'I' for Inactive)
REMARK    1  A    between atoms: C_1  and  C_2
REMARK    2  A    between atoms: C_3  and  C_4
REMARK    3  A    between atoms: C_5  and  C_9
REMARK    4  A    between atoms: C_11  and  O_13
REMARK    5  A    between atoms: O_13  and  C_14
REMARK    6  A    between atoms: C_16  and  C_19
REMARK    7  A    between atoms: C_19  and  C_21
REMARK    8  A    between atoms: C_19  and  O_26
REMARK    9  A    between atoms: C_21  and  O_22
REMARK   10  A    between atoms: C_21  and  C_24
REMARK   11  A    between atoms: C_21  and  C_25
REMARK   12  A    between atoms: O_22  and  C_23
REMARK   13  A    between atoms: C_36  and  C_37
REMARK   14  A    between atoms: C_42  and  C_43
REMARK   15  A    between atoms: C_42  and  C_44
REMARK                            x       y       z     vdW  Elec       q    Type
REMARK                         _______ _______ _______ _____ _____    ______ ____
ROOT
ATOM      1  C   LIG A   1      -8.195   2.320 127.195  0.00  0.00    +0.016 C 
ATOM      2  C   LIG A   1      -6.930   1.928 128.023  0.00  0.00    -0.005 C 
ATOM      3  C   LIG A   1      -7.136   1.745 129.571  0.00  0.00    -0.020 C 
ATOM      4  C   LIG A   1      -5.772   1.470 130.318  0.00  0.00    +0.012 C 
ATOM      5  C   LIG A   1      -7.594   3.156 130.037  0.00  0.00    +0.004 C 
ATOM      6  C   LIG A   1      -6.715   4.088 129.123  0.00  0.00    +0.005 C 
ATOM      7  C   LIG A   1      -6.053   3.196 128.030  0.00  0.00    +0.012 C 
ATOM      8  C   LIG A   1      -8.037   0.544 129.875  0.00  0.00    +0.008 C 
ATOM      9  C   LIG A   1      -7.457  -0.746 129.281  0.00  0.00    +0.009 C 
ATOM     10  C   LIG A   1      -7.297  -0.612 127.751  0.00  0.00    +0.021 C 
ATOM     11  C   LIG A   1      -6.479   0.622 127.360  0.00  0.00    -0.063 C 
ATOM     12  C   LIG A   1      -5.615   0.591 126.331  0.00  0.00    -0.026 C 
ATOM     13  C   LIG A   1      -5.441  -0.589 125.422  0.00  0.00    +0.032 C 
ATOM     14  C   LIG A   1      -6.515  -1.705 125.542  0.00  0.00    +0.012 C 
ATOM     15  C   LIG A   1      -6.893  -1.955 127.047  0.00  0.00    -0.021 C 
ATOM     16  C   LIG A   1      -5.664  -2.604 127.741  0.00  0.00    +0.012 C 
ATOM     17  C   LIG A   1      -8.089  -2.950 127.173  0.00  0.00    +0.015 C 
ATOM     18  C   LIG A   1      -8.340  -3.756 125.912  0.00  0.00    +0.075 C 
ATOM     19  C   LIG A   1      -8.681  -2.812 124.780  0.00  0.00    +0.139 C 
ATOM     20  O   LIG A   1      -9.649  -3.022 124.070  0.00  0.00    -0.297 OA
ATOM     21  C   LIG A   1      -7.746  -1.605 124.560  0.00  0.00    +0.027 C 
ATOM     22  C   LIG A   1      -7.270  -1.695 123.093  0.00  0.00    +0.019 C 
ATOM     23  C   LIG A   1      -8.597  -0.334 124.686  0.00  0.00    +0.019 C 
ENDROOT
BRANCH   5  24
ATOM     24  C   LIG A   1      -9.105   3.543 129.998  0.00  0.00    +0.051 C 
ATOM     25  C   LIG A   1      -9.910   3.596 131.298  0.00  0.00    +0.254 C 
ATOM     26  O   LIG A   1     -11.045   4.419 131.007  0.00  0.00    -0.345 OA
ATOM     27  C   LIG A   1     -10.690   5.366 129.977  0.00  0.00    +0.153 C 
ATOM     28  C   LIG A   1      -9.298   4.969 129.499  0.00  0.00    +0.043 C 
BRANCH  25  29
ATOM     29  O   LIG A   1      -9.167   4.167 132.366  0.00  0.00    -0.354 OA
ATOM     30  C   LIG A   1      -9.167   3.313 133.506  0.00  0.00    +0.197 C 
ENDBRANCH  25  29
BRANCH  27  31
ATOM     31  C   LIG A   1     -10.795   6.817 130.522  0.00  0.00    +0.174 C 
BRANCH  31  32
ATOM     32  C   LIG A   1     -11.984   7.663 129.931  0.00  0.00    +0.092 C 
ATOM     33  C   LIG A   1     -12.888   6.770 129.065  0.00  0.00    +0.044 C 
ATOM     34  C   LIG A   1     -12.811   8.252 131.090  0.00  0.00    +0.044 C 
BRANCH  32  35
ATOM     35  O   LIG A   1     -11.412   8.734 129.164  0.00  0.00    -0.374 OA
ATOM     36  C   LIG A   1     -10.877   8.441 127.886  0.00  0.00    +0.194 C 
ENDBRANCH  32  35
ENDBRANCH  31  32
BRANCH  31  37
ATOM     37  O   LIG A   1     -10.910   6.753 131.958  0.00  0.00    -0.386 OA
ATOM     38  H   LIG A   1     -10.050   6.465 132.306  0.00  0.00    +0.210 HD
ENDBRANCH  31  37
ENDBRANCH  27  31
ENDBRANCH   5  24
TORSDOF 6
ENDMDL
MODEL 2
REMARK VINA RESULT:      -8.4      3.151      4.671
REMARK  Name = NuBBE_1519
REMARK  15 active torsions:
REMARK  status: ('A' for Active; 'I' for Inactive)
REMARK    1  A    between atoms: C_1  and  C_2
REMARK    2  A    between atoms: C_3  and  C_4
REMARK    3  A    between atoms: C_5  and  C_9
REMARK    4  A    between atoms: C_11  and  O_13
REMARK    5  A    between atoms: O_13  and  C_14
REMARK    6  A    between atoms: C_16  and  C_19
REMARK    7  A    between atoms: C_19  and  C_21
REMARK    8  A    between atoms: C_19  and  O_26
REMARK    9  A    between atoms: C_21  and  O_22
REMARK   10  A    between atoms: C_21  and  C_24
REMARK   11  A    between atoms: C_21  and  C_25
REMARK   12  A    between atoms: O_22  and  C_23
REMARK   13  A    between atoms: C_36  and  C_37
REMARK   14  A    between atoms: C_42  and  C_43
REMARK   15  A    between atoms: C_42  and  C_44
REMARK                            x       y       z     vdW  Elec       q    Type
REMARK                         _______ _______ _______ _____ _____    ______ ____
ROOT
ATOM      1  C   LIG A   1      -6.557  -0.368 128.040  0.00  0.00    +0.016 C 
ATOM      2  C   LIG A   1      -6.118  -1.845 128.298  0.00  0.00    -0.005 C 
ATOM      3  C   LIG A   1      -6.914  -2.628 129.404  0.00  0.00    -0.020 C 
ATOM      4  C   LIG A   1      -6.307  -4.063 129.661  0.00  0.00    +0.012 C 
ATOM      5  C   LIG A   1      -6.624  -1.811 130.695  0.00  0.00    +0.004 C 
ATOM      6  C   LIG A   1      -5.123  -1.397 130.472  0.00  0.00    +0.005 C 
ATOM      7  C   LIG A   1      -4.749  -1.734 128.997  0.00  0.00    +0.012 C 
ATOM      8  C   LIG A   1      -8.372  -2.851 128.989  0.00  0.00    +0.008 C 
ATOM      9  C   LIG A   1      -8.457  -3.615 127.661  0.00  0.00    +0.009 C 
ATOM     10  C   LIG A   1      -7.730  -2.838 126.544  0.00  0.00    +0.021 C 
ATOM     11  C   LIG A   1      -6.286  -2.496 126.920  0.00  0.00    -0.063 C 
ATOM     12  C   LIG A   1      -5.298  -2.532 126.010  0.00  0.00    -0.026 C 
ATOM     13  C   LIG A   1      -5.516  -2.805 124.551  0.00  0.00    +0.032 C 
ATOM     14  C   LIG A   1      -6.991  -2.772 124.066  0.00  0.00    +0.012 C 
ATOM     15  C   LIG A   1      -7.939  -3.456 125.117  0.00  0.00    -0.021 C 
ATOM     16  C   LIG A   1      -7.625  -4.978 125.114  0.00  0.00    +0.012 C 
ATOM     17  C   LIG A   1      -9.440  -3.281 124.724  0.00  0.00    +0.015 C 
ATOM     18  C   LIG A   1      -9.643  -2.886 123.274  0.00  0.00    +0.075 C 
ATOM     19  C   LIG A   1      -8.974  -1.553 123.024  0.00  0.00    +0.139 C 
ATOM     20  O   LIG A   1      -9.570  -0.659 122.450  0.00  0.00    -0.297 OA
ATOM     21  C   LIG A   1      -7.516  -1.394 123.503  0.00  0.00    +0.027 C 
ATOM     22  C   LIG A   1      -6.700  -0.977 122.260  0.00  0.00    +0.019 C 
ATOM     23  C   LIG A   1      -7.481  -0.216 124.487  0.00  0.00    +0.019 C 
ENDROOT
BRANCH   5  24
ATOM     24  C   LIG A   1      -7.525  -0.595 131.072  0.00  0.00    +0.051 C 
ATOM     25  C   LIG A   1      -8.313  -0.609 132.383  0.00  0.00    +0.254 C 
ATOM     26  O   LIG A   1      -8.613   0.764 132.660  0.00  0.00    -0.345 OA
ATOM     27  C   LIG A   1      -7.582   1.597 132.087  0.00  0.00    +0.153 C 
ATOM     28  C   LIG A   1      -6.696   0.668 131.266  0.00  0.00    +0.043 C 
BRANCH  25  29
ATOM     29  O   LIG A   1      -7.561  -1.158 133.456  0.00  0.00    -0.354 OA
ATOM     30  C   LIG A   1      -7.995  -2.479 133.764  0.00  0.00    +0.197 C 
ENDBRANCH  25  29
BRANCH  27  31
ATOM     31  C   LIG A   1      -6.838   2.376 133.207  0.00  0.00    +0.174 C 
BRANCH  31  32
ATOM     32  C   LIG A   1      -7.487   3.756 133.598  0.00  0.00    +0.092 C 
ATOM     33  C   LIG A   1      -8.999   3.586 133.817  0.00  0.00    +0.044 C 
ATOM     34  C   LIG A   1      -6.838   4.270 134.898  0.00  0.00    +0.044 C 
BRANCH  32  35
ATOM     35  O   LIG A   1      -7.209   4.680 132.533  0.00  0.00    -0.374 OA
ATOM     36  C   LIG A   1      -7.887   5.924 132.522  0.00  0.00    +0.194 C 
ENDBRANCH  32  35
ENDBRANCH  31  32
BRANCH  31  37
ATOM     37  O   LIG A   1      -6.759   1.529 134.371  0.00  0.00    -0.386 OA
ATOM     38  H   LIG A   1      -5.942   1.008 134.297  0.00  0.00    +0.210 HD
ENDBRANCH  31  37
ENDBRANCH  27  31
ENDBRANCH   5  24
TORSDOF 6
ENDMDL
MODEL 3
REMARK VINA RESULT:      -8.3      7.251      9.864
REMARK  Name = NuBBE_1519
REMARK  15 active torsions:
REMARK  status: ('A' for Active; 'I' for Inactive)
REMARK    1  A    between atoms: C_1  and  C_2
REMARK    2  A    between atoms: C_3  and  C_4
REMARK    3  A    between atoms: C_5  and  C_9
REMARK    4  A    between atoms: C_11  and  O_13
REMARK    5  A    between atoms: O_13  and  C_14
REMARK    6  A    between atoms: C_16  and  C_19
REMARK    7  A    between atoms: C_19  and  C_21
REMARK    8  A    between atoms: C_19  and  O_26
REMARK    9  A    between atoms: C_21  and  O_22
REMARK   10  A    between atoms: C_21  and  C_24
REMARK   11  A    between atoms: C_21  and  C_25
REMARK   12  A    between atoms: O_22  and  C_23
REMARK   13  A    between atoms: C_36  and  C_37
REMARK   14  A    between atoms: C_42  and  C_43
REMARK   15  A    between atoms: C_42  and  C_44
REMARK                            x       y       z     vdW  Elec       q    Type
REMARK                         _______ _______ _______ _____ _____    ______ ____
ROOT
ATOM      1  C   LIG A   1      -4.117   7.177 131.737  0.00  0.00    +0.016 C 
ATOM      2  C   LIG A   1      -3.520   5.733 131.754  0.00  0.00    -0.005 C 
ATOM      3  C   LIG A   1      -2.692   5.333 133.029  0.00  0.00    -0.020 C 
ATOM      4  C   LIG A   1      -2.040   3.903 132.883  0.00  0.00    +0.012 C 
ATOM      5  C   LIG A   1      -1.507   6.340 133.011  0.00  0.00    +0.004 C 
ATOM      6  C   LIG A   1      -1.214   6.450 131.470  0.00  0.00    +0.005 C 
ATOM      7  C   LIG A   1      -2.386   5.761 130.710  0.00  0.00    +0.012 C 
ATOM      8  C   LIG A   1      -3.582   5.270 134.275  0.00  0.00    +0.008 C 
ATOM      9  C   LIG A   1      -4.733   4.274 134.081  0.00  0.00    +0.009 C 
ATOM     10  C   LIG A   1      -5.596   4.677 132.866  0.00  0.00    +0.021 C 
ATOM     11  C   LIG A   1      -4.762   4.849 131.594  0.00  0.00    -0.063 C 
ATOM     12  C   LIG A   1      -5.230   4.467 130.394  0.00  0.00    -0.026 C 
ATOM     13  C   LIG A   1      -6.616   3.940 130.167  0.00  0.00    +0.032 C 
ATOM     14  C   LIG A   1      -7.611   4.112 131.347  0.00  0.00    +0.012 C 
ATOM     15  C   LIG A   1      -6.903   3.821 132.720  0.00  0.00    -0.021 C 
ATOM     16  C   LIG A   1      -6.586   2.301 132.775  0.00  0.00    +0.012 C 
ATOM     17  C   LIG A   1      -7.841   4.153 133.923  0.00  0.00    +0.015 C 
ATOM     18  C   LIG A   1      -9.304   4.269 133.535  0.00  0.00    +0.075 C 
ATOM     19  C   LIG A   1      -9.464   5.396 132.538  0.00  0.00    +0.139 C 
ATOM     20  O   LIG A   1     -10.332   6.238 132.691  0.00  0.00    -0.297 OA
ATOM     21  C   LIG A   1      -8.506   5.411 131.329  0.00  0.00    +0.027 C 
ATOM     22  C   LIG A   1      -9.405   5.425 130.072  0.00  0.00    +0.019 C 
ATOM     23  C   LIG A   1      -7.746   6.744 131.361  0.00  0.00    +0.019 C 
ENDROOT
BRANCH   5  24
ATOM     24  C   LIG A   1      -1.655   7.738 133.688  0.00  0.00    +0.051 C 
ATOM     25  C   LIG A   1      -0.738   8.122 134.851  0.00  0.00    +0.254 C 
ATOM     26  O   LIG A   1      -0.778   9.552 134.909  0.00  0.00    -0.345 OA
ATOM     27  C   LIG A   1      -1.035  10.071 133.586  0.00  0.00    +0.153 C 
ATOM     28  C   LIG A   1      -1.339   8.861 132.709  0.00  0.00    +0.043 C 
BRANCH  25  29
ATOM     29  O   LIG A   1       0.600   7.689 134.645  0.00  0.00    -0.354 OA
ATOM     30  C   LIG A   1       1.202   7.281 135.870  0.00  0.00    +0.197 C 
ENDBRANCH  25  29
BRANCH  27  31
ATOM     31  C   LIG A   1       0.166  10.932 133.104  0.00  0.00    +0.174 C 
BRANCH  31  32
ATOM     32  C   LIG A   1      -0.168  12.447 132.841  0.00  0.00    +0.092 C 
ATOM     33  C   LIG A   1       0.388  12.881 131.474  0.00  0.00    +0.044 C 
ATOM     34  C   LIG A   1      -1.698  12.637 132.852  0.00  0.00    +0.044 C 
BRANCH  32  35
ATOM     35  O   LIG A   1       0.411  13.209 133.912  0.00  0.00    -0.374 OA
ATOM     36  C   LIG A   1      -0.452  13.791 134.873  0.00  0.00    +0.194 C 
ENDBRANCH  32  35
ENDBRANCH  31  32
BRANCH  31  37
ATOM     37  O   LIG A   1       1.218  10.828 134.085  0.00  0.00    -0.386 OA
ATOM     38  H   LIG A   1       1.536   9.910 134.075  0.00  0.00    +0.210 HD
ENDBRANCH  31  37
ENDBRANCH  27  31
ENDBRANCH   5  24
TORSDOF 6
ENDMDL
MODEL 4
REMARK VINA RESULT:      -8.0      3.164      5.203
REMARK  Name = NuBBE_1519
REMARK  15 active torsions:
REMARK  status: ('A' for Active; 'I' for Inactive)
REMARK    1  A    between atoms: C_1  and  C_2
REMARK    2  A    between atoms: C_3  and  C_4
REMARK    3  A    between atoms: C_5  and  C_9
REMARK    4  A    between atoms: C_11  and  O_13
REMARK    5  A    between atoms: O_13  and  C_14
REMARK    6  A    between atoms: C_16  and  C_19
REMARK    7  A    between atoms: C_19  and  C_21
REMARK    8  A    between atoms: C_19  and  O_26
REMARK    9  A    between atoms: C_21  and  O_22
REMARK   10  A    between atoms: C_21  and  C_24
REMARK   11  A    between atoms: C_21  and  C_25
REMARK   12  A    between atoms: O_22  and  C_23
REMARK   13  A    between atoms: C_36  and  C_37
REMARK   14  A    between atoms: C_42  and  C_43
REMARK   15  A    between atoms: C_42  and  C_44
REMARK                            x       y       z     vdW  Elec       q    Type
REMARK                         _______ _______ _______ _____ _____    ______ ____
ROOT
ATOM      1  C   LIG A   1      -7.846   0.080 130.622  0.00  0.00    +0.016 C 
ATOM      2  C   LIG A   1      -6.957  -0.071 129.347  0.00  0.00    -0.005 C 
ATOM      3  C   LIG A   1      -6.119   1.190 128.925  0.00  0.00    -0.020 C 
ATOM      4  C   LIG A   1      -5.357   0.961 127.561  0.00  0.00    +0.012 C 
ATOM      5  C   LIG A   1      -7.212   2.256 128.623  0.00  0.00    +0.004 C 
ATOM      6  C   LIG A   1      -8.331   1.375 127.954  0.00  0.00    +0.005 C 
ATOM      7  C   LIG A   1      -7.954  -0.121 128.172  0.00  0.00    +0.012 C 
ATOM      8  C   LIG A   1      -5.043   1.518 129.964  0.00  0.00    +0.008 C 
ATOM      9  C   LIG A   1      -4.099   0.327 130.177  0.00  0.00    +0.009 C 
ATOM     10  C   LIG A   1      -4.891  -0.911 130.646  0.00  0.00    +0.021 C 
ATOM     11  C   LIG A   1      -6.048  -1.253 129.703  0.00  0.00    -0.063 C 
ATOM     12  C   LIG A   1      -6.374  -2.527 129.428  0.00  0.00    -0.026 C 
ATOM     13  C   LIG A   1      -5.724  -3.714 130.077  0.00  0.00    +0.032 C 
ATOM     14  C   LIG A   1      -4.828  -3.410 131.309  0.00  0.00    +0.012 C 
ATOM     15  C   LIG A   1      -3.975  -2.112 131.072  0.00  0.00    -0.021 C 
ATOM     16  C   LIG A   1      -2.925  -2.432 129.973  0.00  0.00    +0.012 C 
ATOM     17  C   LIG A   1      -3.199  -1.700 132.363  0.00  0.00    +0.015 C 
ATOM     18  C   LIG A   1      -3.096  -2.814 133.387  0.00  0.00    +0.075 C 
ATOM     19  C   LIG A   1      -4.487  -3.213 133.828  0.00  0.00    +0.139 C 
ATOM     20  O   LIG A   1      -4.753  -3.322 135.012  0.00  0.00    -0.297 OA
ATOM     21  C   LIG A   1      -5.526  -3.492 132.723  0.00  0.00    +0.027 C 
ATOM     22  C   LIG A   1      -6.050  -4.922 132.979  0.00  0.00    +0.019 C 
ATOM     23  C   LIG A   1      -6.701  -2.529 132.942  0.00  0.00    +0.019 C 
ENDROOT
BRANCH   5  24
ATOM     24  C   LIG A   1      -7.770   3.154 129.769  0.00  0.00    +0.051 C 
ATOM     25  C   LIG A   1      -6.969   4.369 130.243  0.00  0.00    +0.254 C 
ATOM     26  O   LIG A   1      -7.919   5.216 130.900  0.00  0.00    -0.345 OA
ATOM     27  C   LIG A   1      -9.223   5.006 130.315  0.00  0.00    +0.153 C 
ATOM     28  C   LIG A   1      -9.072   3.828 129.359  0.00  0.00    +0.043 C 
BRANCH  25  29
ATOM     29  O   LIG A   1      -6.371   5.071 129.162  0.00  0.00    -0.354 OA
ATOM     30  C   LIG A   1      -4.969   5.225 129.364  0.00  0.00    +0.197 C 
ENDBRANCH  25  29
BRANCH  27  31
ATOM     31  C   LIG A   1      -9.731   6.316 129.652  0.00  0.00    +0.174 C 
BRANCH  31  32
ATOM     32  C   LIG A   1     -11.243   6.655 129.928  0.00  0.00    +0.092 C 
ATOM     33  C   LIG A   1     -11.603   6.315 131.384  0.00  0.00    +0.044 C 
ATOM     34  C   LIG A   1     -11.476   8.159 129.683  0.00  0.00    +0.044 C 
BRANCH  32  35
ATOM     35  O   LIG A   1     -12.032   5.897 128.998  0.00  0.00    -0.374 OA
ATOM     36  C   LIG A   1     -13.210   6.483 128.474  0.00  0.00    +0.194 C 
ENDBRANCH  32  35
ENDBRANCH  31  32
BRANCH  31  37
ATOM     37  O   LIG A   1      -8.897   7.403 130.102  0.00  0.00    -0.386 OA
ATOM     38  H   LIG A   1      -8.000   7.051 130.223  0.00  0.00    +0.210 HD
ENDBRANCH  31  37
ENDBRANCH  27  31
ENDBRANCH   5  24
TORSDOF 6
ENDMDL
MODEL 5
REMARK VINA RESULT:      -8.0      3.893      8.614
REMARK  Name = NuBBE_1519
REMARK  15 active torsions:
REMARK  status: ('A' for Active; 'I' for Inactive)
REMARK    1  A    between atoms: C_1  and  C_2
REMARK    2  A    between atoms: C_3  and  C_4
REMARK    3  A    between atoms: C_5  and  C_9
REMARK    4  A    between atoms: C_11  and  O_13
REMARK    5  A    between atoms: O_13  and  C_14
REMARK    6  A    between atoms: C_16  and  C_19
REMARK    7  A    between atoms: C_19  and  C_21
REMARK    8  A    between atoms: C_19  and  O_26
REMARK    9  A    between atoms: C_21  and  O_22
REMARK   10  A    between atoms: C_21  and  C_24
REMARK   11  A    between atoms: C_21  and  C_25
REMARK   12  A    between atoms: O_22  and  C_23
REMARK   13  A    between atoms: C_36  and  C_37
REMARK   14  A    between atoms: C_42  and  C_43
REMARK   15  A    between atoms: C_42  and  C_44
REMARK                            x       y       z     vdW  Elec       q    Type
REMARK                         _______ _______ _______ _____ _____    ______ ____
ROOT
ATOM      1  C   LIG A   1      -6.487   3.569 129.370  0.00  0.00    +0.016 C 
ATOM      2  C   LIG A   1      -7.020   3.137 130.773  0.00  0.00    -0.005 C 
ATOM      3  C   LIG A   1      -6.940   1.604 131.112  0.00  0.00    -0.020 C 
ATOM      4  C   LIG A   1      -7.615   1.271 132.500  0.00  0.00    +0.012 C 
ATOM      5  C   LIG A   1      -7.853   0.955 130.033  0.00  0.00    +0.004 C 
ATOM      6  C   LIG A   1      -9.004   2.021 129.916  0.00  0.00    +0.005 C 
ATOM      7  C   LIG A   1      -8.551   3.299 130.683  0.00  0.00    +0.012 C 
ATOM      8  C   LIG A   1      -5.486   1.133 131.221  0.00  0.00    +0.008 C 
ATOM      9  C   LIG A   1      -4.726   1.932 132.289  0.00  0.00    +0.009 C 
ATOM     10  C   LIG A   1      -4.743   3.437 131.949  0.00  0.00    +0.021 C 
ATOM     11  C   LIG A   1      -6.163   3.968 131.734  0.00  0.00    -0.063 C 
ATOM     12  C   LIG A   1      -6.523   5.192 132.154  0.00  0.00    -0.026 C 
ATOM     13  C   LIG A   1      -5.573   6.178 132.768  0.00  0.00    +0.032 C 
ATOM     14  C   LIG A   1      -4.063   5.832 132.650  0.00  0.00    +0.012 C 
ATOM     15  C   LIG A   1      -3.823   4.297 132.886  0.00  0.00    -0.021 C 
ATOM     16  C   LIG A   1      -4.113   3.999 134.383  0.00  0.00    +0.012 C 
ATOM     17  C   LIG A   1      -2.338   3.906 132.604  0.00  0.00    +0.015 C 
ATOM     18  C   LIG A   1      -1.394   5.094 132.582  0.00  0.00    +0.075 C 
ATOM     19  C   LIG A   1      -1.810   6.038 131.475  0.00  0.00    +0.139 C 
ATOM     20  O   LIG A   1      -0.986   6.469 130.688  0.00  0.00    -0.297 OA
ATOM     21  C   LIG A   1      -3.298   6.437 131.409  0.00  0.00    +0.027 C 
ATOM     22  C   LIG A   1      -3.330   7.980 131.460  0.00  0.00    +0.019 C 
ATOM     23  C   LIG A   1      -3.827   6.015 130.031  0.00  0.00    +0.019 C 
ENDROOT
BRANCH   5  24
ATOM     24  C   LIG A   1      -7.266   0.561 128.642  0.00  0.00    +0.051 C 
ATOM     25  C   LIG A   1      -6.946  -0.904 128.338  0.00  0.00    +0.254 C 
ATOM     26  O   LIG A   1      -6.909  -0.995 126.910  0.00  0.00    -0.345 OA
ATOM     27  C   LIG A   1      -7.789   0.003 126.350  0.00  0.00    +0.153 C 
ATOM     28  C   LIG A   1      -8.252   0.863 127.521  0.00  0.00    +0.043 C 
BRANCH  25  29
ATOM     29  O   LIG A   1      -7.936  -1.787 128.848  0.00  0.00    -0.354 OA
ATOM     30  C   LIG A   1      -7.356  -3.012 129.285  0.00  0.00    +0.197 C 
ENDBRANCH  25  29
BRANCH  27  31
ATOM     31  C   LIG A   1      -8.938  -0.677 125.555  0.00  0.00    +0.174 C 
BRANCH  31  32
ATOM     32  C   LIG A   1      -8.752  -0.679 123.992  0.00  0.00    +0.092 C 
ATOM     33  C   LIG A   1      -7.452   0.050 123.614  0.00  0.00    +0.044 C 
ATOM     34  C   LIG A   1      -8.684  -2.135 123.493  0.00  0.00    +0.044 C 
BRANCH  32  35
ATOM     35  O   LIG A   1      -9.902  -0.035 123.421  0.00  0.00    -0.374 OA
ATOM     36  C   LIG A   1     -10.117   1.337 123.697  0.00  0.00    +0.194 C 
ENDBRANCH  32  35
ENDBRANCH  31  32
BRANCH  31  37
ATOM     37  O   LIG A   1      -9.075  -2.032 126.031  0.00  0.00    -0.386 OA
ATOM     38  H   LIG A   1      -8.556  -2.602 125.439  0.00  0.00    +0.210 HD
ENDBRANCH  31  37
ENDBRANCH  27  31
ENDBRANCH   5  24
TORSDOF 6
ENDMDL
MODEL 6
REMARK VINA RESULT:      -7.7      3.603      9.091
REMARK  Name = NuBBE_1519
REMARK  15 active torsions:
REMARK  status: ('A' for Active; 'I' for Inactive)
REMARK    1  A    between atoms: C_1  and  C_2
REMARK    2  A    between atoms: C_3  and  C_4
REMARK    3  A    between atoms: C_5  and  C_9
REMARK    4  A    between atoms: C_11  and  O_13
REMARK    5  A    between atoms: O_13  and  C_14
REMARK    6  A    between atoms: C_16  and  C_19
REMARK    7  A    between atoms: C_19  and  C_21
REMARK    8  A    between atoms: C_19  and  O_26
REMARK    9  A    between atoms: C_21  and  O_22
REMARK   10  A    between atoms: C_21  and  C_24
REMARK   11  A    between atoms: C_21  and  C_25
REMARK   12  A    between atoms: O_22  and  C_23
REMARK   13  A    between atoms: C_36  and  C_37
REMARK   14  A    between atoms: C_42  and  C_43
REMARK   15  A    between atoms: C_42  and  C_44
REMARK                            x       y       z     vdW  Elec       q    Type
REMARK                         _______ _______ _______ _____ _____    ______ ____
ROOT
ATOM      1  C   LIG A   1      -5.079   1.684 129.255  0.00  0.00    +0.016 C 
ATOM      2  C   LIG A   1      -4.707   3.006 128.510  0.00  0.00    -0.005 C 
ATOM      3  C   LIG A   1      -5.779   3.571 127.510  0.00  0.00    -0.020 C 
ATOM      4  C   LIG A   1      -5.247   4.837 126.729  0.00  0.00    +0.012 C 
ATOM      5  C   LIG A   1      -5.902   2.442 126.447  0.00  0.00    +0.004 C 
ATOM      6  C   LIG A   1      -4.410   1.953 126.337  0.00  0.00    +0.005 C 
ATOM      7  C   LIG A   1      -3.609   2.600 127.507  0.00  0.00    +0.012 C 
ATOM      8  C   LIG A   1      -7.044   4.026 128.246  0.00  0.00    +0.008 C 
ATOM      9  C   LIG A   1      -6.716   5.092 129.299  0.00  0.00    +0.009 C 
ATOM     10  C   LIG A   1      -5.706   4.542 130.327  0.00  0.00    +0.021 C 
ATOM     11  C   LIG A   1      -4.445   3.984 129.661  0.00  0.00    -0.063 C 
ATOM     12  C   LIG A   1      -3.232   4.145 130.215  0.00  0.00    -0.026 C 
ATOM     13  C   LIG A   1      -3.002   4.781 131.554  0.00  0.00    +0.032 C 
ATOM     14  C   LIG A   1      -4.268   5.007 132.426  0.00  0.00    +0.012 C 
ATOM     15  C   LIG A   1      -5.470   5.505 131.545  0.00  0.00    -0.021 C 
ATOM     16  C   LIG A   1      -5.140   6.945 131.064  0.00  0.00    +0.012 C 
ATOM     17  C   LIG A   1      -6.790   5.573 132.375  0.00  0.00    +0.015 C 
ATOM     18  C   LIG A   1      -6.562   5.562 133.875  0.00  0.00    +0.075 C 
ATOM     19  C   LIG A   1      -5.875   4.271 134.263  0.00  0.00    +0.139 C 
ATOM     20  O   LIG A   1      -6.292   3.603 135.192  0.00  0.00    -0.297 OA
ATOM     21  C   LIG A   1      -4.629   3.863 133.450  0.00  0.00    +0.027 C 
ATOM     22  C   LIG A   1      -3.489   3.683 134.477  0.00  0.00    +0.019 C 
ATOM     23  C   LIG A   1      -4.911   2.484 132.837  0.00  0.00    +0.019 C 
ENDROOT
BRANCH   5  24
ATOM     24  C   LIG A   1      -6.898   1.263 126.667  0.00  0.00    +0.051 C 
ATOM     25  C   LIG A   1      -8.276   1.295 126.002  0.00  0.00    +0.254 C 
ATOM     26  O   LIG A   1      -8.719  -0.067 125.983  0.00  0.00    -0.345 OA
ATOM     27  C   LIG A   1      -7.569  -0.938 125.926  0.00  0.00    +0.153 C 
ATOM     28  C   LIG A   1      -6.349  -0.038 126.095  0.00  0.00    +0.043 C 
BRANCH  25  29
ATOM     29  O   LIG A   1      -8.218   1.797 124.674  0.00  0.00    -0.354 OA
ATOM     30  C   LIG A   1      -9.521   2.093 124.180  0.00  0.00    +0.197 C 
ENDBRANCH  25  29
BRANCH  27  31
ATOM     31  C   LIG A   1      -7.585  -1.762 124.609  0.00  0.00    +0.174 C 
BRANCH  31  32
ATOM     32  C   LIG A   1      -8.188  -3.210 124.741  0.00  0.00    +0.092 C 
ATOM     33  C   LIG A   1      -8.654  -3.459 126.186  0.00  0.00    +0.044 C 
ATOM     34  C   LIG A   1      -9.391  -3.346 123.788  0.00  0.00    +0.044 C 
BRANCH  32  35
ATOM     35  O   LIG A   1      -7.166  -4.141 124.350  0.00  0.00    -0.374 OA
ATOM     36  C   LIG A   1      -5.864  -3.646 124.090  0.00  0.00    +0.194 C 
ENDBRANCH  32  35
ENDBRANCH  31  32
BRANCH  31  37
ATOM     37  O   LIG A   1      -8.320  -1.017 123.618  0.00  0.00    -0.386 OA
ATOM     38  H   LIG A   1      -9.256  -1.030 123.879  0.00  0.00    +0.210 HD
ENDBRANCH  31  37
ENDBRANCH  27  31
ENDBRANCH   5  24
TORSDOF 6
ENDMDL
MODEL 7
REMARK VINA RESULT:      -7.6      3.656      4.796
REMARK  Name = NuBBE_1519
REMARK  15 active torsions:
REMARK  status: ('A' for Active; 'I' for Inactive)
REMARK    1  A    between atoms: C_1  and  C_2
REMARK    2  A    between atoms: C_3  and  C_4
REMARK    3  A    between atoms: C_5  and  C_9
REMARK    4  A    between atoms: C_11  and  O_13
REMARK    5  A    between atoms: O_13  and  C_14
REMARK    6  A    between atoms: C_16  and  C_19
REMARK    7  A    between atoms: C_19  and  C_21
REMARK    8  A    between atoms: C_19  and  O_26
REMARK    9  A    between atoms: C_21  and  O_22
REMARK   10  A    between atoms: C_21  and  C_24
REMARK   11  A    between atoms: C_21  and  C_25
REMARK   12  A    between atoms: O_22  and  C_23
REMARK   13  A    between atoms: C_36  and  C_37
REMARK   14  A    between atoms: C_42  and  C_43
REMARK   15  A    between atoms: C_42  and  C_44
REMARK                            x       y       z     vdW  Elec       q    Type
REMARK                         _______ _______ _______ _____ _____    ______ ____
ROOT
ATOM      1  C   LIG A   1      -4.877   1.226 128.994  0.00  0.00    +0.016 C 
ATOM      2  C   LIG A   1      -5.277   0.083 129.980  0.00  0.00    -0.005 C 
ATOM      3  C   LIG A   1      -6.380   0.431 131.045  0.00  0.00    -0.020 C 
ATOM      4  C   LIG A   1      -6.614  -0.757 132.059  0.00  0.00    +0.012 C 
ATOM      5  C   LIG A   1      -5.722   1.570 131.875  0.00  0.00    +0.004 C 
ATOM      6  C   LIG A   1      -4.223   1.096 131.924  0.00  0.00    +0.005 C 
ATOM      7  C   LIG A   1      -4.061  -0.079 130.913  0.00  0.00    +0.012 C 
ATOM      8  C   LIG A   1      -7.734   0.696 130.379  0.00  0.00    +0.008 C 
ATOM      9  C   LIG A   1      -8.188  -0.513 129.551  0.00  0.00    +0.009 C 
ATOM     10  C   LIG A   1      -7.147  -0.841 128.459  0.00  0.00    +0.021 C 
ATOM     11  C   LIG A   1      -5.742  -1.033 129.037  0.00  0.00    -0.063 C 
ATOM     12  C   LIG A   1      -4.906  -1.966 128.550  0.00  0.00    -0.026 C 
ATOM     13  C   LIG A   1      -5.215  -2.824 127.359  0.00  0.00    +0.032 C 
ATOM     14  C   LIG A   1      -6.450  -2.399 126.517  0.00  0.00    +0.012 C 
ATOM     15  C   LIG A   1      -7.630  -1.940 127.449  0.00  0.00    -0.021 C 
ATOM     16  C   LIG A   1      -8.157  -3.196 128.196  0.00  0.00    +0.012 C 
ATOM     17  C   LIG A   1      -8.812  -1.352 126.617  0.00  0.00    +0.015 C 
ATOM     18  C   LIG A   1      -8.761  -1.723 125.147  0.00  0.00    +0.075 C 
ATOM     19  C   LIG A   1      -7.490  -1.170 124.540  0.00  0.00    +0.139 C 
ATOM     20  O   LIG A   1      -7.524  -0.547 123.493  0.00  0.00    -0.297 OA
ATOM     21  C   LIG A   1      -6.170  -1.448 125.289  0.00  0.00    +0.027 C 
ATOM     22  C   LIG A   1      -5.241  -2.146 124.272  0.00  0.00    +0.019 C 
ATOM     23  C   LIG A   1      -5.539  -0.091 125.628  0.00  0.00    +0.019 C 
ENDROOT
BRANCH   5  24
ATOM     24  C   LIG A   1      -5.861   3.054 131.417  0.00  0.00    +0.051 C 
ATOM     25  C   LIG A   1      -6.558   4.070 132.324  0.00  0.00    +0.254 C 
ATOM     26  O   LIG A   1      -6.101   5.352 131.880  0.00  0.00    -0.345 OA
ATOM     27  C   LIG A   1      -4.778   5.213 131.317  0.00  0.00    +0.153 C 
ATOM     28  C   LIG A   1      -4.497   3.715 131.267  0.00  0.00    +0.043 C 
BRANCH  25  29
ATOM     29  O   LIG A   1      -6.219   3.889 133.692  0.00  0.00    -0.354 OA
ATOM     30  C   LIG A   1      -7.315   4.214 134.541  0.00  0.00    +0.197 C 
ENDBRANCH  25  29
BRANCH  27  31
ATOM     31  C   LIG A   1      -3.753   6.035 132.146  0.00  0.00    +0.174 C 
BRANCH  31  32
ATOM     32  C   LIG A   1      -3.066   7.217 131.366  0.00  0.00    +0.092 C 
ATOM     33  C   LIG A   1      -4.074   7.874 130.409  0.00  0.00    +0.044 C 
ATOM     34  C   LIG A   1      -2.565   8.266 132.377  0.00  0.00    +0.044 C 
BRANCH  32  35
ATOM     35  O   LIG A   1      -1.944   6.670 130.655  0.00  0.00    -0.374 OA
ATOM     36  C   LIG A   1      -2.067   6.453 129.261  0.00  0.00    +0.194 C 
ENDBRANCH  32  35
ENDBRANCH  31  32
BRANCH  31  37
ATOM     37  O   LIG A   1      -4.424   6.548 133.315  0.00  0.00    -0.386 OA
ATOM     38  H   LIG A   1      -3.865   6.346 134.083  0.00  0.00    +0.210 HD
ENDBRANCH  31  37
ENDBRANCH  27  31
ENDBRANCH   5  24
TORSDOF 6
ENDMDL
MODEL 8
REMARK VINA RESULT:      -7.5      5.358      9.307
REMARK  Name = NuBBE_1519
REMARK  15 active torsions:
REMARK  status: ('A' for Active; 'I' for Inactive)
REMARK    1  A    between atoms: C_1  and  C_2
REMARK    2  A    between atoms: C_3  and  C_4
REMARK    3  A    between atoms: C_5  and  C_9
REMARK    4  A    between atoms: C_11  and  O_13
REMARK    5  A    between atoms: O_13  and  C_14
REMARK    6  A    between atoms: C_16  and  C_19
REMARK    7  A    between atoms: C_19  and  C_21
REMARK    8  A    between atoms: C_19  and  O_26
REMARK    9  A    between atoms: C_21  and  O_22
REMARK   10  A    between atoms: C_21  and  C_24
REMARK   11  A    between atoms: C_21  and  C_25
REMARK   12  A    between atoms: O_22  and  C_23
REMARK   13  A    between atoms: C_36  and  C_37
REMARK   14  A    between atoms: C_42  and  C_43
REMARK   15  A    between atoms: C_42  and  C_44
REMARK                            x       y       z     vdW  Elec       q    Type
REMARK                         _______ _______ _______ _____ _____    ______ ____
ROOT
ATOM      1  C   LIG A   1      -4.253  -0.997 129.898  0.00  0.00    +0.016 C 
ATOM      2  C   LIG A   1      -5.329  -1.837 129.140  0.00  0.00    -0.005 C 
ATOM      3  C   LIG A   1      -6.483  -2.450 130.014  0.00  0.00    -0.020 C 
ATOM      4  C   LIG A   1      -7.440  -3.374 129.163  0.00  0.00    +0.012 C 
ATOM      5  C   LIG A   1      -5.726  -3.404 130.981  0.00  0.00    +0.004 C 
ATOM      6  C   LIG A   1      -4.605  -3.978 130.039  0.00  0.00    +0.005 C 
ATOM      7  C   LIG A   1      -4.603  -3.134 128.729  0.00  0.00    +0.012 C 
ATOM      8  C   LIG A   1      -7.372  -1.354 130.612  0.00  0.00    +0.008 C 
ATOM      9  C   LIG A   1      -7.978  -0.473 129.511  0.00  0.00    +0.009 C 
ATOM     10  C   LIG A   1      -6.862   0.186 128.672  0.00  0.00    +0.021 C 
ATOM     11  C   LIG A   1      -5.876  -0.841 128.110  0.00  0.00    -0.063 C 
ATOM     12  C   LIG A   1      -5.349  -0.706 126.881  0.00  0.00    -0.026 C 
ATOM     13  C   LIG A   1      -5.587   0.481 125.996  0.00  0.00    +0.032 C 
ATOM     14  C   LIG A   1      -6.258   1.709 126.672  0.00  0.00    +0.012 C 
ATOM     15  C   LIG A   1      -7.398   1.252 127.653  0.00  0.00    -0.021 C 
ATOM     16  C   LIG A   1      -8.556   0.675 126.794  0.00  0.00    +0.012 C 
ATOM     17  C   LIG A   1      -7.965   2.460 128.464  0.00  0.00    +0.015 C 
ATOM     18  C   LIG A   1      -7.619   3.809 127.860  0.00  0.00    +0.075 C 
ATOM     19  C   LIG A   1      -6.116   3.972 127.838  0.00  0.00    +0.139 C 
ATOM     20  O   LIG A   1      -5.598   4.994 128.253  0.00  0.00    -0.297 OA
ATOM     21  C   LIG A   1      -5.287   2.809 127.254  0.00  0.00    +0.027 C 
ATOM     22  C   LIG A   1      -4.431   3.420 126.123  0.00  0.00    +0.019 C 
ATOM     23  C   LIG A   1      -4.324   2.334 128.350  0.00  0.00    +0.019 C 
ENDROOT
BRANCH   5  24
ATOM     24  C   LIG A   1      -5.151  -2.863 132.326  0.00  0.00    +0.051 C 
ATOM     25  C   LIG A   1      -5.619  -3.467 133.652  0.00  0.00    +0.254 C 
ATOM     26  O   LIG A   1      -4.600  -3.132 134.601  0.00  0.00    -0.345 OA
ATOM     27  C   LIG A   1      -3.336  -3.011 133.914  0.00  0.00    +0.153 C 
ATOM     28  C   LIG A   1      -3.652  -3.113 132.426  0.00  0.00    +0.043 C 
BRANCH  25  29
ATOM     29  O   LIG A   1      -5.757  -4.880 133.578  0.00  0.00    -0.354 OA
ATOM     30  C   LIG A   1      -6.543  -5.375 134.658  0.00  0.00    +0.197 C 
ENDBRANCH  25  29
BRANCH  27  31
ATOM     31  C   LIG A   1      -2.337  -4.080 134.436  0.00  0.00    +0.174 C 
BRANCH  31  32
ATOM     32  C   LIG A   1      -1.084  -3.502 135.195  0.00  0.00    +0.092 C 
ATOM     33  C   LIG A   1      -1.529  -2.448 136.223  0.00  0.00    +0.044 C 
ATOM     34  C   LIG A   1      -0.360  -4.651 135.924  0.00  0.00    +0.044 C 
BRANCH  32  35
ATOM     35  O   LIG A   1      -0.205  -2.939 134.209  0.00  0.00    -0.374 OA
ATOM     36  C   LIG A   1       0.207  -1.592 134.360  0.00  0.00    +0.194 C 
ENDBRANCH  32  35
ENDBRANCH  31  32
BRANCH  31  37
ATOM     37  O   LIG A   1      -3.054  -4.985 135.300  0.00  0.00    -0.386 OA
ATOM     38  H   LIG A   1      -3.747  -5.408 134.767  0.00  0.00    +0.210 HD
ENDBRANCH  31  37
ENDBRANCH  27  31
ENDBRANCH   5  24
TORSDOF 6
ENDMDL
MODEL 9
REMARK VINA RESULT:      -7.5      4.006      6.523
REMARK  Name = NuBBE_1519
REMARK  15 active torsions:
REMARK  status: ('A' for Active; 'I' for Inactive)
REMARK    1  A    between atoms: C_1  and  C_2
REMARK    2  A    between atoms: C_3  and  C_4
REMARK    3  A    between atoms: C_5  and  C_9
REMARK    4  A    between atoms: C_11  and  O_13
REMARK    5  A    between atoms: O_13  and  C_14
REMARK    6  A    between atoms: C_16  and  C_19
REMARK    7  A    between atoms: C_19  and  C_21
REMARK    8  A    between atoms: C_19  and  O_26
REMARK    9  A    between atoms: C_21  and  O_22
REMARK   10  A    between atoms: C_21  and  C_24
REMARK   11  A    between atoms: C_21  and  C_25
REMARK   12  A    between atoms: O_22  and  C_23
REMARK   13  A    between atoms: C_36  and  C_37
REMARK   14  A    between atoms: C_42  and  C_43
REMARK   15  A    between atoms: C_42  and  C_44
REMARK                            x       y       z     vdW  Elec       q    Type
REMARK                         _______ _______ _______ _____ _____    ______ ____
ROOT
ATOM      1  C   LIG A   1      -5.689   1.519 130.295  0.00  0.00    +0.016 C 
ATOM      2  C   LIG A   1      -7.015   1.215 129.527  0.00  0.00    -0.005 C 
ATOM      3  C   LIG A   1      -6.937   1.237 127.958  0.00  0.00    -0.020 C 
ATOM      4  C   LIG A   1      -8.356   1.037 127.294  0.00  0.00    +0.012 C 
ATOM      5  C   LIG A   1      -6.529   2.706 127.645  0.00  0.00    +0.004 C 
ATOM      6  C   LIG A   1      -7.336   3.494 128.741  0.00  0.00    +0.005 C 
ATOM      7  C   LIG A   1      -7.900   2.457 129.757  0.00  0.00    +0.012 C 
ATOM      8  C   LIG A   1      -6.055   0.102 127.427  0.00  0.00    +0.008 C 
ATOM      9  C   LIG A   1      -6.575  -1.264 127.892  0.00  0.00    +0.009 C 
ATOM     10  C   LIG A   1      -6.609  -1.332 129.434  0.00  0.00    +0.021 C 
ATOM     11  C   LIG A   1      -7.400  -0.174 130.048  0.00  0.00    -0.063 C 
ATOM     12  C   LIG A   1      -8.175  -0.354 131.131  0.00  0.00    -0.026 C 
ATOM     13  C   LIG A   1      -8.265  -1.645 131.889  0.00  0.00    +0.032 C 
ATOM     14  C   LIG A   1      -7.197  -2.716 131.537  0.00  0.00    +0.012 C 
ATOM     15  C   LIG A   1      -6.943  -2.762 129.987  0.00  0.00    -0.021 C 
ATOM     16  C   LIG A   1      -8.220  -3.338 129.316  0.00  0.00    +0.012 C 
ATOM     17  C   LIG A   1      -5.754  -3.711 129.636  0.00  0.00    +0.015 C 
ATOM     18  C   LIG A   1      -5.393  -4.669 130.756  0.00  0.00    +0.075 C 
ATOM     19  C   LIG A   1      -4.966  -3.873 131.970  0.00  0.00    +0.139 C 
ATOM     20  O   LIG A   1      -3.941  -4.156 132.565  0.00  0.00    -0.297 OA
ATOM     21  C   LIG A   1      -5.889  -2.722 132.421  0.00  0.00    +0.027 C 
ATOM     22  C   LIG A   1      -6.242  -3.011 133.897  0.00  0.00    +0.019 C 
ATOM     23  C   LIG A   1      -5.061  -1.431 132.394  0.00  0.00    +0.019 C 
ENDROOT
BRANCH   5  24
ATOM     24  C   LIG A   1      -5.023   3.111 127.610  0.00  0.00    +0.051 C 
ATOM     25  C   LIG A   1      -4.429   3.726 126.342  0.00  0.00    +0.254 C 
ATOM     26  O   LIG A   1      -3.246   4.410 126.771  0.00  0.00    -0.345 OA
ATOM     27  C   LIG A   1      -3.417   4.838 128.139  0.00  0.00    +0.153 C 
ATOM     28  C   LIG A   1      -4.726   4.217 128.614  0.00  0.00    +0.043 C 
BRANCH  25  29
ATOM     29  O   LIG A   1      -5.317   4.648 125.726  0.00  0.00    -0.354 OA
ATOM     30  C   LIG A   1      -5.604   4.267 124.384  0.00  0.00    +0.197 C 
ENDBRANCH  25  29
BRANCH  27  31
ATOM     31  C   LIG A   1      -3.369   6.388 128.227  0.00  0.00    +0.174 C 
BRANCH  31  32
ATOM     32  C   LIG A   1      -3.830   6.989 129.606  0.00  0.00    +0.092 C 
ATOM     33  C   LIG A   1      -2.885   6.525 130.727  0.00  0.00    +0.044 C 
ATOM     34  C   LIG A   1      -3.805   8.527 129.522  0.00  0.00    +0.044 C 
BRANCH  32  35
ATOM     35  O   LIG A   1      -5.178   6.549 129.839  0.00  0.00    -0.374 OA
ATOM     36  C   LIG A   1      -5.853   7.017 130.993  0.00  0.00    +0.194 C 
ENDBRANCH  32  35
ENDBRANCH  31  32
BRANCH  31  37
ATOM     37  O   LIG A   1      -2.022   6.815 127.936  0.00  0.00    -0.386 OA
ATOM     38  H   LIG A   1      -2.068   7.738 127.636  0.00  0.00    +0.210 HD
ENDBRANCH  31  37
ENDBRANCH  27  31
ENDBRANCH   5  24
TORSDOF 6
ENDMDL
