MODEL 1
REMARK VINA RESULT:      -7.4      0.000      0.000
REMARK  Name = NuBBE_117
REMARK  11 active torsions:
REMARK  status: ('A' for Active; 'I' for Inactive)
REMARK    1  A    between atoms: C_2  and  C_3
REMARK    2  A    between atoms: C_2  and  O_35
REMARK    3  A    between atoms: C_6  and  O_18
REMARK    4  A    between atoms: C_12  and  C_13
REMARK    5  A    between atoms: C_13  and  O_14
REMARK    6  A    between atoms: O_18  and  C_19
REMARK    7  A    between atoms: C_22  and  C_33
REMARK    8  A    between atoms: C_24  and  O_32
REMARK    9  A    between atoms: C_26  and  O_31
REMARK   10  A    between atoms: C_28  and  O_30
REMARK   11  A    between atoms: C_33  and  O_34
REMARK                            x       y       z     vdW  Elec       q    Type
REMARK                         _______ _______ _______ _____ _____    ______ ____
ROOT
ATOM      1  C   LIG A   1      -6.943   3.620 121.502  0.00  0.00    +0.075 C 
ATOM      2  C   LIG A   1      -8.256   3.352 121.566  0.00  0.00    +0.201 C 
ATOM      3  O   LIG A   1      -8.899   2.749 122.610  0.00  0.00    -0.470 OA
ATOM      4  C   LIG A   1      -8.053   1.969 123.464  0.00  0.00    +0.317 C 
ATOM      5  C   LIG A   1      -6.777   2.720 123.880  0.00  0.00    +0.102 C 
ATOM      6  C   LIG A   1      -6.006   3.259 122.644  0.00  0.00    +0.046 C 
ATOM      7  C   LIG A   1      -5.226   4.474 123.195  0.00  0.00    +0.037 C 
ATOM      8  C   LIG A   1      -6.052   4.911 124.360  0.00  0.00    -0.015 C 
ATOM      9  C   LIG A   1      -6.917   3.957 124.733  0.00  0.00    +0.042 C 
ENDROOT
BRANCH   1  11
ATOM     10  O   LIG A   1      -5.226   4.699 120.263  0.00  0.00    -0.245 OA
ATOM     11  C   LIG A   1      -6.349   4.221 120.283  0.00  0.00    +0.336 C 
BRANCH  11  12
ATOM     12  O   LIG A   1      -7.160   4.251 119.205  0.00  0.00    -0.477 OA
ATOM     13  H   LIG A   1      -7.432   5.135 118.904  0.00  0.00    +0.295 HD
ENDBRANCH  11  12
ENDBRANCH   1  11
BRANCH   9  14
ATOM     14  C   LIG A   1      -7.842   4.059 125.868  0.00  0.00    +0.333 C 
ATOM     15  O   LIG A   1      -7.619   3.707 127.005  0.00  0.00    -0.245 OA
BRANCH  14  16
ATOM     16  O   LIG A   1      -8.998   4.659 125.531  0.00  0.00    -0.477 OA
ATOM     17  H   LIG A   1      -9.464   3.992 124.986  0.00  0.00    +0.295 HD
ENDBRANCH  14  16
ENDBRANCH   9  14
BRANCH   4  18
ATOM     18  O   LIG A   1      -7.663   0.733 122.836  0.00  0.00    -0.309 OA
BRANCH  18  19
ATOM     19  C   LIG A   1      -7.892  -0.398 123.685  0.00  0.00    +0.286 C 
ATOM     20  O   LIG A   1      -6.692  -1.167 123.765  0.00  0.00    -0.340 OA
ATOM     21  C   LIG A   1      -6.814  -2.304 124.617  0.00  0.00    +0.178 C 
ATOM     22  C   LIG A   1      -7.838  -3.286 124.029  0.00  0.00    +0.177 C 
ATOM     23  C   LIG A   1      -9.179  -2.569 123.873  0.00  0.00    +0.179 C 
ATOM     24  C   LIG A   1      -9.045  -1.250 123.104  0.00  0.00    +0.201 C 
BRANCH  24  25
ATOM     25  O   LIG A   1     -10.304  -0.560 123.188  0.00  0.00    -0.384 OA
ATOM     26  H   LIG A   1     -10.168   0.139 123.859  0.00  0.00    +0.210 HD
ENDBRANCH  24  25
BRANCH  23  27
ATOM     27  O   LIG A   1     -10.116  -3.424 123.195  0.00  0.00    -0.386 OA
ATOM     28  H   LIG A   1      -9.847  -4.334 123.434  0.00  0.00    +0.210 HD
ENDBRANCH  23  27
BRANCH  22  29
ATOM     29  O   LIG A   1      -8.047  -4.428 124.867  0.00  0.00    -0.387 OA
ATOM     30  H   LIG A   1      -8.706  -4.160 125.545  0.00  0.00    +0.210 HD
ENDBRANCH  22  29
BRANCH  21  31
ATOM     31  C   LIG A   1      -5.426  -2.938 124.751  0.00  0.00    +0.190 C 
BRANCH  31  32
ATOM     32  O   LIG A   1      -5.317  -4.103 123.937  0.00  0.00    -0.392 OA
ATOM     33  H   LIG A   1      -5.402  -3.812 123.010  0.00  0.00    +0.209 HD
ENDBRANCH  31  32
ENDBRANCH  21  31
ENDBRANCH  18  19
ENDBRANCH   4  18
TORSDOF 11
ENDMDL
MODEL 2
REMARK VINA RESULT:      -7.3      7.385     10.615
REMARK  Name = NuBBE_117
REMARK  11 active torsions:
REMARK  status: ('A' for Active; 'I' for Inactive)
REMARK    1  A    between atoms: C_2  and  C_3
REMARK    2  A    between atoms: C_2  and  O_35
REMARK    3  A    between atoms: C_6  and  O_18
REMARK    4  A    between atoms: C_12  and  C_13
REMARK    5  A    between atoms: C_13  and  O_14
REMARK    6  A    between atoms: O_18  and  C_19
REMARK    7  A    between atoms: C_22  and  C_33
REMARK    8  A    between atoms: C_24  and  O_32
REMARK    9  A    between atoms: C_26  and  O_31
REMARK   10  A    between atoms: C_28  and  O_30
REMARK   11  A    between atoms: C_33  and  O_34
REMARK                            x       y       z     vdW  Elec       q    Type
REMARK                         _______ _______ _______ _____ _____    ______ ____
ROOT
ATOM      1  C   LIG A   1      -9.012   2.575 131.093  0.00  0.00    +0.075 C 
ATOM      2  C   LIG A   1      -8.981   2.893 129.790  0.00  0.00    +0.201 C 
ATOM      3  O   LIG A   1      -9.186   4.139 129.265  0.00  0.00    -0.470 OA
ATOM      4  C   LIG A   1      -9.911   5.034 130.117  0.00  0.00    +0.317 C 
ATOM      5  C   LIG A   1      -9.367   5.056 131.555  0.00  0.00    +0.102 C 
ATOM      6  C   LIG A   1      -9.292   3.625 132.156  0.00  0.00    +0.046 C 
ATOM      7  C   LIG A   1      -8.173   3.727 133.217  0.00  0.00    +0.037 C 
ATOM      8  C   LIG A   1      -7.323   4.846 132.710  0.00  0.00    -0.015 C 
ATOM      9  C   LIG A   1      -7.968   5.572 131.786  0.00  0.00    +0.042 C 
ENDROOT
BRANCH   1  11
ATOM     10  O   LIG A   1      -9.769   0.475 131.907  0.00  0.00    -0.245 OA
ATOM     11  C   LIG A   1      -8.837   1.171 131.535  0.00  0.00    +0.336 C 
BRANCH  11  12
ATOM     12  O   LIG A   1      -7.562   0.728 131.549  0.00  0.00    -0.477 OA
ATOM     13  H   LIG A   1      -7.229   0.372 130.708  0.00  0.00    +0.295 HD
ENDBRANCH  11  12
ENDBRANCH   1  11
BRANCH   9  14
ATOM     14  C   LIG A   1      -7.424   6.764 131.123  0.00  0.00    +0.333 C 
ATOM     15  O   LIG A   1      -8.042   7.540 130.429  0.00  0.00    -0.245 OA
BRANCH  14  16
ATOM     16  O   LIG A   1      -6.126   6.960 131.415  0.00  0.00    -0.477 OA
ATOM     17  H   LIG A   1      -5.921   6.267 132.075  0.00  0.00    +0.295 HD
ENDBRANCH  14  16
ENDBRANCH   9  14
BRANCH   4  18
ATOM     18  O   LIG A   1     -11.310   4.696 130.171  0.00  0.00    -0.309 OA
BRANCH  18  19
ATOM     19  C   LIG A   1     -12.138   5.745 129.653  0.00  0.00    +0.286 C 
ATOM     20  O   LIG A   1     -11.616   6.165 128.392  0.00  0.00    -0.340 OA
ATOM     21  C   LIG A   1     -12.395   7.191 127.781  0.00  0.00    +0.178 C 
ATOM     22  C   LIG A   1     -12.342   8.464 128.640  0.00  0.00    +0.177 C 
ATOM     23  C   LIG A   1     -12.863   8.139 130.040  0.00  0.00    +0.179 C 
ATOM     24  C   LIG A   1     -12.156   6.926 130.653  0.00  0.00    +0.201 C 
BRANCH  24  25
ATOM     25  O   LIG A   1     -12.847   6.577 131.866  0.00  0.00    -0.384 OA
ATOM     26  H   LIG A   1     -13.128   7.431 132.253  0.00  0.00    +0.210 HD
ENDBRANCH  24  25
BRANCH  23  27
ATOM     27  O   LIG A   1     -12.692   9.277 130.903  0.00  0.00    -0.386 OA
ATOM     28  H   LIG A   1     -13.435   9.225 131.539  0.00  0.00    +0.210 HD
ENDBRANCH  23  27
BRANCH  22  29
ATOM     29  O   LIG A   1     -13.149   9.520 128.107  0.00  0.00    -0.387 OA
ATOM     30  H   LIG A   1     -12.534  10.249 127.869  0.00  0.00    +0.210 HD
ENDBRANCH  22  29
BRANCH  21  31
ATOM     31  C   LIG A   1     -11.835   7.428 126.375  0.00  0.00    +0.190 C 
BRANCH  31  32
ATOM     32  O   LIG A   1     -10.684   6.622 126.141  0.00  0.00    -0.392 OA
ATOM     33  H   LIG A   1     -10.781   6.239 125.249  0.00  0.00    +0.209 HD
ENDBRANCH  31  32
ENDBRANCH  21  31
ENDBRANCH  18  19
ENDBRANCH   4  18
TORSDOF 11
ENDMDL
MODEL 3
REMARK VINA RESULT:      -7.1      8.196     10.655
REMARK  Name = NuBBE_117
REMARK  11 active torsions:
REMARK  status: ('A' for Active; 'I' for Inactive)
REMARK    1  A    between atoms: C_2  and  C_3
REMARK    2  A    between atoms: C_2  and  O_35
REMARK    3  A    between atoms: C_6  and  O_18
REMARK    4  A    between atoms: C_12  and  C_13
REMARK    5  A    between atoms: C_13  and  O_14
REMARK    6  A    between atoms: O_18  and  C_19
REMARK    7  A    between atoms: C_22  and  C_33
REMARK    8  A    between atoms: C_24  and  O_32
REMARK    9  A    between atoms: C_26  and  O_31
REMARK   10  A    between atoms: C_28  and  O_30
REMARK   11  A    between atoms: C_33  and  O_34
REMARK                            x       y       z     vdW  Elec       q    Type
REMARK                         _______ _______ _______ _____ _____    ______ ____
ROOT
ATOM      1  C   LIG A   1      -6.616   4.401 132.014  0.00  0.00    +0.075 C 
ATOM      2  C   LIG A   1      -7.172   4.390 130.793  0.00  0.00    +0.201 C 
ATOM      3  O   LIG A   1      -7.338   5.476 129.980  0.00  0.00    -0.470 OA
ATOM      4  C   LIG A   1      -7.329   6.738 130.659  0.00  0.00    +0.317 C 
ATOM      5  C   LIG A   1      -6.150   6.877 131.635  0.00  0.00    +0.102 C 
ATOM      6  C   LIG A   1      -6.094   5.687 132.633  0.00  0.00    +0.046 C 
ATOM      7  C   LIG A   1      -4.603   5.608 133.032  0.00  0.00    +0.037 C 
ATOM      8  C   LIG A   1      -3.902   6.200 131.853  0.00  0.00    -0.015 C 
ATOM      9  C   LIG A   1      -4.749   6.888 131.073  0.00  0.00    +0.042 C 
ENDROOT
BRANCH   1  11
ATOM     10  O   LIG A   1      -6.035   2.132 132.424  0.00  0.00    -0.245 OA
ATOM     11  C   LIG A   1      -6.549   3.163 132.829  0.00  0.00    +0.336 C 
BRANCH  11  12
ATOM     12  O   LIG A   1      -7.146   3.240 134.037  0.00  0.00    -0.477 OA
ATOM     13  H   LIG A   1      -6.647   3.710 134.727  0.00  0.00    +0.295 HD
ENDBRANCH  11  12
ENDBRANCH   1  11
BRANCH   9  14
ATOM     14  C   LIG A   1      -4.368   7.622 129.861  0.00  0.00    +0.333 C 
ATOM     15  O   LIG A   1      -4.074   8.795 129.799  0.00  0.00    -0.245 OA
BRANCH  14  16
ATOM     16  O   LIG A   1      -4.316   6.826 128.778  0.00  0.00    -0.477 OA
ATOM     17  H   LIG A   1      -3.432   7.001 128.395  0.00  0.00    +0.295 HD
ENDBRANCH  14  16
ENDBRANCH   9  14
BRANCH   4  18
ATOM     18  O   LIG A   1      -8.549   6.951 131.394  0.00  0.00    -0.309 OA
BRANCH  18  19
ATOM     19  C   LIG A   1      -9.703   6.533 130.655  0.00  0.00    +0.286 C 
ATOM     20  O   LIG A   1      -9.755   7.262 129.428  0.00  0.00    -0.340 OA
ATOM     21  C   LIG A   1     -10.859   6.892 128.606  0.00  0.00    +0.178 C 
ATOM     22  C   LIG A   1     -12.175   7.262 129.305  0.00  0.00    +0.177 C 
ATOM     23  C   LIG A   1     -12.234   6.552 130.657  0.00  0.00    +0.179 C 
ATOM     24  C   LIG A   1     -10.975   6.797 131.496  0.00  0.00    +0.201 C 
BRANCH  24  25
ATOM     25  O   LIG A   1     -11.034   5.933 132.645  0.00  0.00    -0.384 OA
ATOM     26  H   LIG A   1     -10.360   5.243 132.480  0.00  0.00    +0.210 HD
ENDBRANCH  24  25
BRANCH  23  27
ATOM     27  O   LIG A   1     -13.389   6.992 131.392  0.00  0.00    -0.386 OA
ATOM     28  H   LIG A   1     -13.233   7.944 131.562  0.00  0.00    +0.210 HD
ENDBRANCH  23  27
BRANCH  22  29
ATOM     29  O   LIG A   1     -13.327   6.867 128.552  0.00  0.00    -0.387 OA
ATOM     30  H   LIG A   1     -13.320   5.884 128.526  0.00  0.00    +0.210 HD
ENDBRANCH  22  29
BRANCH  21  31
ATOM     31  C   LIG A   1     -10.703   7.612 127.263  0.00  0.00    +0.190 C 
BRANCH  31  32
ATOM     32  O   LIG A   1     -11.277   6.849 126.204  0.00  0.00    -0.392 OA
ATOM     33  H   LIG A   1     -12.032   7.362 125.861  0.00  0.00    +0.209 HD
ENDBRANCH  31  32
ENDBRANCH  21  31
ENDBRANCH  18  19
ENDBRANCH   4  18
TORSDOF 11
ENDMDL
MODEL 4
REMARK VINA RESULT:      -7.0      4.357      8.104
REMARK  Name = NuBBE_117
REMARK  11 active torsions:
REMARK  status: ('A' for Active; 'I' for Inactive)
REMARK    1  A    between atoms: C_2  and  C_3
REMARK    2  A    between atoms: C_2  and  O_35
REMARK    3  A    between atoms: C_6  and  O_18
REMARK    4  A    between atoms: C_12  and  C_13
REMARK    5  A    between atoms: C_13  and  O_14
REMARK    6  A    between atoms: O_18  and  C_19
REMARK    7  A    between atoms: C_22  and  C_33
REMARK    8  A    between atoms: C_24  and  O_32
REMARK    9  A    between atoms: C_26  and  O_31
REMARK   10  A    between atoms: C_28  and  O_30
REMARK   11  A    between atoms: C_33  and  O_34
REMARK                            x       y       z     vdW  Elec       q    Type
REMARK                         _______ _______ _______ _____ _____    ______ ____
ROOT
ATOM      1  C   LIG A   1      -7.985   3.090 125.665  0.00  0.00    +0.075 C 
ATOM      2  C   LIG A   1      -7.695   4.331 126.082  0.00  0.00    +0.201 C 
ATOM      3  O   LIG A   1      -7.005   4.652 127.217  0.00  0.00    -0.470 OA
ATOM      4  C   LIG A   1      -6.996   3.630 128.221  0.00  0.00    +0.317 C 
ATOM      5  C   LIG A   1      -6.637   2.246 127.655  0.00  0.00    +0.102 C 
ATOM      6  C   LIG A   1      -7.551   1.867 126.457  0.00  0.00    +0.046 C 
ATOM      7  C   LIG A   1      -6.691   0.883 125.632  0.00  0.00    +0.037 C 
ATOM      8  C   LIG A   1      -5.292   1.279 125.978  0.00  0.00    -0.015 C 
ATOM      9  C   LIG A   1      -5.257   2.040 127.081  0.00  0.00    +0.042 C 
ENDROOT
BRANCH   1  11
ATOM     10  O   LIG A   1      -8.482   3.311 123.351  0.00  0.00    -0.245 OA
ATOM     11  C   LIG A   1      -8.799   2.870 124.444  0.00  0.00    +0.336 C 
BRANCH  11  12
ATOM     12  O   LIG A   1      -9.949   2.190 124.637  0.00  0.00    -0.477 OA
ATOM     13  H   LIG A   1     -10.142   1.493 123.987  0.00  0.00    +0.295 HD
ENDBRANCH  11  12
ENDBRANCH   1  11
BRANCH   9  14
ATOM     14  C   LIG A   1      -4.034   2.558 127.706  0.00  0.00    +0.333 C 
ATOM     15  O   LIG A   1      -3.444   3.568 127.393  0.00  0.00    -0.245 OA
BRANCH  14  16
ATOM     16  O   LIG A   1      -3.635   1.805 128.747  0.00  0.00    -0.477 OA
ATOM     17  H   LIG A   1      -4.398   1.217 128.923  0.00  0.00    +0.295 HD
ENDBRANCH  14  16
ENDBRANCH   9  14
BRANCH   4  18
ATOM     18  O   LIG A   1      -8.272   3.528 128.882  0.00  0.00    -0.309 OA
BRANCH  18  19
ATOM     19  C   LIG A   1      -8.427   4.517 129.908  0.00  0.00    +0.286 C 
ATOM     20  O   LIG A   1      -8.574   3.857 131.167  0.00  0.00    -0.340 OA
ATOM     21  C   LIG A   1      -8.705   4.764 132.258  0.00  0.00    +0.178 C 
ATOM     22  C   LIG A   1     -10.005   5.569 132.113  0.00  0.00    +0.177 C 
ATOM     23  C   LIG A   1      -9.979   6.315 130.779  0.00  0.00    +0.179 C 
ATOM     24  C   LIG A   1      -9.669   5.385 129.601  0.00  0.00    +0.201 C 
BRANCH  24  25
ATOM     25  O   LIG A   1      -9.466   6.202 128.435  0.00  0.00    -0.384 OA
ATOM     26  H   LIG A   1      -8.760   5.751 127.928  0.00  0.00    +0.210 HD
ENDBRANCH  24  25
BRANCH  23  27
ATOM     27  O   LIG A   1     -11.244   6.962 130.555  0.00  0.00    -0.386 OA
ATOM     28  H   LIG A   1     -11.834   6.612 131.254  0.00  0.00    +0.210 HD
ENDBRANCH  23  27
BRANCH  22  29
ATOM     29  O   LIG A   1     -10.171   6.539 133.154  0.00  0.00    -0.387 OA
ATOM     30  H   LIG A   1      -9.791   6.141 133.969  0.00  0.00    +0.210 HD
ENDBRANCH  22  29
BRANCH  21  31
ATOM     31  C   LIG A   1      -8.683   3.944 133.552  0.00  0.00    +0.190 C 
BRANCH  31  32
ATOM     32  O   LIG A   1      -9.980   3.880 134.138  0.00  0.00    -0.392 OA
ATOM     33  H   LIG A   1     -10.585   3.540 133.453  0.00  0.00    +0.209 HD
ENDBRANCH  31  32
ENDBRANCH  21  31
ENDBRANCH  18  19
ENDBRANCH   4  18
TORSDOF 11
ENDMDL
MODEL 5
REMARK VINA RESULT:      -6.9      6.588      9.750
REMARK  Name = NuBBE_117
REMARK  11 active torsions:
REMARK  status: ('A' for Active; 'I' for Inactive)
REMARK    1  A    between atoms: C_2  and  C_3
REMARK    2  A    between atoms: C_2  and  O_35
REMARK    3  A    between atoms: C_6  and  O_18
REMARK    4  A    between atoms: C_12  and  C_13
REMARK    5  A    between atoms: C_13  and  O_14
REMARK    6  A    between atoms: O_18  and  C_19
REMARK    7  A    between atoms: C_22  and  C_33
REMARK    8  A    between atoms: C_24  and  O_32
REMARK    9  A    between atoms: C_26  and  O_31
REMARK   10  A    between atoms: C_28  and  O_30
REMARK   11  A    between atoms: C_33  and  O_34
REMARK                            x       y       z     vdW  Elec       q    Type
REMARK                         _______ _______ _______ _____ _____    ______ ____
ROOT
ATOM      1  C   LIG A   1      -6.359   4.063 129.550  0.00  0.00    +0.075 C 
ATOM      2  C   LIG A   1      -6.073   4.378 130.822  0.00  0.00    +0.201 C 
ATOM      3  O   LIG A   1      -6.953   4.364 131.867  0.00  0.00    -0.470 OA
ATOM      4  C   LIG A   1      -8.332   4.457 131.489  0.00  0.00    +0.317 C 
ATOM      5  C   LIG A   1      -8.704   3.481 130.360  0.00  0.00    +0.102 C 
ATOM      6  C   LIG A   1      -7.759   3.641 129.136  0.00  0.00    +0.046 C 
ATOM      7  C   LIG A   1      -7.798   2.255 128.455  0.00  0.00    +0.037 C 
ATOM      8  C   LIG A   1      -8.136   1.330 129.579  0.00  0.00    -0.015 C 
ATOM      9  C   LIG A   1      -8.621   2.000 130.635  0.00  0.00    +0.042 C 
ENDROOT
BRANCH   1  11
ATOM     10  O   LIG A   1      -4.223   3.670 128.584  0.00  0.00    -0.245 OA
ATOM     11  C   LIG A   1      -5.329   4.179 128.489  0.00  0.00    +0.336 C 
BRANCH  11  12
ATOM     12  O   LIG A   1      -5.681   4.935 127.428  0.00  0.00    -0.477 OA
ATOM     13  H   LIG A   1      -5.056   5.640 127.185  0.00  0.00    +0.295 HD
ENDBRANCH  11  12
ENDBRANCH   1  11
BRANCH   9  14
ATOM     14  C   LIG A   1      -9.084   1.380 131.882  0.00  0.00    +0.333 C 
ATOM     15  O   LIG A   1     -10.066   0.684 132.013  0.00  0.00    -0.245 OA
BRANCH  14  16
ATOM     16  O   LIG A   1      -8.248   1.617 132.909  0.00  0.00    -0.477 OA
ATOM     17  H   LIG A   1      -8.828   1.603 133.698  0.00  0.00    +0.295 HD
ENDBRANCH  14  16
ENDBRANCH   9  14
BRANCH   4  18
ATOM     18  O   LIG A   1      -8.675   5.789 131.062  0.00  0.00    -0.309 OA
BRANCH  18  19
ATOM     19  C   LIG A   1      -9.983   5.848 130.480  0.00  0.00    +0.286 C 
ATOM     20  O   LIG A   1      -9.914   6.589 129.261  0.00  0.00    -0.340 OA
ATOM     21  C   LIG A   1     -11.169   6.676 128.591  0.00  0.00    +0.178 C 
ATOM     22  C   LIG A   1     -12.162   7.476 129.447  0.00  0.00    +0.177 C 
ATOM     23  C   LIG A   1     -12.310   6.788 130.805  0.00  0.00    +0.179 C 
ATOM     24  C   LIG A   1     -10.956   6.527 131.473  0.00  0.00    +0.201 C 
BRANCH  24  25
ATOM     25  O   LIG A   1     -11.186   5.704 132.631  0.00  0.00    -0.384 OA
ATOM     26  H   LIG A   1     -11.067   4.784 132.317  0.00  0.00    +0.210 HD
ENDBRANCH  24  25
BRANCH  23  27
ATOM     27  O   LIG A   1     -13.125   7.593 131.675  0.00  0.00    -0.386 OA
ATOM     28  H   LIG A   1     -12.488   8.064 132.252  0.00  0.00    +0.210 HD
ENDBRANCH  23  27
BRANCH  22  29
ATOM     29  O   LIG A   1     -13.462   7.555 128.852  0.00  0.00    -0.387 OA
ATOM     30  H   LIG A   1     -14.106   7.597 129.594  0.00  0.00    +0.210 HD
ENDBRANCH  22  29
BRANCH  21  31
ATOM     31  C   LIG A   1     -10.927   7.337 127.231  0.00  0.00    +0.190 C 
BRANCH  31  32
ATOM     32  O   LIG A   1     -11.775   6.777 126.232  0.00  0.00    -0.392 OA
ATOM     33  H   LIG A   1     -12.685   6.803 126.584  0.00  0.00    +0.209 HD
ENDBRANCH  31  32
ENDBRANCH  21  31
ENDBRANCH  18  19
ENDBRANCH   4  18
TORSDOF 11
ENDMDL
MODEL 6
REMARK VINA RESULT:      -6.8      3.236      7.491
REMARK  Name = NuBBE_117
REMARK  11 active torsions:
REMARK  status: ('A' for Active; 'I' for Inactive)
REMARK    1  A    between atoms: C_2  and  C_3
REMARK    2  A    between atoms: C_2  and  O_35
REMARK    3  A    between atoms: C_6  and  O_18
REMARK    4  A    between atoms: C_12  and  C_13
REMARK    5  A    between atoms: C_13  and  O_14
REMARK    6  A    between atoms: O_18  and  C_19
REMARK    7  A    between atoms: C_22  and  C_33
REMARK    8  A    between atoms: C_24  and  O_32
REMARK    9  A    between atoms: C_26  and  O_31
REMARK   10  A    between atoms: C_28  and  O_30
REMARK   11  A    between atoms: C_33  and  O_34
REMARK                            x       y       z     vdW  Elec       q    Type
REMARK                         _______ _______ _______ _____ _____    ______ ____
ROOT
ATOM      1  C   LIG A   1      -7.808  -2.508 126.163  0.00  0.00    +0.075 C 
ATOM      2  C   LIG A   1      -6.691  -1.976 125.646  0.00  0.00    +0.201 C 
ATOM      3  O   LIG A   1      -5.854  -1.100 126.279  0.00  0.00    -0.470 OA
ATOM      4  C   LIG A   1      -6.452  -0.381 127.365  0.00  0.00    +0.317 C 
ATOM      5  C   LIG A   1      -7.226  -1.297 128.328  0.00  0.00    +0.102 C 
ATOM      6  C   LIG A   1      -8.268  -2.167 127.571  0.00  0.00    +0.046 C 
ATOM      7  C   LIG A   1      -8.435  -3.411 128.472  0.00  0.00    +0.037 C 
ATOM      8  C   LIG A   1      -7.131  -3.486 129.198  0.00  0.00    -0.015 C 
ATOM      9  C   LIG A   1      -6.455  -2.331 129.111  0.00  0.00    +0.042 C 
ENDROOT
BRANCH   1  11
ATOM     10  O   LIG A   1      -8.237  -4.373 124.752  0.00  0.00    -0.245 OA
ATOM     11  C   LIG A   1      -8.670  -3.400 125.350  0.00  0.00    +0.336 C 
BRANCH  11  12
ATOM     12  O   LIG A   1      -9.966  -3.031 125.273  0.00  0.00    -0.477 OA
ATOM     13  H   LIG A   1     -10.128  -2.094 125.069  0.00  0.00    +0.295 HD
ENDBRANCH  11  12
ENDBRANCH   1  11
BRANCH   9  14
ATOM     14  C   LIG A   1      -5.160  -2.066 129.748  0.00  0.00    +0.333 C 
ATOM     15  O   LIG A   1      -4.969  -1.887 130.930  0.00  0.00    -0.245 OA
BRANCH  14  16
ATOM     16  O   LIG A   1      -4.143  -2.095 128.868  0.00  0.00    -0.477 OA
ATOM     17  H   LIG A   1      -4.547  -1.802 128.026  0.00  0.00    +0.295 HD
ENDBRANCH  14  16
ENDBRANCH   9  14
BRANCH   4  18
ATOM     18  O   LIG A   1      -7.354   0.637 126.891  0.00  0.00    -0.309 OA
BRANCH  18  19
ATOM     19  C   LIG A   1      -6.751   1.466 125.889  0.00  0.00    +0.286 C 
ATOM     20  O   LIG A   1      -6.092   2.560 126.530  0.00  0.00    -0.340 OA
ATOM     21  C   LIG A   1      -5.434   3.428 125.611  0.00  0.00    +0.178 C 
ATOM     22  C   LIG A   1      -6.470   4.107 124.703  0.00  0.00    +0.177 C 
ATOM     23  C   LIG A   1      -7.265   3.029 123.967  0.00  0.00    +0.179 C 
ATOM     24  C   LIG A   1      -7.844   1.982 124.923  0.00  0.00    +0.201 C 
BRANCH  24  25
ATOM     25  O   LIG A   1      -8.392   0.914 124.130  0.00  0.00    -0.384 OA
ATOM     26  H   LIG A   1      -7.617   0.476 123.723  0.00  0.00    +0.210 HD
ENDBRANCH  24  25
BRANCH  23  27
ATOM     27  O   LIG A   1      -8.335   3.635 123.219  0.00  0.00    -0.386 OA
ATOM     28  H   LIG A   1      -7.965   3.785 122.325  0.00  0.00    +0.210 HD
ENDBRANCH  23  27
BRANCH  22  29
ATOM     29  O   LIG A   1      -5.867   4.955 123.720  0.00  0.00    -0.387 OA
ATOM     30  H   LIG A   1      -6.313   4.753 122.867  0.00  0.00    +0.210 HD
ENDBRANCH  22  29
BRANCH  21  31
ATOM     31  C   LIG A   1      -4.632   4.448 126.425  0.00  0.00    +0.190 C 
BRANCH  31  32
ATOM     32  O   LIG A   1      -5.310   5.700 126.485  0.00  0.00    -0.392 OA
ATOM     33  H   LIG A   1      -5.509   5.960 125.565  0.00  0.00    +0.209 HD
ENDBRANCH  31  32
ENDBRANCH  21  31
ENDBRANCH  18  19
ENDBRANCH   4  18
TORSDOF 11
ENDMDL
MODEL 7
REMARK VINA RESULT:      -6.8      6.472     10.208
REMARK  Name = NuBBE_117
REMARK  11 active torsions:
REMARK  status: ('A' for Active; 'I' for Inactive)
REMARK    1  A    between atoms: C_2  and  C_3
REMARK    2  A    between atoms: C_2  and  O_35
REMARK    3  A    between atoms: C_6  and  O_18
REMARK    4  A    between atoms: C_12  and  C_13
REMARK    5  A    between atoms: C_13  and  O_14
REMARK    6  A    between atoms: O_18  and  C_19
REMARK    7  A    between atoms: C_22  and  C_33
REMARK    8  A    between atoms: C_24  and  O_32
REMARK    9  A    between atoms: C_26  and  O_31
REMARK   10  A    between atoms: C_28  and  O_30
REMARK   11  A    between atoms: C_33  and  O_34
REMARK                            x       y       z     vdW  Elec       q    Type
REMARK                         _______ _______ _______ _____ _____    ______ ____
ROOT
ATOM      1  C   LIG A   1      -3.202   6.098 130.803  0.00  0.00    +0.075 C 
ATOM      2  C   LIG A   1      -3.916   5.163 131.448  0.00  0.00    +0.201 C 
ATOM      3  O   LIG A   1      -4.934   4.424 130.913  0.00  0.00    -0.470 OA
ATOM      4  C   LIG A   1      -5.550   5.003 129.757  0.00  0.00    +0.317 C 
ATOM      5  C   LIG A   1      -4.526   5.480 128.715  0.00  0.00    +0.102 C 
ATOM      6  C   LIG A   1      -3.476   6.436 129.346  0.00  0.00    +0.046 C 
ATOM      7  C   LIG A   1      -2.233   6.271 128.442  0.00  0.00    +0.037 C 
ATOM      8  C   LIG A   1      -2.399   4.896 127.881  0.00  0.00    -0.015 C 
ATOM      9  C   LIG A   1      -3.654   4.450 128.040  0.00  0.00    +0.042 C 
ENDROOT
BRANCH   1  11
ATOM     10  O   LIG A   1      -2.355   8.014 131.926  0.00  0.00    -0.245 OA
ATOM     11  C   LIG A   1      -2.162   6.882 131.512  0.00  0.00    +0.336 C 
BRANCH  11  12
ATOM     12  O   LIG A   1      -0.962   6.273 131.624  0.00  0.00    -0.477 OA
ATOM     13  H   LIG A   1      -0.400   6.577 132.357  0.00  0.00    +0.295 HD
ENDBRANCH  11  12
ENDBRANCH   1  11
BRANCH   9  14
ATOM     14  C   LIG A   1      -4.151   3.154 127.563  0.00  0.00    +0.333 C 
ATOM     15  O   LIG A   1      -5.088   2.980 126.816  0.00  0.00    -0.245 OA
BRANCH  14  16
ATOM     16  O   LIG A   1      -3.404   2.127 128.006  0.00  0.00    -0.477 OA
ATOM     17  H   LIG A   1      -3.968   1.693 128.678  0.00  0.00    +0.295 HD
ENDBRANCH  14  16
ENDBRANCH   9  14
BRANCH   4  18
ATOM     18  O   LIG A   1      -6.388   6.121 130.109  0.00  0.00    -0.309 OA
BRANCH  18  19
ATOM     19  C   LIG A   1      -7.678   5.703 130.572  0.00  0.00    +0.286 C 
ATOM     20  O   LIG A   1      -8.682   6.339 129.781  0.00  0.00    -0.340 OA
ATOM     21  C   LIG A   1     -10.005   5.959 130.150  0.00  0.00    +0.178 C 
ATOM     22  C   LIG A   1     -10.306   6.441 131.577  0.00  0.00    +0.177 C 
ATOM     23  C   LIG A   1      -9.275   5.837 132.531  0.00  0.00    +0.179 C 
ATOM     24  C   LIG A   1      -7.837   6.086 132.063  0.00  0.00    +0.201 C 
BRANCH  24  25
ATOM     25  O   LIG A   1      -6.959   5.314 132.901  0.00  0.00    -0.384 OA
ATOM     26  H   LIG A   1      -6.951   5.782 133.761  0.00  0.00    +0.210 HD
ENDBRANCH  24  25
BRANCH  23  27
ATOM     27  O   LIG A   1      -9.448   6.383 133.850  0.00  0.00    -0.386 OA
ATOM     28  H   LIG A   1     -10.060   5.766 134.301  0.00  0.00    +0.210 HD
ENDBRANCH  23  27
BRANCH  22  29
ATOM     29  O   LIG A   1     -11.605   6.043 132.029  0.00  0.00    -0.387 OA
ATOM     30  H   LIG A   1     -11.742   6.477 132.901  0.00  0.00    +0.210 HD
ENDBRANCH  22  29
BRANCH  21  31
ATOM     31  C   LIG A   1     -10.968   6.570 129.127  0.00  0.00    +0.190 C 
BRANCH  31  32
ATOM     32  O   LIG A   1     -11.515   7.794 129.608  0.00  0.00    -0.392 OA
ATOM     33  H   LIG A   1     -11.866   8.273 128.834  0.00  0.00    +0.209 HD
ENDBRANCH  31  32
ENDBRANCH  21  31
ENDBRANCH  18  19
ENDBRANCH   4  18
TORSDOF 11
ENDMDL
MODEL 8
REMARK VINA RESULT:      -6.8      5.030      8.088
REMARK  Name = NuBBE_117
REMARK  11 active torsions:
REMARK  status: ('A' for Active; 'I' for Inactive)
REMARK    1  A    between atoms: C_2  and  C_3
REMARK    2  A    between atoms: C_2  and  O_35
REMARK    3  A    between atoms: C_6  and  O_18
REMARK    4  A    between atoms: C_12  and  C_13
REMARK    5  A    between atoms: C_13  and  O_14
REMARK    6  A    between atoms: O_18  and  C_19
REMARK    7  A    between atoms: C_22  and  C_33
REMARK    8  A    between atoms: C_24  and  O_32
REMARK    9  A    between atoms: C_26  and  O_31
REMARK   10  A    between atoms: C_28  and  O_30
REMARK   11  A    between atoms: C_33  and  O_34
REMARK                            x       y       z     vdW  Elec       q    Type
REMARK                         _______ _______ _______ _____ _____    ______ ____
ROOT
ATOM      1  C   LIG A   1     -10.463   5.051 130.414  0.00  0.00    +0.075 C 
ATOM      2  C   LIG A   1     -10.376   3.741 130.691  0.00  0.00    +0.201 C 
ATOM      3  O   LIG A   1      -9.275   2.954 130.498  0.00  0.00    -0.470 OA
ATOM      4  C   LIG A   1      -8.339   3.460 129.539  0.00  0.00    +0.317 C 
ATOM      5  C   LIG A   1      -8.001   4.942 129.765  0.00  0.00    +0.102 C 
ATOM      6  C   LIG A   1      -9.285   5.815 129.830  0.00  0.00    +0.046 C 
ATOM      7  C   LIG A   1      -8.865   7.029 130.689  0.00  0.00    +0.037 C 
ATOM      8  C   LIG A   1      -7.757   6.485 131.531  0.00  0.00    -0.015 C 
ATOM      9  C   LIG A   1      -7.287   5.331 131.036  0.00  0.00    +0.042 C 
ENDROOT
BRANCH   1  11
ATOM     10  O   LIG A   1     -12.413   6.191 129.676  0.00  0.00    -0.245 OA
ATOM     11  C   LIG A   1     -11.737   5.785 130.608  0.00  0.00    +0.336 C 
BRANCH  11  12
ATOM     12  O   LIG A   1     -12.073   6.021 131.893  0.00  0.00    -0.477 OA
ATOM     13  H   LIG A   1     -12.106   5.239 132.472  0.00  0.00    +0.295 HD
ENDBRANCH  11  12
ENDBRANCH   1  11
BRANCH   9  14
ATOM     14  C   LIG A   1      -6.173   4.564 131.607  0.00  0.00    +0.333 C 
ATOM     15  O   LIG A   1      -6.214   3.877 132.603  0.00  0.00    -0.245 OA
BRANCH  14  16
ATOM     16  O   LIG A   1      -5.059   4.650 130.858  0.00  0.00    -0.477 OA
ATOM     17  H   LIG A   1      -4.339   4.385 131.467  0.00  0.00    +0.295 HD
ENDBRANCH  14  16
ENDBRANCH   9  14
BRANCH   4  18
ATOM     18  O   LIG A   1      -8.829   3.311 128.193  0.00  0.00    -0.309 OA
BRANCH  18  19
ATOM     19  C   LIG A   1      -7.764   3.168 127.245  0.00  0.00    +0.286 C 
ATOM     20  O   LIG A   1      -6.528   3.059 127.952  0.00  0.00    -0.340 OA
ATOM     21  C   LIG A   1      -5.407   2.883 127.089  0.00  0.00    +0.178 C 
ATOM     22  C   LIG A   1      -5.220   4.133 126.217  0.00  0.00    +0.177 C 
ATOM     23  C   LIG A   1      -6.498   4.373 125.414  0.00  0.00    +0.179 C 
ATOM     24  C   LIG A   1      -7.745   4.396 126.305  0.00  0.00    +0.201 C 
BRANCH  24  25
ATOM     25  O   LIG A   1      -8.900   4.421 125.447  0.00  0.00    -0.384 OA
ATOM     26  H   LIG A   1      -9.560   4.964 125.924  0.00  0.00    +0.210 HD
ENDBRANCH  24  25
BRANCH  23  27
ATOM     27  O   LIG A   1      -6.401   5.616 124.697  0.00  0.00    -0.386 OA
ATOM     28  H   LIG A   1      -6.785   5.430 123.816  0.00  0.00    +0.210 HD
ENDBRANCH  23  27
BRANCH  22  29
ATOM     29  O   LIG A   1      -4.138   3.999 125.288  0.00  0.00    -0.387 OA
ATOM     30  H   LIG A   1      -3.360   3.698 125.808  0.00  0.00    +0.210 HD
ENDBRANCH  22  29
BRANCH  21  31
ATOM     31  C   LIG A   1      -4.181   2.610 127.967  0.00  0.00    +0.190 C 
BRANCH  31  32
ATOM     32  O   LIG A   1      -3.039   2.310 127.169  0.00  0.00    -0.392 OA
ATOM     33  H   LIG A   1      -3.365   2.086 126.278  0.00  0.00    +0.209 HD
ENDBRANCH  31  32
ENDBRANCH  21  31
ENDBRANCH  18  19
ENDBRANCH   4  18
TORSDOF 11
ENDMDL
MODEL 9
REMARK VINA RESULT:      -6.8      5.146      8.863
REMARK  Name = NuBBE_117
REMARK  11 active torsions:
REMARK  status: ('A' for Active; 'I' for Inactive)
REMARK    1  A    between atoms: C_2  and  C_3
REMARK    2  A    between atoms: C_2  and  O_35
REMARK    3  A    between atoms: C_6  and  O_18
REMARK    4  A    between atoms: C_12  and  C_13
REMARK    5  A    between atoms: C_13  and  O_14
REMARK    6  A    between atoms: O_18  and  C_19
REMARK    7  A    between atoms: C_22  and  C_33
REMARK    8  A    between atoms: C_24  and  O_32
REMARK    9  A    between atoms: C_26  and  O_31
REMARK   10  A    between atoms: C_28  and  O_30
REMARK   11  A    between atoms: C_33  and  O_34
REMARK                            x       y       z     vdW  Elec       q    Type
REMARK                         _______ _______ _______ _____ _____    ______ ____
ROOT
ATOM      1  C   LIG A   1     -10.970   5.640 130.831  0.00  0.00    +0.075 C 
ATOM      2  C   LIG A   1     -11.418   4.564 130.167  0.00  0.00    +0.201 C 
ATOM      3  O   LIG A   1     -10.696   3.437 129.891  0.00  0.00    -0.470 OA
ATOM      4  C   LIG A   1      -9.274   3.615 129.919  0.00  0.00    +0.317 C 
ATOM      5  C   LIG A   1      -8.795   4.359 131.177  0.00  0.00    +0.102 C 
ATOM      6  C   LIG A   1      -9.548   5.705 131.363  0.00  0.00    +0.046 C 
ATOM      7  C   LIG A   1      -9.480   5.960 132.886  0.00  0.00    +0.037 C 
ATOM      8  C   LIG A   1      -9.351   4.585 133.457  0.00  0.00    -0.015 C 
ATOM      9  C   LIG A   1      -8.988   3.697 132.520  0.00  0.00    +0.042 C 
ENDROOT
BRANCH   1  11
ATOM     10  O   LIG A   1     -12.738   6.875 131.832  0.00  0.00    -0.245 OA
ATOM     11  C   LIG A   1     -11.833   6.833 131.013  0.00  0.00    +0.336 C 
BRANCH  11  12
ATOM     12  O   LIG A   1     -11.581   7.856 130.170  0.00  0.00    -0.477 OA
ATOM     13  H   LIG A   1     -10.973   8.538 130.503  0.00  0.00    +0.295 HD
ENDBRANCH  11  12
ENDBRANCH   1  11
BRANCH   9  14
ATOM     14  C   LIG A   1      -8.737   2.272 132.765  0.00  0.00    +0.333 C 
ATOM     15  O   LIG A   1      -7.803   1.806 133.377  0.00  0.00    -0.245 OA
BRANCH  14  16
ATOM     16  O   LIG A   1      -9.716   1.491 132.272  0.00  0.00    -0.477 OA
ATOM     17  H   LIG A   1      -9.912   0.866 133.000  0.00  0.00    +0.295 HD
ENDBRANCH  14  16
ENDBRANCH   9  14
BRANCH   4  18
ATOM     18  O   LIG A   1      -8.810   4.341 128.764  0.00  0.00    -0.309 OA
BRANCH  18  19
ATOM     19  C   LIG A   1      -7.550   3.849 128.291  0.00  0.00    +0.286 C 
ATOM     20  O   LIG A   1      -6.548   4.839 128.528  0.00  0.00    -0.340 OA
ATOM     21  C   LIG A   1      -5.248   4.426 128.116  0.00  0.00    +0.178 C 
ATOM     22  C   LIG A   1      -5.221   4.238 126.592  0.00  0.00    +0.177 C 
ATOM     23  C   LIG A   1      -6.276   3.202 126.203  0.00  0.00    +0.179 C 
ATOM     24  C   LIG A   1      -7.656   3.534 126.780  0.00  0.00    +0.201 C 
BRANCH  24  25
ATOM     25  O   LIG A   1      -8.520   2.411 126.536  0.00  0.00    -0.384 OA
ATOM     26  H   LIG A   1      -9.170   2.425 127.267  0.00  0.00    +0.210 HD
ENDBRANCH  24  25
BRANCH  23  27
ATOM     27  O   LIG A   1      -6.368   3.111 124.770  0.00  0.00    -0.386 OA
ATOM     28  H   LIG A   1      -6.215   2.165 124.566  0.00  0.00    +0.210 HD
ENDBRANCH  23  27
BRANCH  22  29
ATOM     29  O   LIG A   1      -3.953   3.771 126.118  0.00  0.00    -0.387 OA
ATOM     30  H   LIG A   1      -3.280   4.405 126.452  0.00  0.00    +0.210 HD
ENDBRANCH  22  29
BRANCH  21  31
ATOM     31  C   LIG A   1      -4.251   5.495 128.576  0.00  0.00    +0.190 C 
BRANCH  31  32
ATOM     32  O   LIG A   1      -4.131   6.533 127.607  0.00  0.00    -0.392 OA
ATOM     33  H   LIG A   1      -4.043   6.101 126.737  0.00  0.00    +0.209 HD
ENDBRANCH  31  32
ENDBRANCH  21  31
ENDBRANCH  18  19
ENDBRANCH   4  18
TORSDOF 11
ENDMDL
