MODEL 1
REMARK VINA RESULT:      -7.9      0.000      0.000
REMARK  Name = NuBBE_1364
REMARK  25 active torsions:
REMARK  status: ('A' for Active; 'I' for Inactive)
REMARK    1  A    between atoms: C_3  and  C_4
REMARK    2  A    between atoms: C_4  and  C_5
REMARK    3  A    between atoms: C_4  and  C_10
REMARK    4  A    between atoms: C_5  and  C_6
REMARK    5  A    between atoms: C_6  and  O_7
REMARK    6  A    between atoms: O_7  and  C_8
REMARK    7  A    between atoms: C_10  and  C_11
REMARK    8  A    between atoms: C_11  and  C_12
REMARK    9  A    between atoms: C_12  and  C_13
REMARK   10  A    between atoms: C_13  and  C_14
REMARK   11  A    between atoms: C_14  and  C_15
REMARK   12  A    between atoms: C_18  and  O_35
REMARK   13  A    between atoms: C_19  and  C_20
REMARK   14  A    between atoms: C_19  and  C_30
REMARK   15  A    between atoms: C_20  and  C_21
REMARK   16  A    between atoms: C_22  and  C_23
REMARK   17  A    between atoms: C_22  and  C_24
REMARK   18  A    between atoms: C_26  and  C_27
REMARK   19  A    between atoms: C_27  and  C_28
REMARK   20  A    between atoms: C_30  and  C_31
REMARK   21  A    between atoms: C_32  and  C_33
REMARK   22  A    between atoms: C_32  and  C_34
REMARK   23  A    between atoms: O_35  and  C_36
REMARK   24  A    between atoms: C_38  and  C_45
REMARK   25  A    between atoms: C_40  and  C_44
REMARK                            x       y       z     vdW  Elec       q    Type
REMARK                         _______ _______ _______ _____ _____    ______ ____
ROOT
ATOM      1  O   LIG A   1      -6.433   6.872 130.464  0.00  0.00    -0.291 OA
ATOM      2  C   LIG A   1      -6.148   5.697 130.232  0.00  0.00    +0.177 C 
ATOM      3  C   LIG A   1      -7.344   4.816 129.860  0.00  0.00    +0.042 C 
ATOM      4  C   LIG A   1      -6.993   4.177 128.703  0.00  0.00    +0.141 C 
ATOM      5  C   LIG A   1      -5.724   4.479 128.005  0.00  0.00    +0.098 C 
ATOM      6  C   LIG A   1      -4.585   4.967 128.585  0.00  0.00    +0.125 C 
ATOM      7  C   LIG A   1      -4.556   5.169 130.108  0.00  0.00    +0.095 C 
ATOM      8  O   LIG A   1      -7.711   3.050 128.256  0.00  0.00    -0.487 OA
ATOM      9  C   LIG A   1      -7.703   2.720 126.853  0.00  0.00    +0.181 C 
ATOM     10  C   LIG A   1      -6.309   2.853 126.238  0.00  0.00    +0.098 C 
ATOM     11  C   LIG A   1      -5.977   4.271 126.574  0.00  0.00    +0.176 C 
ATOM     12  O   LIG A   1      -6.234   5.231 125.855  0.00  0.00    -0.291 OA
ATOM     13  C   LIG A   1      -6.328   2.635 124.741  0.00  0.00    +0.020 C 
ATOM     14  C   LIG A   1      -8.269   1.313 126.610  0.00  0.00    +0.052 C 
ENDROOT
BRANCH   6  15
ATOM     15  O   LIG A   1      -3.427   5.412 127.973  0.00  0.00    -0.497 OA
ATOM     16  C   LIG A   1      -2.531   4.410 127.510  0.00  0.00    +0.276 C 
ENDBRANCH   6  15
BRANCH   3  17
ATOM     17  C   LIG A   1      -8.546   4.322 131.071  0.00  0.00    +0.037 C 
BRANCH  17  18
ATOM     18  C   LIG A   1     -10.356   4.037 130.876  0.00  0.00    +0.129 C 
BRANCH  18  19
ATOM     19  C   LIG A   1     -11.435   5.555 130.685  0.00  0.00    +0.307 C 
ATOM     20  O   LIG A   1     -12.039   6.075 131.479  0.00  0.00    -0.251 OA
BRANCH  19  21
ATOM     21  O   LIG A   1     -11.460   5.978 129.361  0.00  0.00    -0.468 OA
ATOM     22  C   LIG A   1     -11.562   7.025 128.367  0.00  0.00    +0.280 C 
ENDBRANCH  19  21
ENDBRANCH  18  19
ENDBRANCH  17  18
BRANCH  17  23
ATOM     23  C   LIG A   1      -8.198   3.026 131.816  0.00  0.00    +0.009 C 
BRANCH  23  24
ATOM     24  C   LIG A   1      -7.848   2.903 133.308  0.00  0.00    +0.001 C 
BRANCH  24  25
ATOM     25  C   LIG A   1      -8.267   3.989 134.238  0.00  0.00    +0.000 C 
BRANCH  25  26
ATOM     26  C   LIG A   1      -7.124   4.727 134.910  0.00  0.00    -0.000 C 
BRANCH  26  27
ATOM     27  C   LIG A   1      -6.405   5.487 133.861  0.00  0.00    -0.003 C 
ATOM     28  C   LIG A   1      -4.986   5.906 134.116  0.00  0.00    +0.004 C 
ENDBRANCH  26  27
ENDBRANCH  25  26
ENDBRANCH  24  25
ENDBRANCH  23  24
ENDBRANCH  17  23
ENDBRANCH   3  17
BRANCH   7  29
ATOM     29  C   LIG A   1      -3.753   3.861 130.766  0.00  0.00    +0.027 C 
BRANCH  29  30
ATOM     30  C   LIG A   1      -4.391   2.882 131.929  0.00  0.00    -0.003 C 
ATOM     31  C   LIG A   1      -3.688   2.204 133.131  0.00  0.00    -0.025 C 
ATOM     32  C   LIG A   1      -2.627   3.145 133.183  0.00  0.00    +0.012 C 
ATOM     33  C   LIG A   1      -4.361   2.195 134.506  0.00  0.00    +0.012 C 
ATOM     34  C   LIG A   1      -4.894   1.367 131.710  0.00  0.00    +0.012 C 
ATOM     35  C   LIG A   1      -3.671   0.800 132.461  0.00  0.00    +0.020 C 
BRANCH  35  36
ATOM     36  C   LIG A   1      -3.499  -0.391 133.386  0.00  0.00    -0.076 C 
ATOM     37  C   LIG A   1      -4.672  -1.262 133.562  0.00  0.00    +0.038 C 
ATOM     38  C   LIG A   1      -2.334  -0.839 133.904  0.00  0.00    +0.007 C 
ENDBRANCH  35  36
ENDBRANCH  29  30
ENDBRANCH   7  29
BRANCH   7  39
ATOM     39  C   LIG A   1      -3.705   6.496 130.613  0.00  0.00    +0.049 C 
BRANCH  39  40
ATOM     40  C   LIG A   1      -2.404   6.367 131.422  0.00  0.00    -0.027 C 
ATOM     41  C   LIG A   1      -1.712   7.237 132.201  0.00  0.00    -0.080 C 
ATOM     42  C   LIG A   1      -2.504   8.363 132.749  0.00  0.00    +0.038 C 
ATOM     43  C   LIG A   1      -0.274   7.206 132.801  0.00  0.00    +0.038 C 
ENDBRANCH  39  40
ENDBRANCH   7  39
TORSDOF 15
ENDMDL
MODEL 2
REMARK VINA RESULT:      -7.9      3.446      7.402
REMARK  Name = NuBBE_1364
REMARK  25 active torsions:
REMARK  status: ('A' for Active; 'I' for Inactive)
REMARK    1  A    between atoms: C_3  and  C_4
REMARK    2  A    between atoms: C_4  and  C_5
REMARK    3  A    between atoms: C_4  and  C_10
REMARK    4  A    between atoms: C_5  and  C_6
REMARK    5  A    between atoms: C_6  and  O_7
REMARK    6  A    between atoms: O_7  and  C_8
REMARK    7  A    between atoms: C_10  and  C_11
REMARK    8  A    between atoms: C_11  and  C_12
REMARK    9  A    between atoms: C_12  and  C_13
REMARK   10  A    between atoms: C_13  and  C_14
REMARK   11  A    between atoms: C_14  and  C_15
REMARK   12  A    between atoms: C_18  and  O_35
REMARK   13  A    between atoms: C_19  and  C_20
REMARK   14  A    between atoms: C_19  and  C_30
REMARK   15  A    between atoms: C_20  and  C_21
REMARK   16  A    between atoms: C_22  and  C_23
REMARK   17  A    between atoms: C_22  and  C_24
REMARK   18  A    between atoms: C_26  and  C_27
REMARK   19  A    between atoms: C_27  and  C_28
REMARK   20  A    between atoms: C_30  and  C_31
REMARK   21  A    between atoms: C_32  and  C_33
REMARK   22  A    between atoms: C_32  and  C_34
REMARK   23  A    between atoms: O_35  and  C_36
REMARK   24  A    between atoms: C_38  and  C_45
REMARK   25  A    between atoms: C_40  and  C_44
REMARK                            x       y       z     vdW  Elec       q    Type
REMARK                         _______ _______ _______ _____ _____    ______ ____
ROOT
ATOM      1  O   LIG A   1      -4.263   1.563 126.296  0.00  0.00    -0.291 OA
ATOM      2  C   LIG A   1      -5.198   1.281 127.046  0.00  0.00    +0.177 C 
ATOM      3  C   LIG A   1      -6.203   0.285 126.458  0.00  0.00    +0.042 C 
ATOM      4  C   LIG A   1      -6.351  -0.697 127.398  0.00  0.00    +0.141 C 
ATOM      5  C   LIG A   1      -5.535  -0.717 128.633  0.00  0.00    +0.098 C 
ATOM      6  C   LIG A   1      -4.969   0.371 129.238  0.00  0.00    +0.125 C 
ATOM      7  C   LIG A   1      -5.235   1.768 128.655  0.00  0.00    +0.095 C 
ATOM      8  O   LIG A   1      -7.435  -1.594 127.339  0.00  0.00    -0.487 OA
ATOM      9  C   LIG A   1      -7.313  -2.890 127.958  0.00  0.00    +0.181 C 
ATOM     10  C   LIG A   1      -6.646  -2.811 129.332  0.00  0.00    +0.098 C 
ATOM     11  C   LIG A   1      -5.360  -2.130 128.993  0.00  0.00    +0.176 C 
ATOM     12  O   LIG A   1      -4.329  -2.715 128.679  0.00  0.00    -0.291 OA
ATOM     13  C   LIG A   1      -6.400  -4.183 129.921  0.00  0.00    +0.020 C 
ATOM     14  C   LIG A   1      -8.677  -3.589 128.058  0.00  0.00    +0.052 C 
ENDROOT
BRANCH   6  15
ATOM     15  O   LIG A   1      -4.077   0.404 130.295  0.00  0.00    -0.497 OA
ATOM     16  C   LIG A   1      -4.617   0.152 131.586  0.00  0.00    +0.276 C 
ENDBRANCH   6  15
BRANCH   3  17
ATOM     17  C   LIG A   1      -7.331   0.756 125.170  0.00  0.00    +0.037 C 
BRANCH  17  18
ATOM     18  C   LIG A   1      -7.467   2.348 124.254  0.00  0.00    +0.129 C 
BRANCH  18  19
ATOM     19  C   LIG A   1      -7.962   3.855 125.248  0.00  0.00    +0.307 C 
ATOM     20  O   LIG A   1      -9.001   4.238 125.445  0.00  0.00    -0.251 OA
BRANCH  19  21
ATOM     21  O   LIG A   1      -6.840   4.533 125.709  0.00  0.00    -0.468 OA
ATOM     22  C   LIG A   1      -5.406   4.718 125.767  0.00  0.00    +0.280 C 
ENDBRANCH  19  21
ENDBRANCH  18  19
ENDBRANCH  17  18
BRANCH  17  23
ATOM     23  C   LIG A   1      -7.347  -0.194 123.964  0.00  0.00    +0.009 C 
BRANCH  23  24
ATOM     24  C   LIG A   1      -7.997  -1.586 123.913  0.00  0.00    +0.001 C 
BRANCH  24  25
ATOM     25  C   LIG A   1      -7.120  -2.791 123.899  0.00  0.00    +0.000 C 
BRANCH  25  26
ATOM     26  C   LIG A   1      -5.648  -2.503 123.664  0.00  0.00    -0.000 C 
BRANCH  26  27
ATOM     27  C   LIG A   1      -4.872  -3.576 124.329  0.00  0.00    -0.003 C 
ATOM     28  C   LIG A   1      -4.403  -4.743 123.509  0.00  0.00    +0.004 C 
ENDBRANCH  26  27
ENDBRANCH  25  26
ENDBRANCH  24  25
ENDBRANCH  23  24
ENDBRANCH  17  23
ENDBRANCH   3  17
BRANCH   7  29
ATOM     29  C   LIG A   1      -6.427   2.475 129.586  0.00  0.00    +0.027 C 
BRANCH  29  30
ATOM     30  C   LIG A   1      -6.755   4.090 129.587  0.00  0.00    -0.003 C 
ATOM     31  C   LIG A   1      -7.177   5.004 130.764  0.00  0.00    -0.025 C 
ATOM     32  C   LIG A   1      -6.608   4.167 131.760  0.00  0.00    +0.012 C 
ATOM     33  C   LIG A   1      -6.551   6.391 130.918  0.00  0.00    +0.012 C 
ATOM     34  C   LIG A   1      -8.053   4.785 128.932  0.00  0.00    +0.012 C 
ATOM     35  C   LIG A   1      -8.667   5.062 130.320  0.00  0.00    +0.020 C 
BRANCH  35  36
ATOM     36  C   LIG A   1      -9.490   6.214 130.865  0.00  0.00    -0.076 C 
ATOM     37  C   LIG A   1      -9.826   7.288 129.916  0.00  0.00    +0.038 C 
ATOM     38  C   LIG A   1     -10.109   6.257 132.066  0.00  0.00    +0.007 C 
ENDBRANCH  35  36
ENDBRANCH  29  30
ENDBRANCH   7  29
BRANCH   7  39
ATOM     39  C   LIG A   1      -3.950   2.807 128.737  0.00  0.00    +0.049 C 
BRANCH  39  40
ATOM     40  C   LIG A   1      -3.563   3.520 130.044  0.00  0.00    -0.027 C 
ATOM     41  C   LIG A   1      -3.034   4.742 130.307  0.00  0.00    -0.080 C 
ATOM     42  C   LIG A   1      -3.242   5.761 129.251  0.00  0.00    +0.038 C 
ATOM     43  C   LIG A   1      -2.396   5.365 131.584  0.00  0.00    +0.038 C 
ENDBRANCH  39  40
ENDBRANCH   7  39
TORSDOF 15
ENDMDL
MODEL 3
REMARK VINA RESULT:      -7.9      0.823      1.031
REMARK  Name = NuBBE_1364
REMARK  25 active torsions:
REMARK  status: ('A' for Active; 'I' for Inactive)
REMARK    1  A    between atoms: C_3  and  C_4
REMARK    2  A    between atoms: C_4  and  C_5
REMARK    3  A    between atoms: C_4  and  C_10
REMARK    4  A    between atoms: C_5  and  C_6
REMARK    5  A    between atoms: C_6  and  O_7
REMARK    6  A    between atoms: O_7  and  C_8
REMARK    7  A    between atoms: C_10  and  C_11
REMARK    8  A    between atoms: C_11  and  C_12
REMARK    9  A    between atoms: C_12  and  C_13
REMARK   10  A    between atoms: C_13  and  C_14
REMARK   11  A    between atoms: C_14  and  C_15
REMARK   12  A    between atoms: C_18  and  O_35
REMARK   13  A    between atoms: C_19  and  C_20
REMARK   14  A    between atoms: C_19  and  C_30
REMARK   15  A    between atoms: C_20  and  C_21
REMARK   16  A    between atoms: C_22  and  C_23
REMARK   17  A    between atoms: C_22  and  C_24
REMARK   18  A    between atoms: C_26  and  C_27
REMARK   19  A    between atoms: C_27  and  C_28
REMARK   20  A    between atoms: C_30  and  C_31
REMARK   21  A    between atoms: C_32  and  C_33
REMARK   22  A    between atoms: C_32  and  C_34
REMARK   23  A    between atoms: O_35  and  C_36
REMARK   24  A    between atoms: C_38  and  C_45
REMARK   25  A    between atoms: C_40  and  C_44
REMARK                            x       y       z     vdW  Elec       q    Type
REMARK                         _______ _______ _______ _____ _____    ______ ____
ROOT
ATOM      1  O   LIG A   1      -6.676   6.895 130.643  0.00  0.00    -0.291 OA
ATOM      2  C   LIG A   1      -6.360   5.721 130.450  0.00  0.00    +0.177 C 
ATOM      3  C   LIG A   1      -7.515   4.821 129.999  0.00  0.00    +0.042 C 
ATOM      4  C   LIG A   1      -7.067   4.171 128.882  0.00  0.00    +0.141 C 
ATOM      5  C   LIG A   1      -5.751   4.479 128.280  0.00  0.00    +0.098 C 
ATOM      6  C   LIG A   1      -4.666   4.988 128.941  0.00  0.00    +0.125 C 
ATOM      7  C   LIG A   1      -4.758   5.210 130.458  0.00  0.00    +0.095 C 
ATOM      8  O   LIG A   1      -7.735   3.030 128.395  0.00  0.00    -0.487 OA
ATOM      9  C   LIG A   1      -7.614   2.682 127.002  0.00  0.00    +0.181 C 
ATOM     10  C   LIG A   1      -6.178   2.823 126.496  0.00  0.00    +0.098 C 
ATOM     11  C   LIG A   1      -5.889   4.249 126.837  0.00  0.00    +0.176 C 
ATOM     12  O   LIG A   1      -6.100   5.197 126.086  0.00  0.00    -0.291 OA
ATOM     13  C   LIG A   1      -6.077   2.586 125.005  0.00  0.00    +0.020 C 
ATOM     14  C   LIG A   1      -8.144   1.265 126.735  0.00  0.00    +0.052 C 
ENDROOT
BRANCH   6  15
ATOM     15  O   LIG A   1      -3.469   5.440 128.415  0.00  0.00    -0.497 OA
ATOM     16  C   LIG A   1      -2.574   4.444 127.934  0.00  0.00    +0.276 C 
ENDBRANCH   6  15
BRANCH   3  17
ATOM     17  C   LIG A   1      -8.802   4.328 131.118  0.00  0.00    +0.037 C 
BRANCH  17  18
ATOM     18  C   LIG A   1     -10.611   4.146 130.818  0.00  0.00    +0.129 C 
BRANCH  18  19
ATOM     19  C   LIG A   1     -11.490   5.608 130.048  0.00  0.00    +0.307 C 
ATOM     20  O   LIG A   1     -11.596   5.851 128.955  0.00  0.00    -0.251 OA
BRANCH  19  21
ATOM     21  O   LIG A   1     -11.993   6.454 131.030  0.00  0.00    -0.468 OA
ATOM     22  C   LIG A   1     -12.895   7.500 131.461  0.00  0.00    +0.280 C 
ENDBRANCH  19  21
ENDBRANCH  18  19
ENDBRANCH  17  18
BRANCH  17  23
ATOM     23  C   LIG A   1      -8.557   2.980 131.811  0.00  0.00    +0.009 C 
BRANCH  23  24
ATOM     24  C   LIG A   1      -8.245   2.769 133.301  0.00  0.00    +0.001 C 
BRANCH  24  25
ATOM     25  C   LIG A   1      -8.087   3.961 134.180  0.00  0.00    +0.000 C 
BRANCH  25  26
ATOM     26  C   LIG A   1      -6.693   4.150 134.751  0.00  0.00    -0.000 C 
BRANCH  26  27
ATOM     27  C   LIG A   1      -6.086   5.318 134.069  0.00  0.00    -0.003 C 
ATOM     28  C   LIG A   1      -4.750   5.815 134.539  0.00  0.00    +0.004 C 
ENDBRANCH  26  27
ENDBRANCH  25  26
ENDBRANCH  24  25
ENDBRANCH  23  24
ENDBRANCH  17  23
ENDBRANCH   3  17
BRANCH   7  29
ATOM     29  C   LIG A   1      -3.995   3.921 131.195  0.00  0.00    +0.027 C 
BRANCH  29  30
ATOM     30  C   LIG A   1      -4.785   2.598 131.780  0.00  0.00    -0.003 C 
ATOM     31  C   LIG A   1      -4.240   1.435 132.645  0.00  0.00    -0.025 C 
ATOM     32  C   LIG A   1      -3.165   2.192 133.181  0.00  0.00    +0.012 C 
ATOM     33  C   LIG A   1      -5.062   0.907 133.823  0.00  0.00    +0.012 C 
ATOM     34  C   LIG A   1      -5.303   1.349 130.903  0.00  0.00    +0.012 C 
ATOM     35  C   LIG A   1      -4.188   0.436 131.454  0.00  0.00    +0.020 C 
BRANCH  35  36
ATOM     36  C   LIG A   1      -4.154  -1.039 131.808  0.00  0.00    -0.076 C 
ATOM     37  C   LIG A   1      -5.340  -1.831 131.443  0.00  0.00    +0.038 C 
ATOM     38  C   LIG A   1      -3.077  -1.733 132.240  0.00  0.00    +0.007 C 
ENDBRANCH  35  36
ENDBRANCH  29  30
ENDBRANCH   7  29
BRANCH   7  39
ATOM     39  C   LIG A   1      -3.964   6.554 131.010  0.00  0.00    +0.049 C 
BRANCH  39  40
ATOM     40  C   LIG A   1      -2.585   6.463 131.684  0.00  0.00    -0.027 C 
ATOM     41  C   LIG A   1      -1.808   7.375 132.322  0.00  0.00    -0.080 C 
ATOM     42  C   LIG A   1      -2.530   8.548 132.869  0.00  0.00    +0.038 C 
ATOM     43  C   LIG A   1      -0.315   7.365 132.767  0.00  0.00    +0.038 C 
ENDBRANCH  39  40
ENDBRANCH   7  39
TORSDOF 15
ENDMDL
MODEL 4
REMARK VINA RESULT:      -7.9      1.947      3.133
REMARK  Name = NuBBE_1364
REMARK  25 active torsions:
REMARK  status: ('A' for Active; 'I' for Inactive)
REMARK    1  A    between atoms: C_3  and  C_4
REMARK    2  A    between atoms: C_4  and  C_5
REMARK    3  A    between atoms: C_4  and  C_10
REMARK    4  A    between atoms: C_5  and  C_6
REMARK    5  A    between atoms: C_6  and  O_7
REMARK    6  A    between atoms: O_7  and  C_8
REMARK    7  A    between atoms: C_10  and  C_11
REMARK    8  A    between atoms: C_11  and  C_12
REMARK    9  A    between atoms: C_12  and  C_13
REMARK   10  A    between atoms: C_13  and  C_14
REMARK   11  A    between atoms: C_14  and  C_15
REMARK   12  A    between atoms: C_18  and  O_35
REMARK   13  A    between atoms: C_19  and  C_20
REMARK   14  A    between atoms: C_19  and  C_30
REMARK   15  A    between atoms: C_20  and  C_21
REMARK   16  A    between atoms: C_22  and  C_23
REMARK   17  A    between atoms: C_22  and  C_24
REMARK   18  A    between atoms: C_26  and  C_27
REMARK   19  A    between atoms: C_27  and  C_28
REMARK   20  A    between atoms: C_30  and  C_31
REMARK   21  A    between atoms: C_32  and  C_33
REMARK   22  A    between atoms: C_32  and  C_34
REMARK   23  A    between atoms: O_35  and  C_36
REMARK   24  A    between atoms: C_38  and  C_45
REMARK   25  A    between atoms: C_40  and  C_44
REMARK                            x       y       z     vdW  Elec       q    Type
REMARK                         _______ _______ _______ _____ _____    ______ ____
ROOT
ATOM      1  O   LIG A   1      -6.342   5.742 131.164  0.00  0.00    -0.291 OA
ATOM      2  C   LIG A   1      -6.442   4.667 130.573  0.00  0.00    +0.177 C 
ATOM      3  C   LIG A   1      -7.698   4.535 129.707  0.00  0.00    +0.042 C 
ATOM      4  C   LIG A   1      -7.263   4.129 128.476  0.00  0.00    +0.141 C 
ATOM      5  C   LIG A   1      -5.822   4.009 128.164  0.00  0.00    +0.098 C 
ATOM      6  C   LIG A   1      -4.821   3.776 129.068  0.00  0.00    +0.125 C 
ATOM      7  C   LIG A   1      -5.192   3.542 130.541  0.00  0.00    +0.095 C 
ATOM      8  O   LIG A   1      -8.163   3.594 127.534  0.00  0.00    -0.487 OA
ATOM      9  C   LIG A   1      -7.843   3.670 126.130  0.00  0.00    +0.181 C 
ATOM     10  C   LIG A   1      -6.378   3.327 125.854  0.00  0.00    +0.098 C 
ATOM     11  C   LIG A   1      -5.679   4.312 126.734  0.00  0.00    +0.176 C 
ATOM     12  O   LIG A   1      -5.339   5.436 126.381  0.00  0.00    -0.291 OA
ATOM     13  C   LIG A   1      -6.012   3.535 124.401  0.00  0.00    +0.020 C 
ATOM     14  C   LIG A   1      -8.773   2.774 125.299  0.00  0.00    +0.052 C 
ENDROOT
BRANCH   6  15
ATOM     15  O   LIG A   1      -3.453   3.806 128.868  0.00  0.00    -0.497 OA
ATOM     16  C   LIG A   1      -2.868   5.090 128.693  0.00  0.00    +0.276 C 
ENDBRANCH   6  15
BRANCH   3  17
ATOM     17  C   LIG A   1      -9.307   4.327 130.430  0.00  0.00    +0.037 C 
BRANCH  17  18
ATOM     18  C   LIG A   1     -10.939   4.965 129.859  0.00  0.00    +0.129 C 
BRANCH  18  19
ATOM     19  C   LIG A   1     -11.659   6.411 130.805  0.00  0.00    +0.307 C 
ATOM     20  O   LIG A   1     -12.196   6.389 131.794  0.00  0.00    -0.251 OA
BRANCH  19  21
ATOM     21  O   LIG A   1     -11.500   7.595 130.094  0.00  0.00    -0.468 OA
ATOM     22  C   LIG A   1     -11.935   8.533 129.082  0.00  0.00    +0.280 C 
ENDBRANCH  19  21
ENDBRANCH  18  19
ENDBRANCH  17  18
BRANCH  17  23
ATOM     23  C   LIG A   1      -9.712   2.866 130.665  0.00  0.00    +0.009 C 
BRANCH  23  24
ATOM     24  C   LIG A   1      -9.730   2.135 132.017  0.00  0.00    +0.001 C 
BRANCH  24  25
ATOM     25  C   LIG A   1      -9.305   2.873 133.241  0.00  0.00    +0.000 C 
BRANCH  25  26
ATOM     26  C   LIG A   1      -7.824   2.778 133.558  0.00  0.00    -0.000 C 
BRANCH  26  27
ATOM     27  C   LIG A   1      -7.467   3.958 134.381  0.00  0.00    -0.003 C 
ATOM     28  C   LIG A   1      -8.160   5.262 134.112  0.00  0.00    +0.004 C 
ENDBRANCH  26  27
ENDBRANCH  25  26
ENDBRANCH  24  25
ENDBRANCH  23  24
ENDBRANCH  17  23
ENDBRANCH   3  17
BRANCH   7  29
ATOM     29  C   LIG A   1      -5.158   1.894 130.805  0.00  0.00    +0.027 C 
BRANCH  29  30
ATOM     30  C   LIG A   1      -6.486   0.922 130.716  0.00  0.00    -0.003 C 
ATOM     31  C   LIG A   1      -6.702  -0.497 131.298  0.00  0.00    -0.025 C 
ATOM     32  C   LIG A   1      -5.721  -0.349 132.313  0.00  0.00    +0.012 C 
ATOM     33  C   LIG A   1      -8.023  -0.849 131.985  0.00  0.00    +0.012 C 
ATOM     34  C   LIG A   1      -7.012   0.169 129.392  0.00  0.00    +0.012 C 
ATOM     35  C   LIG A   1      -6.535  -1.199 129.920  0.00  0.00    +0.020 C 
BRANCH  35  36
ATOM     36  C   LIG A   1      -7.107  -2.600 129.800  0.00  0.00    -0.076 C 
ATOM     37  C   LIG A   1      -8.239  -2.770 128.876  0.00  0.00    +0.038 C 
ATOM     38  C   LIG A   1      -6.561  -3.731 130.300  0.00  0.00    +0.007 C 
ENDBRANCH  35  36
ENDBRANCH  29  30
ENDBRANCH   7  29
BRANCH   7  39
ATOM     39  C   LIG A   1      -4.120   4.176 131.632  0.00  0.00    +0.049 C 
BRANCH  39  40
ATOM     40  C   LIG A   1      -4.216   3.871 133.136  0.00  0.00    -0.027 C 
ATOM     41  C   LIG A   1      -3.825   2.811 133.888  0.00  0.00    -0.080 C 
ATOM     42  C   LIG A   1      -2.746   1.983 133.302  0.00  0.00    +0.038 C 
ATOM     43  C   LIG A   1      -4.151   2.374 135.348  0.00  0.00    +0.038 C 
ENDBRANCH  39  40
ENDBRANCH   7  39
TORSDOF 15
ENDMDL
MODEL 5
REMARK VINA RESULT:      -7.8      3.514      7.496
REMARK  Name = NuBBE_1364
REMARK  25 active torsions:
REMARK  status: ('A' for Active; 'I' for Inactive)
REMARK    1  A    between atoms: C_3  and  C_4
REMARK    2  A    between atoms: C_4  and  C_5
REMARK    3  A    between atoms: C_4  and  C_10
REMARK    4  A    between atoms: C_5  and  C_6
REMARK    5  A    between atoms: C_6  and  O_7
REMARK    6  A    between atoms: O_7  and  C_8
REMARK    7  A    between atoms: C_10  and  C_11
REMARK    8  A    between atoms: C_11  and  C_12
REMARK    9  A    between atoms: C_12  and  C_13
REMARK   10  A    between atoms: C_13  and  C_14
REMARK   11  A    between atoms: C_14  and  C_15
REMARK   12  A    between atoms: C_18  and  O_35
REMARK   13  A    between atoms: C_19  and  C_20
REMARK   14  A    between atoms: C_19  and  C_30
REMARK   15  A    between atoms: C_20  and  C_21
REMARK   16  A    between atoms: C_22  and  C_23
REMARK   17  A    between atoms: C_22  and  C_24
REMARK   18  A    between atoms: C_26  and  C_27
REMARK   19  A    between atoms: C_27  and  C_28
REMARK   20  A    between atoms: C_30  and  C_31
REMARK   21  A    between atoms: C_32  and  C_33
REMARK   22  A    between atoms: C_32  and  C_34
REMARK   23  A    between atoms: O_35  and  C_36
REMARK   24  A    between atoms: C_38  and  C_45
REMARK   25  A    between atoms: C_40  and  C_44
REMARK                            x       y       z     vdW  Elec       q    Type
REMARK                         _______ _______ _______ _____ _____    ______ ____
ROOT
ATOM      1  O   LIG A   1      -5.844   1.313 125.191  0.00  0.00    -0.291 OA
ATOM      2  C   LIG A   1      -6.630   1.040 126.098  0.00  0.00    +0.177 C 
ATOM      3  C   LIG A   1      -7.522  -0.174 125.818  0.00  0.00    +0.042 C 
ATOM      4  C   LIG A   1      -7.402  -0.986 126.912  0.00  0.00    +0.141 C 
ATOM      5  C   LIG A   1      -6.459  -0.675 128.009  0.00  0.00    +0.098 C 
ATOM      6  C   LIG A   1      -6.010   0.571 128.352  0.00  0.00    +0.125 C 
ATOM      7  C   LIG A   1      -6.562   1.792 127.601  0.00  0.00    +0.095 C 
ATOM      8  O   LIG A   1      -8.328  -2.022 127.145  0.00  0.00    -0.487 OA
ATOM      9  C   LIG A   1      -7.929  -3.160 127.936  0.00  0.00    +0.181 C 
ATOM     10  C   LIG A   1      -7.132  -2.748 129.175  0.00  0.00    +0.098 C 
ATOM     11  C   LIG A   1      -6.020  -1.964 128.558  0.00  0.00    +0.176 C 
ATOM     12  O   LIG A   1      -4.950  -2.446 128.199  0.00  0.00    -0.291 OA
ATOM     13  C   LIG A   1      -6.603  -3.947 129.931  0.00  0.00    +0.020 C 
ATOM     14  C   LIG A   1      -9.143  -4.013 128.333  0.00  0.00    +0.052 C 
ENDROOT
BRANCH   6  15
ATOM     15  O   LIG A   1      -5.020   0.913 129.257  0.00  0.00    -0.497 OA
ATOM     16  C   LIG A   1      -4.940   0.121 130.435  0.00  0.00    +0.276 C 
ENDBRANCH   6  15
BRANCH   3  17
ATOM     17  C   LIG A   1      -8.851  -0.099 124.642  0.00  0.00    +0.037 C 
BRANCH  17  18
ATOM     18  C   LIG A   1      -9.821   1.355 124.060  0.00  0.00    +0.129 C 
BRANCH  18  19
ATOM     19  C   LIG A   1      -8.873   2.944 123.776  0.00  0.00    +0.307 C 
ATOM     20  O   LIG A   1      -8.400   3.302 122.820  0.00  0.00    -0.251 OA
BRANCH  19  21
ATOM     21  O   LIG A   1      -8.756   3.668 124.958  0.00  0.00    -0.468 OA
ATOM     22  C   LIG A   1      -8.275   4.812 125.700  0.00  0.00    +0.280 C 
ENDBRANCH  19  21
ENDBRANCH  18  19
ENDBRANCH  17  18
BRANCH  17  23
ATOM     23  C   LIG A   1      -8.517  -0.704 123.271  0.00  0.00    +0.009 C 
BRANCH  23  24
ATOM     24  C   LIG A   1      -7.731  -2.000 123.019  0.00  0.00    +0.001 C 
BRANCH  24  25
ATOM     25  C   LIG A   1      -6.249  -1.929 122.879  0.00  0.00    +0.000 C 
BRANCH  25  26
ATOM     26  C   LIG A   1      -5.472  -2.597 123.999  0.00  0.00    -0.000 C 
BRANCH  26  27
ATOM     27  C   LIG A   1      -4.412  -3.424 123.375  0.00  0.00    -0.003 C 
ATOM     28  C   LIG A   1      -4.460  -4.914 123.554  0.00  0.00    +0.004 C 
ENDBRANCH  26  27
ENDBRANCH  25  26
ENDBRANCH  24  25
ENDBRANCH  23  24
ENDBRANCH  17  23
ENDBRANCH   3  17
BRANCH   7  29
ATOM     29  C   LIG A   1      -7.738   2.479 128.566  0.00  0.00    +0.027 C 
BRANCH  29  30
ATOM     30  C   LIG A   1      -7.823   2.270 130.199  0.00  0.00    -0.003 C 
ATOM     31  C   LIG A   1      -8.841   2.854 131.210  0.00  0.00    -0.025 C 
ATOM     32  C   LIG A   1      -9.859   3.046 130.240  0.00  0.00    +0.012 C 
ATOM     33  C   LIG A   1      -9.420   1.966 132.313  0.00  0.00    +0.012 C 
ATOM     34  C   LIG A   1      -6.800   2.887 131.280  0.00  0.00    +0.012 C 
ATOM     35  C   LIG A   1      -7.845   3.918 131.755  0.00  0.00    +0.020 C 
BRANCH  35  36
ATOM     36  C   LIG A   1      -8.160   4.504 133.119  0.00  0.00    -0.076 C 
ATOM     37  C   LIG A   1      -7.362   4.003 134.249  0.00  0.00    +0.038 C 
ATOM     38  C   LIG A   1      -8.952   5.570 133.367  0.00  0.00    +0.007 C 
ENDBRANCH  35  36
ENDBRANCH  29  30
ENDBRANCH   7  29
BRANCH   7  39
ATOM     39  C   LIG A   1      -5.460   2.999 127.340  0.00  0.00    +0.049 C 
BRANCH  39  40
ATOM     40  C   LIG A   1      -5.482   4.308 128.147  0.00  0.00    -0.027 C 
ATOM     41  C   LIG A   1      -4.644   4.831 129.078  0.00  0.00    -0.080 C 
ATOM     42  C   LIG A   1      -3.254   4.320 129.036  0.00  0.00    +0.038 C 
ATOM     43  C   LIG A   1      -4.789   6.010 130.085  0.00  0.00    +0.038 C 
ENDBRANCH  39  40
ENDBRANCH   7  39
TORSDOF 15
ENDMDL
MODEL 6
REMARK VINA RESULT:      -7.8      3.136      7.498
REMARK  Name = NuBBE_1364
REMARK  25 active torsions:
REMARK  status: ('A' for Active; 'I' for Inactive)
REMARK    1  A    between atoms: C_3  and  C_4
REMARK    2  A    between atoms: C_4  and  C_5
REMARK    3  A    between atoms: C_4  and  C_10
REMARK    4  A    between atoms: C_5  and  C_6
REMARK    5  A    between atoms: C_6  and  O_7
REMARK    6  A    between atoms: O_7  and  C_8
REMARK    7  A    between atoms: C_10  and  C_11
REMARK    8  A    between atoms: C_11  and  C_12
REMARK    9  A    between atoms: C_12  and  C_13
REMARK   10  A    between atoms: C_13  and  C_14
REMARK   11  A    between atoms: C_14  and  C_15
REMARK   12  A    between atoms: C_18  and  O_35
REMARK   13  A    between atoms: C_19  and  C_20
REMARK   14  A    between atoms: C_19  and  C_30
REMARK   15  A    between atoms: C_20  and  C_21
REMARK   16  A    between atoms: C_22  and  C_23
REMARK   17  A    between atoms: C_22  and  C_24
REMARK   18  A    between atoms: C_26  and  C_27
REMARK   19  A    between atoms: C_27  and  C_28
REMARK   20  A    between atoms: C_30  and  C_31
REMARK   21  A    between atoms: C_32  and  C_33
REMARK   22  A    between atoms: C_32  and  C_34
REMARK   23  A    between atoms: O_35  and  C_36
REMARK   24  A    between atoms: C_38  and  C_45
REMARK   25  A    between atoms: C_40  and  C_44
REMARK                            x       y       z     vdW  Elec       q    Type
REMARK                         _______ _______ _______ _____ _____    ______ ____
ROOT
ATOM      1  O   LIG A   1      -8.617   3.135 126.616  0.00  0.00    -0.291 OA
ATOM      2  C   LIG A   1      -7.601   2.628 127.092  0.00  0.00    +0.177 C 
ATOM      3  C   LIG A   1      -6.427   2.525 126.114  0.00  0.00    +0.042 C 
ATOM      4  C   LIG A   1      -5.353   3.074 126.758  0.00  0.00    +0.141 C 
ATOM      5  C   LIG A   1      -5.490   3.714 128.086  0.00  0.00    +0.098 C 
ATOM      6  C   LIG A   1      -6.448   3.428 129.020  0.00  0.00    +0.125 C 
ATOM      7  C   LIG A   1      -7.450   2.299 128.735  0.00  0.00    +0.095 C 
ATOM      8  O   LIG A   1      -4.043   2.852 126.293  0.00  0.00    -0.487 OA
ATOM      9  C   LIG A   1      -3.010   3.808 126.609  0.00  0.00    +0.181 C 
ATOM     10  C   LIG A   1      -3.082   4.273 128.064  0.00  0.00    +0.098 C 
ATOM     11  C   LIG A   1      -4.485   4.783 128.137  0.00  0.00    +0.176 C 
ATOM     12  O   LIG A   1      -4.814   5.940 127.896  0.00  0.00    -0.291 OA
ATOM     13  C   LIG A   1      -2.084   5.371 128.358  0.00  0.00    +0.020 C 
ATOM     14  C   LIG A   1      -1.617   3.247 126.289  0.00  0.00    +0.052 C 
ENDROOT
BRANCH   6  15
ATOM     15  O   LIG A   1      -6.724   4.089 130.204  0.00  0.00    -0.497 OA
ATOM     16  C   LIG A   1      -5.831   3.849 131.284  0.00  0.00    +0.276 C 
ENDBRANCH   6  15
BRANCH   3  17
ATOM     17  C   LIG A   1      -6.429   1.351 124.781  0.00  0.00    +0.037 C 
BRANCH  17  18
ATOM     18  C   LIG A   1      -6.789  -0.455 124.811  0.00  0.00    +0.129 C 
BRANCH  18  19
ATOM     19  C   LIG A   1      -8.504  -0.967 125.359  0.00  0.00    +0.307 C 
ATOM     20  O   LIG A   1      -9.015  -0.727 126.332  0.00  0.00    -0.251 OA
BRANCH  19  21
ATOM     21  O   LIG A   1      -9.108  -1.773 124.401  0.00  0.00    -0.468 OA
ATOM     22  C   LIG A   1      -9.337  -3.066 123.795  0.00  0.00    +0.280 C 
ENDBRANCH  19  21
ENDBRANCH  18  19
ENDBRANCH  17  18
BRANCH  17  23
ATOM     23  C   LIG A   1      -7.332   1.736 123.600  0.00  0.00    +0.009 C 
BRANCH  23  24
ATOM     24  C   LIG A   1      -7.056   2.844 122.571  0.00  0.00    +0.001 C 
BRANCH  24  25
ATOM     25  C   LIG A   1      -5.870   3.726 122.761  0.00  0.00    +0.000 C 
BRANCH  25  26
ATOM     26  C   LIG A   1      -5.251   4.244 121.476  0.00  0.00    -0.000 C 
BRANCH  26  27
ATOM     27  C   LIG A   1      -6.100   3.780 120.353  0.00  0.00    -0.003 C 
ATOM     28  C   LIG A   1      -6.476   4.760 119.279  0.00  0.00    +0.004 C 
ENDBRANCH  26  27
ENDBRANCH  25  26
ENDBRANCH  24  25
ENDBRANCH  23  24
ENDBRANCH  17  23
ENDBRANCH   3  17
BRANCH   7  29
ATOM     29  C   LIG A   1      -6.924   0.948 129.564  0.00  0.00    +0.027 C 
BRANCH  29  30
ATOM     30  C   LIG A   1      -6.589  -0.498 128.846  0.00  0.00    -0.003 C 
ATOM     31  C   LIG A   1      -6.771  -1.932 129.401  0.00  0.00    -0.025 C 
ATOM     32  C   LIG A   1      -7.780  -1.562 130.329  0.00  0.00    +0.012 C 
ATOM     33  C   LIG A   1      -7.350  -3.031 128.507  0.00  0.00    +0.012 C 
ATOM     34  C   LIG A   1      -5.116  -1.084 128.556  0.00  0.00    +0.012 C 
ATOM     35  C   LIG A   1      -5.254  -2.125 129.686  0.00  0.00    +0.020 C 
BRANCH  35  36
ATOM     36  C   LIG A   1      -4.768  -3.556 129.825  0.00  0.00    -0.076 C 
ATOM     37  C   LIG A   1      -3.562  -3.918 129.064  0.00  0.00    +0.038 C 
ATOM     38  C   LIG A   1      -5.210  -4.467 130.721  0.00  0.00    +0.007 C 
ENDBRANCH  35  36
ENDBRANCH  29  30
ENDBRANCH   7  29
BRANCH   7  39
ATOM     39  C   LIG A   1      -8.983   2.577 129.292  0.00  0.00    +0.049 C 
BRANCH  39  40
ATOM     40  C   LIG A   1      -9.355   2.391 130.773  0.00  0.00    -0.027 C 
ATOM     41  C   LIG A   1      -9.497   3.262 131.804  0.00  0.00    -0.080 C 
ATOM     42  C   LIG A   1      -9.778   4.664 131.414  0.00  0.00    +0.038 C 
ATOM     43  C   LIG A   1      -9.608   3.066 133.345  0.00  0.00    +0.038 C 
ENDBRANCH  39  40
ENDBRANCH   7  39
TORSDOF 15
ENDMDL
MODEL 7
REMARK VINA RESULT:      -7.8      3.379      7.419
REMARK  Name = NuBBE_1364
REMARK  25 active torsions:
REMARK  status: ('A' for Active; 'I' for Inactive)
REMARK    1  A    between atoms: C_3  and  C_4
REMARK    2  A    between atoms: C_4  and  C_5
REMARK    3  A    between atoms: C_4  and  C_10
REMARK    4  A    between atoms: C_5  and  C_6
REMARK    5  A    between atoms: C_6  and  O_7
REMARK    6  A    between atoms: O_7  and  C_8
REMARK    7  A    between atoms: C_10  and  C_11
REMARK    8  A    between atoms: C_11  and  C_12
REMARK    9  A    between atoms: C_12  and  C_13
REMARK   10  A    between atoms: C_13  and  C_14
REMARK   11  A    between atoms: C_14  and  C_15
REMARK   12  A    between atoms: C_18  and  O_35
REMARK   13  A    between atoms: C_19  and  C_20
REMARK   14  A    between atoms: C_19  and  C_30
REMARK   15  A    between atoms: C_20  and  C_21
REMARK   16  A    between atoms: C_22  and  C_23
REMARK   17  A    between atoms: C_22  and  C_24
REMARK   18  A    between atoms: C_26  and  C_27
REMARK   19  A    between atoms: C_27  and  C_28
REMARK   20  A    between atoms: C_30  and  C_31
REMARK   21  A    between atoms: C_32  and  C_33
REMARK   22  A    between atoms: C_32  and  C_34
REMARK   23  A    between atoms: O_35  and  C_36
REMARK   24  A    between atoms: C_38  and  C_45
REMARK   25  A    between atoms: C_40  and  C_44
REMARK                            x       y       z     vdW  Elec       q    Type
REMARK                         _______ _______ _______ _____ _____    ______ ____
ROOT
ATOM      1  O   LIG A   1      -8.820   2.851 128.479  0.00  0.00    -0.291 OA
ATOM      2  C   LIG A   1      -7.680   2.450 128.716  0.00  0.00    +0.177 C 
ATOM      3  C   LIG A   1      -6.750   2.432 127.500  0.00  0.00    +0.042 C 
ATOM      4  C   LIG A   1      -5.615   3.090 127.886  0.00  0.00    +0.141 C 
ATOM      5  C   LIG A   1      -5.511   3.744 129.210  0.00  0.00    +0.098 C 
ATOM      6  C   LIG A   1      -6.205   3.392 130.336  0.00  0.00    +0.125 C 
ATOM      7  C   LIG A   1      -7.136   2.170 130.283  0.00  0.00    +0.095 C 
ATOM      8  O   LIG A   1      -4.426   2.978 127.140  0.00  0.00    -0.487 OA
ATOM      9  C   LIG A   1      -3.443   4.030 127.216  0.00  0.00    +0.181 C 
ATOM     10  C   LIG A   1      -3.232   4.517 128.650  0.00  0.00    +0.098 C 
ATOM     11  C   LIG A   1      -4.624   4.900 129.035  0.00  0.00    +0.176 C 
ATOM     12  O   LIG A   1      -5.105   6.017 128.873  0.00  0.00    -0.291 OA
ATOM     13  C   LIG A   1      -2.300   5.708 128.711  0.00  0.00    +0.020 C 
ATOM     14  C   LIG A   1      -2.111   3.591 126.592  0.00  0.00    +0.052 C 
ENDROOT
BRANCH   6  15
ATOM     15  O   LIG A   1      -6.271   4.050 131.551  0.00  0.00    -0.497 OA
ATOM     16  C   LIG A   1      -5.127   3.944 132.389  0.00  0.00    +0.276 C 
ENDBRANCH   6  15
BRANCH   3  17
ATOM     17  C   LIG A   1      -6.940   1.235 126.201  0.00  0.00    +0.037 C 
BRANCH  17  18
ATOM     18  C   LIG A   1      -7.772   1.402 124.566  0.00  0.00    +0.129 C 
BRANCH  18  19
ATOM     19  C   LIG A   1      -9.327   0.392 124.303  0.00  0.00    +0.307 C 
ATOM     20  O   LIG A   1     -10.311   0.492 124.838  0.00  0.00    -0.251 OA
BRANCH  19  21
ATOM     21  O   LIG A   1      -9.116  -0.598 123.350  0.00  0.00    -0.468 OA
ATOM     22  C   LIG A   1      -8.962  -1.988 122.981  0.00  0.00    +0.280 C 
ENDBRANCH  19  21
ENDBRANCH  18  19
ENDBRANCH  17  18
BRANCH  17  23
ATOM     23  C   LIG A   1      -5.623   0.614 125.716  0.00  0.00    +0.009 C 
BRANCH  23  24
ATOM     24  C   LIG A   1      -5.288  -0.886 125.674  0.00  0.00    +0.001 C 
BRANCH  24  25
ATOM     25  C   LIG A   1      -5.558  -1.651 124.424  0.00  0.00    +0.000 C 
BRANCH  25  26
ATOM     26  C   LIG A   1      -5.432  -3.157 124.560  0.00  0.00    -0.000 C 
BRANCH  26  27
ATOM     27  C   LIG A   1      -4.481  -3.621 123.522  0.00  0.00    -0.003 C 
ATOM     28  C   LIG A   1      -4.232  -5.095 123.378  0.00  0.00    +0.004 C 
ENDBRANCH  26  27
ENDBRANCH  25  26
ENDBRANCH  24  25
ENDBRANCH  23  24
ENDBRANCH  17  23
ENDBRANCH   3  17
BRANCH   7  29
ATOM     29  C   LIG A   1      -6.315   0.891 130.974  0.00  0.00    +0.027 C 
BRANCH  29  30
ATOM     30  C   LIG A   1      -6.655  -0.693 130.666  0.00  0.00    -0.003 C 
ATOM     31  C   LIG A   1      -6.352  -1.531 129.400  0.00  0.00    -0.025 C 
ATOM     32  C   LIG A   1      -5.272  -0.711 128.982  0.00  0.00    +0.012 C 
ATOM     33  C   LIG A   1      -5.818  -2.959 129.537  0.00  0.00    +0.012 C 
ATOM     34  C   LIG A   1      -8.121  -1.303 130.395  0.00  0.00    +0.012 C 
ATOM     35  C   LIG A   1      -7.822  -1.485 128.892  0.00  0.00    +0.020 C 
BRANCH  35  36
ATOM     36  C   LIG A   1      -8.226  -2.550 127.890  0.00  0.00    -0.076 C 
ATOM     37  C   LIG A   1      -8.743  -3.812 128.443  0.00  0.00    +0.038 C 
ATOM     38  C   LIG A   1      -8.344  -2.385 126.553  0.00  0.00    +0.007 C 
ENDBRANCH  35  36
ENDBRANCH  29  30
ENDBRANCH   7  29
BRANCH   7  39
ATOM     39  C   LIG A   1      -8.525   2.320 131.170  0.00  0.00    +0.049 C 
BRANCH  39  40
ATOM     40  C   LIG A   1      -8.921   3.646 131.840  0.00  0.00    -0.027 C 
ATOM     41  C   LIG A   1      -9.795   4.627 131.499  0.00  0.00    -0.080 C 
ATOM     42  C   LIG A   1     -10.882   4.215 130.579  0.00  0.00    +0.038 C 
ATOM     43  C   LIG A   1     -10.009   6.079 132.019  0.00  0.00    +0.038 C 
ENDBRANCH  39  40
ENDBRANCH   7  39
TORSDOF 15
ENDMDL
MODEL 8
REMARK VINA RESULT:      -7.8      2.131      5.594
REMARK  Name = NuBBE_1364
REMARK  25 active torsions:
REMARK  status: ('A' for Active; 'I' for Inactive)
REMARK    1  A    between atoms: C_3  and  C_4
REMARK    2  A    between atoms: C_4  and  C_5
REMARK    3  A    between atoms: C_4  and  C_10
REMARK    4  A    between atoms: C_5  and  C_6
REMARK    5  A    between atoms: C_6  and  O_7
REMARK    6  A    between atoms: O_7  and  C_8
REMARK    7  A    between atoms: C_10  and  C_11
REMARK    8  A    between atoms: C_11  and  C_12
REMARK    9  A    between atoms: C_12  and  C_13
REMARK   10  A    between atoms: C_13  and  C_14
REMARK   11  A    between atoms: C_14  and  C_15
REMARK   12  A    between atoms: C_18  and  O_35
REMARK   13  A    between atoms: C_19  and  C_20
REMARK   14  A    between atoms: C_19  and  C_30
REMARK   15  A    between atoms: C_20  and  C_21
REMARK   16  A    between atoms: C_22  and  C_23
REMARK   17  A    between atoms: C_22  and  C_24
REMARK   18  A    between atoms: C_26  and  C_27
REMARK   19  A    between atoms: C_27  and  C_28
REMARK   20  A    between atoms: C_30  and  C_31
REMARK   21  A    between atoms: C_32  and  C_33
REMARK   22  A    between atoms: C_32  and  C_34
REMARK   23  A    between atoms: O_35  and  C_36
REMARK   24  A    between atoms: C_38  and  C_45
REMARK   25  A    between atoms: C_40  and  C_44
REMARK                            x       y       z     vdW  Elec       q    Type
REMARK                         _______ _______ _______ _____ _____    ______ ____
ROOT
ATOM      1  O   LIG A   1      -9.144   3.816 128.864  0.00  0.00    -0.291 OA
ATOM      2  C   LIG A   1      -8.028   3.550 129.310  0.00  0.00    +0.177 C 
ATOM      3  C   LIG A   1      -7.933   3.580 130.838  0.00  0.00    +0.042 C 
ATOM      4  C   LIG A   1      -7.357   2.393 131.201  0.00  0.00    +0.141 C 
ATOM      5  C   LIG A   1      -7.060   1.340 130.205  0.00  0.00    +0.098 C 
ATOM      6  C   LIG A   1      -6.824   1.539 128.872  0.00  0.00    +0.125 C 
ATOM      7  C   LIG A   1      -6.786   2.977 128.331  0.00  0.00    +0.095 C 
ATOM      8  O   LIG A   1      -6.819   2.217 132.490  0.00  0.00    -0.487 OA
ATOM      9  C   LIG A   1      -6.713   0.887 133.035  0.00  0.00    +0.181 C 
ATOM     10  C   LIG A   1      -6.197  -0.118 132.005  0.00  0.00    +0.098 C 
ATOM     11  C   LIG A   1      -7.194   0.056 130.904  0.00  0.00    +0.176 C 
ATOM     12  O   LIG A   1      -8.234  -0.586 130.806  0.00  0.00    -0.291 OA
ATOM     13  C   LIG A   1      -6.212  -1.534 132.538  0.00  0.00    +0.020 C 
ATOM     14  C   LIG A   1      -5.833   0.870 134.294  0.00  0.00    +0.052 C 
ENDROOT
BRANCH   6  15
ATOM     15  O   LIG A   1      -6.694   0.596 127.868  0.00  0.00    -0.497 OA
ATOM     16  C   LIG A   1      -5.481  -0.147 127.851  0.00  0.00    +0.276 C 
ENDBRANCH   6  15
BRANCH   3  17
ATOM     17  C   LIG A   1      -7.967   5.108 131.742  0.00  0.00    +0.037 C 
BRANCH  17  18
ATOM     18  C   LIG A   1      -8.294   6.819 131.140  0.00  0.00    +0.129 C 
BRANCH  18  19
ATOM     19  C   LIG A   1      -9.729   7.039 129.959  0.00  0.00    +0.307 C 
ATOM     20  O   LIG A   1      -9.692   7.119 128.838  0.00  0.00    -0.251 OA
BRANCH  19  21
ATOM     21  O   LIG A   1     -10.927   7.154 130.655  0.00  0.00    -0.468 OA
ATOM     22  C   LIG A   1     -12.027   6.569 131.390  0.00  0.00    +0.280 C 
ENDBRANCH  19  21
ENDBRANCH  18  19
ENDBRANCH  17  18
BRANCH  17  23
ATOM     23  C   LIG A   1      -8.922   5.112 132.944  0.00  0.00    +0.009 C 
BRANCH  23  24
ATOM     24  C   LIG A   1      -8.645   4.494 134.324  0.00  0.00    +0.001 C 
BRANCH  24  25
ATOM     25  C   LIG A   1      -7.754   5.220 135.273  0.00  0.00    +0.000 C 
BRANCH  25  26
ATOM     26  C   LIG A   1      -6.423   4.542 135.541  0.00  0.00    -0.000 C 
BRANCH  26  27
ATOM     27  C   LIG A   1      -5.367   5.366 134.906  0.00  0.00    -0.003 C 
ATOM     28  C   LIG A   1      -4.830   4.946 133.569  0.00  0.00    +0.004 C 
ENDBRANCH  26  27
ENDBRANCH  25  26
ENDBRANCH  24  25
ENDBRANCH  23  24
ENDBRANCH  17  23
ENDBRANCH   3  17
BRANCH   7  29
ATOM     29  C   LIG A   1      -5.180   3.411 128.188  0.00  0.00    +0.027 C 
BRANCH  29  30
ATOM     30  C   LIG A   1      -4.607   4.926 128.491  0.00  0.00    -0.003 C 
ATOM     31  C   LIG A   1      -3.158   5.383 128.792  0.00  0.00    -0.025 C 
ATOM     32  C   LIG A   1      -2.557   4.270 128.149  0.00  0.00    +0.012 C 
ATOM     33  C   LIG A   1      -2.603   6.649 128.135  0.00  0.00    +0.012 C 
ATOM     34  C   LIG A   1      -4.871   5.779 129.833  0.00  0.00    +0.012 C 
ATOM     35  C   LIG A   1      -3.422   5.563 130.315  0.00  0.00    +0.020 C 
BRANCH  35  36
ATOM     36  C   LIG A   1      -2.450   6.451 131.071  0.00  0.00    -0.076 C 
ATOM     37  C   LIG A   1      -2.975   7.738 131.553  0.00  0.00    +0.038 C 
ATOM     38  C   LIG A   1      -1.223   6.097 131.512  0.00  0.00    +0.007 C 
ENDBRANCH  35  36
ENDBRANCH  29  30
ENDBRANCH   7  29
BRANCH   7  39
ATOM     39  C   LIG A   1      -7.420   3.162 126.814  0.00  0.00    +0.049 C 
BRANCH  39  40
ATOM     40  C   LIG A   1      -6.533   3.173 125.558  0.00  0.00    -0.027 C 
ATOM     41  C   LIG A   1      -6.179   4.152 124.688  0.00  0.00    -0.080 C 
ATOM     42  C   LIG A   1      -6.273   5.533 125.217  0.00  0.00    +0.038 C 
ATOM     43  C   LIG A   1      -5.510   4.125 123.281  0.00  0.00    +0.038 C 
ENDBRANCH  39  40
ENDBRANCH   7  39
TORSDOF 15
ENDMDL
MODEL 9
REMARK VINA RESULT:      -7.7      2.532      5.941
REMARK  Name = NuBBE_1364
REMARK  25 active torsions:
REMARK  status: ('A' for Active; 'I' for Inactive)
REMARK    1  A    between atoms: C_3  and  C_4
REMARK    2  A    between atoms: C_4  and  C_5
REMARK    3  A    between atoms: C_4  and  C_10
REMARK    4  A    between atoms: C_5  and  C_6
REMARK    5  A    between atoms: C_6  and  O_7
REMARK    6  A    between atoms: O_7  and  C_8
REMARK    7  A    between atoms: C_10  and  C_11
REMARK    8  A    between atoms: C_11  and  C_12
REMARK    9  A    between atoms: C_12  and  C_13
REMARK   10  A    between atoms: C_13  and  C_14
REMARK   11  A    between atoms: C_14  and  C_15
REMARK   12  A    between atoms: C_18  and  O_35
REMARK   13  A    between atoms: C_19  and  C_20
REMARK   14  A    between atoms: C_19  and  C_30
REMARK   15  A    between atoms: C_20  and  C_21
REMARK   16  A    between atoms: C_22  and  C_23
REMARK   17  A    between atoms: C_22  and  C_24
REMARK   18  A    between atoms: C_26  and  C_27
REMARK   19  A    between atoms: C_27  and  C_28
REMARK   20  A    between atoms: C_30  and  C_31
REMARK   21  A    between atoms: C_32  and  C_33
REMARK   22  A    between atoms: C_32  and  C_34
REMARK   23  A    between atoms: O_35  and  C_36
REMARK   24  A    between atoms: C_38  and  C_45
REMARK   25  A    between atoms: C_40  and  C_44
REMARK                            x       y       z     vdW  Elec       q    Type
REMARK                         _______ _______ _______ _____ _____    ______ ____
ROOT
ATOM      1  O   LIG A   1      -9.003   2.648 126.198  0.00  0.00    -0.291 OA
ATOM      2  C   LIG A   1      -8.031   2.275 126.855  0.00  0.00    +0.177 C 
ATOM      3  C   LIG A   1      -8.343   1.952 128.320  0.00  0.00    +0.042 C 
ATOM      4  C   LIG A   1      -7.823   0.708 128.548  0.00  0.00    +0.141 C 
ATOM      5  C   LIG A   1      -7.221  -0.093 127.459  0.00  0.00    +0.098 C 
ATOM      6  C   LIG A   1      -6.653   0.404 126.317  0.00  0.00    +0.125 C 
ATOM      7  C   LIG A   1      -6.547   1.927 126.143  0.00  0.00    +0.095 C 
ATOM      8  O   LIG A   1      -7.635   0.235 129.861  0.00  0.00    -0.487 OA
ATOM      9  C   LIG A   1      -7.609  -1.186 130.103  0.00  0.00    +0.181 C 
ATOM     10  C   LIG A   1      -6.790  -1.934 129.050  0.00  0.00    +0.098 C 
ATOM     11  C   LIG A   1      -7.469  -1.501 127.791  0.00  0.00    +0.176 C 
ATOM     12  O   LIG A   1      -8.413  -2.092 127.276  0.00  0.00    -0.291 OA
ATOM     13  C   LIG A   1      -6.872  -3.434 129.229  0.00  0.00    +0.020 C 
ATOM     14  C   LIG A   1      -7.091  -1.500 131.514  0.00  0.00    +0.052 C 
ENDROOT
BRANCH   6  15
ATOM     15  O   LIG A   1      -6.215  -0.285 125.200  0.00  0.00    -0.497 OA
ATOM     16  C   LIG A   1      -5.158  -1.213 125.404  0.00  0.00    +0.276 C 
ENDBRANCH   6  15
BRANCH   3  17
ATOM     17  C   LIG A   1      -8.691   3.233 129.500  0.00  0.00    +0.037 C 
BRANCH  17  18
ATOM     18  C   LIG A   1      -8.790   5.057 129.255  0.00  0.00    +0.129 C 
BRANCH  18  19
ATOM     19  C   LIG A   1      -8.464   6.129 130.754  0.00  0.00    +0.307 C 
ATOM     20  O   LIG A   1      -7.468   6.401 131.202  0.00  0.00    -0.251 OA
BRANCH  19  21
ATOM     21  O   LIG A   1      -9.657   6.545 131.332  0.00  0.00    -0.468 OA
ATOM     22  C   LIG A   1     -10.923   6.259 131.970  0.00  0.00    +0.280 C 
ENDBRANCH  19  21
ENDBRANCH  18  19
ENDBRANCH  17  18
BRANCH  17  23
ATOM     23  C   LIG A   1     -10.005   3.043 130.271  0.00  0.00    +0.009 C 
BRANCH  23  24
ATOM     24  C   LIG A   1     -10.142   2.564 131.725  0.00  0.00    +0.001 C 
BRANCH  24  25
ATOM     25  C   LIG A   1      -8.977   1.906 132.380  0.00  0.00    +0.000 C 
BRANCH  25  26
ATOM     26  C   LIG A   1      -7.998   2.859 133.043  0.00  0.00    -0.000 C 
BRANCH  26  27
ATOM     27  C   LIG A   1      -8.784   3.789 133.888  0.00  0.00    -0.003 C 
ATOM     28  C   LIG A   1      -8.052   4.727 134.804  0.00  0.00    +0.004 C 
ENDBRANCH  26  27
ENDBRANCH  25  26
ENDBRANCH  24  25
ENDBRANCH  23  24
ENDBRANCH  17  23
ENDBRANCH   3  17
BRANCH   7  29
ATOM     29  C   LIG A   1      -4.984   2.364 126.535  0.00  0.00    +0.027 C 
BRANCH  29  30
ATOM     30  C   LIG A   1      -4.585   3.783 127.274  0.00  0.00    -0.003 C 
ATOM     31  C   LIG A   1      -3.345   4.122 128.137  0.00  0.00    -0.025 C 
ATOM     32  C   LIG A   1      -2.534   3.108 127.565  0.00  0.00    +0.012 C 
ATOM     33  C   LIG A   1      -2.619   5.455 127.942  0.00  0.00    +0.012 C 
ATOM     34  C   LIG A   1      -5.322   4.411 128.562  0.00  0.00    +0.012 C 
ATOM     35  C   LIG A   1      -4.132   4.057 129.478  0.00  0.00    +0.020 C 
BRANCH  35  36
ATOM     36  C   LIG A   1      -3.507   4.765 130.665  0.00  0.00    -0.076 C 
ATOM     37  C   LIG A   1      -4.099   6.057 131.046  0.00  0.00    +0.038 C 
ATOM     38  C   LIG A   1      -2.601   4.242 131.521  0.00  0.00    +0.007 C 
ENDBRANCH  35  36
ENDBRANCH  29  30
ENDBRANCH   7  29
BRANCH   7  39
ATOM     39  C   LIG A   1      -6.768   2.462 124.592  0.00  0.00    +0.049 C 
BRANCH  39  40
ATOM     40  C   LIG A   1      -5.859   3.530 123.964  0.00  0.00    -0.027 C 
ATOM     41  C   LIG A   1      -5.630   3.908 122.680  0.00  0.00    -0.080 C 
ATOM     42  C   LIG A   1      -6.712   3.580 121.722  0.00  0.00    +0.038 C 
ATOM     43  C   LIG A   1      -4.530   4.790 122.018  0.00  0.00    +0.038 C 
ENDBRANCH  39  40
ENDBRANCH   7  39
TORSDOF 15
ENDMDL
