MODEL 1
REMARK VINA RESULT:      -8.8      0.000      0.000
REMARK  Name = NuBBE_1183
REMARK  7 active torsions:
REMARK  status: ('A' for Active; 'I' for Inactive)
REMARK    1  A    between atoms: C_1  and  C_2
REMARK    2  A    between atoms: C_7  and  C_9
REMARK    3  A    between atoms: C_11  and  O_15
REMARK    4  A    between atoms: C_20  and  C_33
REMARK    5  A    between atoms: C_22  and  C_23
REMARK    6  A    between atoms: C_22  and  C_28
REMARK    7  A    between atoms: C_29  and  O_30
REMARK                            x       y       z     vdW  Elec       q    Type
REMARK                         _______ _______ _______ _____ _____    ______ ____
ROOT
ATOM      1  C   LIG A   1      -8.481   2.205 127.994  0.00  0.00    +0.014 C 
ATOM      2  C   LIG A   1      -7.559   1.135 128.595  0.00  0.00    +0.007 C 
ATOM      3  C   LIG A   1      -6.297   1.767 129.160  0.00  0.00    +0.112 C 
ATOM      4  C   LIG A   1      -5.137   0.912 128.750  0.00  0.00    +0.153 C 
ATOM      5  C   LIG A   1      -5.625  -0.242 127.935  0.00  0.00    +0.043 C 
ATOM      6  C   LIG A   1      -7.011   0.212 127.411  0.00  0.00    +0.037 C 
ATOM      7  O   LIG A   1      -5.335   2.213 128.193  0.00  0.00    -0.363 OA
ATOM      8  C   LIG A   1      -6.262   2.445 130.506  0.00  0.00    +0.102 C 
ATOM      9  C   LIG A   1      -7.430   2.085 131.429  0.00  0.00    +0.016 C 
ATOM     10  C   LIG A   1      -8.603   3.146 131.666  0.00  0.00    +0.016 C 
ATOM     11  C   LIG A   1      -8.297   4.579 131.131  0.00  0.00    -0.002 C 
ATOM     12  C   LIG A   1      -9.498   5.602 131.128  0.00  0.00    +0.053 C 
ATOM     13  C   LIG A   1      -9.927   6.024 132.548  0.00  0.00    +0.024 C 
ATOM     14  C   LIG A   1     -10.704   4.923 130.442  0.00  0.00    +0.166 C 
ATOM     15  C   LIG A   1     -10.888   3.463 130.584  0.00  0.00    +0.044 C 
ATOM     16  C   LIG A   1      -9.958   2.687 131.154  0.00  0.00    -0.012 C 
ATOM     17  O   LIG A   1     -11.593   5.541 129.853  0.00  0.00    -0.292 OA
ATOM     18  C   LIG A   1      -9.270   6.925 130.348  0.00  0.00    +0.024 C 
ATOM     19  C   LIG A   1      -7.078   4.896 130.645  0.00  0.00    +0.161 C 
ATOM     20  C   LIG A   1      -5.977   3.914 130.471  0.00  0.00    +0.203 C 
ATOM     21  O   LIG A   1      -4.855   4.374 130.240  0.00  0.00    -0.288 OA
ATOM     22  C   LIG A   1      -8.768   3.181 133.218  0.00  0.00    +0.020 C 
ATOM     23  C   LIG A   1      -7.841   0.626 131.155  0.00  0.00    +0.006 C 
ATOM     24  C   LIG A   1      -8.263   0.315 129.711  0.00  0.00    +0.010 C 
ENDROOT
BRANCH   6  25
ATOM     25  C   LIG A   1      -7.860  -0.894 126.861  0.00  0.00    +0.042 C 
ATOM     26  C   LIG A   1      -7.958  -2.192 127.151  0.00  0.00    +0.057 C 
ATOM     27  C   LIG A   1      -8.958  -2.863 126.307  0.00  0.00    +0.334 C 
ATOM     28  O   LIG A   1      -9.466  -1.843 125.475  0.00  0.00    -0.428 OA
ATOM     29  C   LIG A   1      -8.861  -0.669 125.800  0.00  0.00    +0.338 C 
ATOM     30  O   LIG A   1      -9.121   0.404 125.291  0.00  0.00    -0.245 OA
BRANCH  27  31
ATOM     31  O   LIG A   1      -8.302  -3.849 125.545  0.00  0.00    -0.354 OA
ATOM     32  H   LIG A   1      -8.139  -3.435 124.680  0.00  0.00    +0.214 HD
ENDBRANCH  27  31
ENDBRANCH   6  25
BRANCH  19  33
ATOM     33  O   LIG A   1      -6.725   6.180 130.280  0.00  0.00    -0.503 OA
ATOM     34  H   LIG A   1      -6.590   6.666 131.125  0.00  0.00    +0.292 HD
ENDBRANCH  19  33
TORSDOF 3
ENDMDL
MODEL 2
REMARK VINA RESULT:      -8.7      3.164      7.890
REMARK  Name = NuBBE_1183
REMARK  7 active torsions:
REMARK  status: ('A' for Active; 'I' for Inactive)
REMARK    1  A    between atoms: C_1  and  C_2
REMARK    2  A    between atoms: C_7  and  C_9
REMARK    3  A    between atoms: C_11  and  O_15
REMARK    4  A    between atoms: C_20  and  C_33
REMARK    5  A    between atoms: C_22  and  C_23
REMARK    6  A    between atoms: C_22  and  C_28
REMARK    7  A    between atoms: C_29  and  O_30
REMARK                            x       y       z     vdW  Elec       q    Type
REMARK                         _______ _______ _______ _____ _____    ______ ____
ROOT
ATOM      1  C   LIG A   1      -5.761   1.616 125.596  0.00  0.00    +0.014 C 
ATOM      2  C   LIG A   1      -6.378   2.069 126.926  0.00  0.00    +0.007 C 
ATOM      3  C   LIG A   1      -7.895   2.110 126.829  0.00  0.00    +0.112 C 
ATOM      4  C   LIG A   1      -8.358   3.373 127.491  0.00  0.00    +0.153 C 
ATOM      5  C   LIG A   1      -7.178   4.138 128.000  0.00  0.00    +0.043 C 
ATOM      6  C   LIG A   1      -5.982   3.596 127.176  0.00  0.00    +0.037 C 
ATOM      7  O   LIG A   1      -8.442   3.202 126.074  0.00  0.00    -0.363 OA
ATOM      8  C   LIG A   1      -8.749   0.874 126.941  0.00  0.00    +0.102 C 
ATOM      9  C   LIG A   1      -8.046  -0.329 127.576  0.00  0.00    +0.016 C 
ATOM     10  C   LIG A   1      -7.575  -1.544 126.649  0.00  0.00    +0.016 C 
ATOM     11  C   LIG A   1      -8.134  -1.503 125.193  0.00  0.00    -0.002 C 
ATOM     12  C   LIG A   1      -7.523  -2.540 124.174  0.00  0.00    +0.053 C 
ATOM     13  C   LIG A   1      -7.932  -3.995 124.485  0.00  0.00    +0.024 C 
ATOM     14  C   LIG A   1      -5.984  -2.444 124.256  0.00  0.00    +0.166 C 
ATOM     15  C   LIG A   1      -5.348  -2.114 125.550  0.00  0.00    +0.044 C 
ATOM     16  C   LIG A   1      -6.068  -1.741 126.614  0.00  0.00    -0.012 C 
ATOM     17  O   LIG A   1      -5.230  -2.722 123.321  0.00  0.00    -0.292 OA
ATOM     18  C   LIG A   1      -7.871  -2.317 122.677  0.00  0.00    +0.024 C 
ATOM     19  C   LIG A   1      -9.049  -0.582 124.824  0.00  0.00    +0.161 C 
ATOM     20  C   LIG A   1      -9.517   0.518 125.706  0.00  0.00    +0.203 C 
ATOM     21  O   LIG A   1     -10.515   1.142 125.334  0.00  0.00    -0.288 OA
ATOM     22  C   LIG A   1      -8.114  -2.809 127.389  0.00  0.00    +0.020 C 
ATOM     23  C   LIG A   1      -7.046   0.186 128.629  0.00  0.00    +0.006 C 
ATOM     24  C   LIG A   1      -5.968   1.147 128.108  0.00  0.00    +0.010 C 
ENDROOT
BRANCH   6  25
ATOM     25  C   LIG A   1      -4.635   3.946 127.735  0.00  0.00    +0.042 C 
ATOM     26  C   LIG A   1      -4.199   4.174 128.974  0.00  0.00    +0.057 C 
ATOM     27  C   LIG A   1      -2.763   4.487 128.996  0.00  0.00    +0.334 C 
ATOM     28  O   LIG A   1      -2.362   4.422 127.644  0.00  0.00    -0.428 OA
ATOM     29  C   LIG A   1      -3.436   4.074 126.885  0.00  0.00    +0.338 C 
ATOM     30  O   LIG A   1      -3.400   3.890 125.683  0.00  0.00    -0.245 OA
BRANCH  27  31
ATOM     31  O   LIG A   1      -2.603   5.792 129.501  0.00  0.00    -0.354 OA
ATOM     32  H   LIG A   1      -3.391   5.952 130.047  0.00  0.00    +0.214 HD
ENDBRANCH  27  31
ENDBRANCH   6  25
BRANCH  19  33
ATOM     33  O   LIG A   1      -9.664  -0.586 123.587  0.00  0.00    -0.503 OA
ATOM     34  H   LIG A   1      -9.335   0.220 123.129  0.00  0.00    +0.292 HD
ENDBRANCH  19  33
TORSDOF 3
ENDMDL
MODEL 3
REMARK VINA RESULT:      -8.6      2.600      3.977
REMARK  Name = NuBBE_1183
REMARK  7 active torsions:
REMARK  status: ('A' for Active; 'I' for Inactive)
REMARK    1  A    between atoms: C_1  and  C_2
REMARK    2  A    between atoms: C_7  and  C_9
REMARK    3  A    between atoms: C_11  and  O_15
REMARK    4  A    between atoms: C_20  and  C_33
REMARK    5  A    between atoms: C_22  and  C_23
REMARK    6  A    between atoms: C_22  and  C_28
REMARK    7  A    between atoms: C_29  and  O_30
REMARK                            x       y       z     vdW  Elec       q    Type
REMARK                         _______ _______ _______ _____ _____    ______ ____
ROOT
ATOM      1  C   LIG A   1      -8.875   0.813 126.793  0.00  0.00    +0.014 C 
ATOM      2  C   LIG A   1      -7.782   1.457 125.929  0.00  0.00    +0.007 C 
ATOM      3  C   LIG A   1      -7.845   2.974 126.025  0.00  0.00    +0.112 C 
ATOM      4  C   LIG A   1      -7.672   3.525 124.642  0.00  0.00    +0.153 C 
ATOM      5  C   LIG A   1      -7.509   2.401 123.669  0.00  0.00    +0.043 C 
ATOM      6  C   LIG A   1      -8.114   1.171 124.392  0.00  0.00    +0.037 C 
ATOM      7  O   LIG A   1      -8.928   3.600 125.321  0.00  0.00    -0.363 OA
ATOM      8  C   LIG A   1      -7.269   3.737 127.189  0.00  0.00    +0.102 C 
ATOM      9  C   LIG A   1      -6.262   2.948 128.031  0.00  0.00    +0.016 C 
ATOM     10  C   LIG A   1      -6.699   2.394 129.466  0.00  0.00    +0.016 C 
ATOM     11  C   LIG A   1      -8.054   2.958 129.993  0.00  0.00    -0.002 C 
ATOM     12  C   LIG A   1      -8.646   2.277 131.287  0.00  0.00    +0.053 C 
ATOM     13  C   LIG A   1      -7.817   2.580 132.553  0.00  0.00    +0.024 C 
ATOM     14  C   LIG A   1      -8.648   0.749 131.066  0.00  0.00    +0.166 C 
ATOM     15  C   LIG A   1      -7.580   0.135 130.249  0.00  0.00    +0.044 C 
ATOM     16  C   LIG A   1      -6.703   0.877 129.563  0.00  0.00    -0.012 C 
ATOM     17  O   LIG A   1      -9.440  -0.020 131.615  0.00  0.00    -0.292 OA
ATOM     18  C   LIG A   1     -10.111   2.645 131.647  0.00  0.00    +0.024 C 
ATOM     19  C   LIG A   1      -8.705   3.938 129.331  0.00  0.00    +0.161 C 
ATOM     20  C   LIG A   1      -8.268   4.481 128.019  0.00  0.00    +0.203 C 
ATOM     21  O   LIG A   1      -8.812   5.522 127.641  0.00  0.00    -0.288 OA
ATOM     22  C   LIG A   1      -5.535   2.838 130.408  0.00  0.00    +0.020 C 
ATOM     23  C   LIG A   1      -5.495   1.985 127.105  0.00  0.00    +0.006 C 
ATOM     24  C   LIG A   1      -6.360   0.979 126.330  0.00  0.00    +0.010 C 
ENDROOT
BRANCH   6  25
ATOM     25  C   LIG A   1      -7.758  -0.148 123.776  0.00  0.00    +0.042 C 
ATOM     26  C   LIG A   1      -6.637  -0.869 123.759  0.00  0.00    +0.057 C 
ATOM     27  C   LIG A   1      -6.803  -2.117 123.000  0.00  0.00    +0.334 C 
ATOM     28  O   LIG A   1      -8.143  -2.090 122.558  0.00  0.00    -0.428 OA
ATOM     29  C   LIG A   1      -8.737  -0.959 123.026  0.00  0.00    +0.338 C 
ATOM     30  O   LIG A   1      -9.907  -0.674 122.855  0.00  0.00    -0.245 OA
BRANCH  27  31
ATOM     31  O   LIG A   1      -5.916  -2.090 121.906  0.00  0.00    -0.354 OA
ATOM     32  H   LIG A   1      -6.114  -1.260 121.439  0.00  0.00    +0.214 HD
ENDBRANCH  27  31
ENDBRANCH   6  25
BRANCH  19  33
ATOM     33  O   LIG A   1      -9.839   4.554 129.825  0.00  0.00    -0.503 OA
ATOM     34  H   LIG A   1      -9.781   4.463 130.803  0.00  0.00    +0.292 HD
ENDBRANCH  19  33
TORSDOF 3
ENDMDL
MODEL 4
REMARK VINA RESULT:      -8.4      3.753      6.925
REMARK  Name = NuBBE_1183
REMARK  7 active torsions:
REMARK  status: ('A' for Active; 'I' for Inactive)
REMARK    1  A    between atoms: C_1  and  C_2
REMARK    2  A    between atoms: C_7  and  C_9
REMARK    3  A    between atoms: C_11  and  O_15
REMARK    4  A    between atoms: C_20  and  C_33
REMARK    5  A    between atoms: C_22  and  C_23
REMARK    6  A    between atoms: C_22  and  C_28
REMARK    7  A    between atoms: C_29  and  O_30
REMARK                            x       y       z     vdW  Elec       q    Type
REMARK                         _______ _______ _______ _____ _____    ______ ____
ROOT
ATOM      1  C   LIG A   1      -8.159   5.640 129.135  0.00  0.00    +0.014 C 
ATOM      2  C   LIG A   1      -9.043   5.249 130.327  0.00  0.00    +0.007 C 
ATOM      3  C   LIG A   1      -8.679   3.863 130.835  0.00  0.00    +0.112 C 
ATOM      4  C   LIG A   1      -9.957   3.127 131.105  0.00  0.00    +0.153 C 
ATOM      5  C   LIG A   1     -11.122   4.005 130.776  0.00  0.00    +0.043 C 
ATOM      6  C   LIG A   1     -10.544   5.070 129.811  0.00  0.00    +0.037 C 
ATOM      7  O   LIG A   1      -9.106   2.765 130.015  0.00  0.00    -0.363 OA
ATOM      8  C   LIG A   1      -7.492   3.612 131.730  0.00  0.00    +0.102 C 
ATOM      9  C   LIG A   1      -6.949   4.861 132.429  0.00  0.00    +0.016 C 
ATOM     10  C   LIG A   1      -5.584   5.518 131.917  0.00  0.00    +0.016 C 
ATOM     11  C   LIG A   1      -4.783   4.643 130.904  0.00  0.00    -0.002 C 
ATOM     12  C   LIG A   1      -3.557   5.332 130.192  0.00  0.00    +0.053 C 
ATOM     13  C   LIG A   1      -2.386   5.612 131.157  0.00  0.00    +0.024 C 
ATOM     14  C   LIG A   1      -4.035   6.681 129.611  0.00  0.00    +0.166 C 
ATOM     15  C   LIG A   1      -5.087   7.440 130.320  0.00  0.00    +0.044 C 
ATOM     16  C   LIG A   1      -5.750   6.923 131.360  0.00  0.00    -0.012 C 
ATOM     17  O   LIG A   1      -3.522   7.224 128.631  0.00  0.00    -0.292 OA
ATOM     18  C   LIG A   1      -2.938   4.563 128.993  0.00  0.00    +0.024 C 
ATOM     19  C   LIG A   1      -5.169   3.381 130.617  0.00  0.00    +0.161 C 
ATOM     20  C   LIG A   1      -6.415   2.760 131.134  0.00  0.00    +0.203 C 
ATOM     21  O   LIG A   1      -6.529   1.540 130.987  0.00  0.00    -0.288 OA
ATOM     22  C   LIG A   1      -4.751   5.716 133.223  0.00  0.00    +0.020 C 
ATOM     23  C   LIG A   1      -8.125   5.811 132.722  0.00  0.00    +0.006 C 
ATOM     24  C   LIG A   1      -8.933   6.265 131.497  0.00  0.00    +0.010 C 
ENDROOT
BRANCH   6  25
ATOM     25  C   LIG A   1     -11.423   6.269 129.612  0.00  0.00    +0.042 C 
ATOM     26  C   LIG A   1     -11.718   7.010 128.544  0.00  0.00    +0.057 C 
ATOM     27  C   LIG A   1     -12.648   8.099 128.878  0.00  0.00    +0.334 C 
ATOM     28  O   LIG A   1     -12.897   7.946 130.258  0.00  0.00    -0.428 OA
ATOM     29  C   LIG A   1     -12.214   6.859 130.709  0.00  0.00    +0.338 C 
ATOM     30  O   LIG A   1     -12.263   6.438 131.849  0.00  0.00    -0.245 OA
BRANCH  27  31
ATOM     31  O   LIG A   1     -12.004   9.324 128.620  0.00  0.00    -0.354 OA
ATOM     32  H   LIG A   1     -11.644   9.608 129.477  0.00  0.00    +0.214 HD
ENDBRANCH  27  31
ENDBRANCH   6  25
BRANCH  19  33
ATOM     33  O   LIG A   1      -4.423   2.529 129.827  0.00  0.00    -0.503 OA
ATOM     34  H   LIG A   1      -3.607   3.030 129.598  0.00  0.00    +0.292 HD
ENDBRANCH  19  33
TORSDOF 3
ENDMDL
MODEL 5
REMARK VINA RESULT:      -8.1      2.648      4.226
REMARK  Name = NuBBE_1183
REMARK  7 active torsions:
REMARK  status: ('A' for Active; 'I' for Inactive)
REMARK    1  A    between atoms: C_1  and  C_2
REMARK    2  A    between atoms: C_7  and  C_9
REMARK    3  A    between atoms: C_11  and  O_15
REMARK    4  A    between atoms: C_20  and  C_33
REMARK    5  A    between atoms: C_22  and  C_23
REMARK    6  A    between atoms: C_22  and  C_28
REMARK    7  A    between atoms: C_29  and  O_30
REMARK                            x       y       z     vdW  Elec       q    Type
REMARK                         _______ _______ _______ _____ _____    ______ ____
ROOT
ATOM      1  C   LIG A   1      -7.812   0.685 126.985  0.00  0.00    +0.014 C 
ATOM      2  C   LIG A   1      -6.952   1.055 125.769  0.00  0.00    +0.007 C 
ATOM      3  C   LIG A   1      -7.299   2.449 125.270  0.00  0.00    +0.112 C 
ATOM      4  C   LIG A   1      -7.368   2.392 123.773  0.00  0.00    +0.153 C 
ATOM      5  C   LIG A   1      -7.081   1.000 123.309  0.00  0.00    +0.043 C 
ATOM      6  C   LIG A   1      -7.364   0.113 124.547  0.00  0.00    +0.037 C 
ATOM      7  O   LIG A   1      -8.545   2.568 124.566  0.00  0.00    -0.363 OA
ATOM      8  C   LIG A   1      -6.776   3.700 125.927  0.00  0.00    +0.102 C 
ATOM      9  C   LIG A   1      -5.559   3.482 126.832  0.00  0.00    +0.016 C 
ATOM     10  C   LIG A   1      -5.743   3.521 128.420  0.00  0.00    +0.016 C 
ATOM     11  C   LIG A   1      -7.127   4.059 128.899  0.00  0.00    -0.002 C 
ATOM     12  C   LIG A   1      -7.450   3.904 130.435  0.00  0.00    +0.053 C 
ATOM     13  C   LIG A   1      -6.581   4.818 131.323  0.00  0.00    +0.024 C 
ATOM     14  C   LIG A   1      -7.175   2.438 130.837  0.00  0.00    +0.166 C 
ATOM     15  C   LIG A   1      -6.090   1.695 130.162  0.00  0.00    +0.044 C 
ATOM     16  C   LIG A   1      -5.443   2.198 129.105  0.00  0.00    -0.012 C 
ATOM     17  O   LIG A   1      -7.747   1.865 131.767  0.00  0.00    -0.292 OA
ATOM     18  C   LIG A   1      -8.919   4.180 130.858  0.00  0.00    +0.024 C 
ATOM     19  C   LIG A   1      -8.016   4.573 128.023  0.00  0.00    +0.161 C 
ATOM     20  C   LIG A   1      -7.818   4.575 126.550  0.00  0.00    +0.203 C 
ATOM     21  O   LIG A   1      -8.588   5.277 125.888  0.00  0.00    -0.288 OA
ATOM     22  C   LIG A   1      -4.606   4.475 128.904  0.00  0.00    +0.020 C 
ATOM     23  C   LIG A   1      -4.711   2.337 126.246  0.00  0.00    +0.006 C 
ATOM     24  C   LIG A   1      -5.432   0.991 126.084  0.00  0.00    +0.010 C 
ENDROOT
BRANCH   6  25
ATOM     25  C   LIG A   1      -6.818  -1.280 124.450  0.00  0.00    +0.042 C 
ATOM     26  C   LIG A   1      -5.583  -1.778 124.529  0.00  0.00    +0.057 C 
ATOM     27  C   LIG A   1      -5.574  -3.239 124.363  0.00  0.00    +0.334 C 
ATOM     28  O   LIG A   1      -6.930  -3.586 124.181  0.00  0.00    -0.428 OA
ATOM     29  C   LIG A   1      -7.686  -2.458 124.259  0.00  0.00    +0.338 C 
ATOM     30  O   LIG A   1      -8.900  -2.436 124.190  0.00  0.00    -0.245 OA
BRANCH  27  31
ATOM     31  O   LIG A   1      -4.821  -3.548 123.213  0.00  0.00    -0.354 OA
ATOM     32  H   LIG A   1      -5.209  -4.371 122.870  0.00  0.00    +0.214 HD
ENDBRANCH  27  31
ENDBRANCH   6  25
BRANCH  19  33
ATOM     33  O   LIG A   1      -9.196   5.174 128.414  0.00  0.00    -0.503 OA
ATOM     34  H   LIG A   1      -9.801   5.092 127.642  0.00  0.00    +0.292 HD
ENDBRANCH  19  33
TORSDOF 3
ENDMDL
MODEL 6
REMARK VINA RESULT:      -8.1      2.236      7.065
REMARK  Name = NuBBE_1183
REMARK  7 active torsions:
REMARK  status: ('A' for Active; 'I' for Inactive)
REMARK    1  A    between atoms: C_1  and  C_2
REMARK    2  A    between atoms: C_7  and  C_9
REMARK    3  A    between atoms: C_11  and  O_15
REMARK    4  A    between atoms: C_20  and  C_33
REMARK    5  A    between atoms: C_22  and  C_23
REMARK    6  A    between atoms: C_22  and  C_28
REMARK    7  A    between atoms: C_29  and  O_30
REMARK                            x       y       z     vdW  Elec       q    Type
REMARK                         _______ _______ _______ _____ _____    ______ ____
ROOT
ATOM      1  C   LIG A   1      -9.913   3.218 130.074  0.00  0.00    +0.014 C 
ATOM      2  C   LIG A   1      -9.271   4.425 130.771  0.00  0.00    +0.007 C 
ATOM      3  C   LIG A   1      -8.597   4.001 132.067  0.00  0.00    +0.112 C 
ATOM      4  C   LIG A   1      -8.940   5.020 133.112  0.00  0.00    +0.153 C 
ATOM      5  C   LIG A   1      -9.818   6.075 132.518  0.00  0.00    +0.043 C 
ATOM      6  C   LIG A   1     -10.433   5.405 131.263  0.00  0.00    +0.037 C 
ATOM      7  O   LIG A   1      -9.478   3.696 133.159  0.00  0.00    -0.363 OA
ATOM      8  C   LIG A   1      -7.237   3.354 132.100  0.00  0.00    +0.102 C 
ATOM      9  C   LIG A   1      -6.413   3.543 130.822  0.00  0.00    +0.016 C 
ATOM     10  C   LIG A   1      -6.239   2.316 129.810  0.00  0.00    +0.016 C 
ATOM     11  C   LIG A   1      -6.713   0.941 130.372  0.00  0.00    -0.002 C 
ATOM     12  C   LIG A   1      -6.781  -0.254 129.345  0.00  0.00    +0.053 C 
ATOM     13  C   LIG A   1      -5.387  -0.719 128.875  0.00  0.00    +0.024 C 
ATOM     14  C   LIG A   1      -7.573   0.222 128.107  0.00  0.00    +0.166 C 
ATOM     15  C   LIG A   1      -7.481   1.639 127.692  0.00  0.00    +0.044 C 
ATOM     16  C   LIG A   1      -6.863   2.555 128.445  0.00  0.00    -0.012 C 
ATOM     17  O   LIG A   1      -8.211  -0.533 127.371  0.00  0.00    -0.292 OA
ATOM     18  C   LIG A   1      -7.510  -1.536 129.831  0.00  0.00    +0.024 C 
ATOM     19  C   LIG A   1      -7.098   0.809 131.659  0.00  0.00    +0.161 C 
ATOM     20  C   LIG A   1      -7.214   1.946 132.607  0.00  0.00    +0.203 C 
ATOM     21  O   LIG A   1      -7.348   1.662 133.801  0.00  0.00    -0.288 OA
ATOM     22  C   LIG A   1      -4.703   2.277 129.532  0.00  0.00    +0.020 C 
ATOM     23  C   LIG A   1      -6.753   4.917 130.216  0.00  0.00    +0.006 C 
ATOM     24  C   LIG A   1      -8.231   5.141 129.866  0.00  0.00    +0.010 C 
ENDROOT
BRANCH   6  25
ATOM     25  C   LIG A   1     -11.073   6.361 130.301  0.00  0.00    +0.042 C 
ATOM     26  C   LIG A   1     -10.762   6.746 129.064  0.00  0.00    +0.057 C 
ATOM     27  C   LIG A   1     -11.725   7.726 128.541  0.00  0.00    +0.334 C 
ATOM     28  O   LIG A   1     -12.662   7.898 129.583  0.00  0.00    -0.428 OA
ATOM     29  C   LIG A   1     -12.320   7.083 130.618  0.00  0.00    +0.338 C 
ATOM     30  O   LIG A   1     -12.962   6.968 131.645  0.00  0.00    -0.245 OA
BRANCH  27  31
ATOM     31  O   LIG A   1     -11.038   8.929 128.286  0.00  0.00    -0.354 OA
ATOM     32  H   LIG A   1     -10.226   8.876 128.819  0.00  0.00    +0.214 HD
ENDBRANCH  27  31
ENDBRANCH   6  25
BRANCH  19  33
ATOM     33  O   LIG A   1      -7.404  -0.410 132.231  0.00  0.00    -0.503 OA
ATOM     34  H   LIG A   1      -6.557  -0.745 132.604  0.00  0.00    +0.292 HD
ENDBRANCH  19  33
TORSDOF 3
ENDMDL
MODEL 7
REMARK VINA RESULT:      -8.0      1.431      1.746
REMARK  Name = NuBBE_1183
REMARK  7 active torsions:
REMARK  status: ('A' for Active; 'I' for Inactive)
REMARK    1  A    between atoms: C_1  and  C_2
REMARK    2  A    between atoms: C_7  and  C_9
REMARK    3  A    between atoms: C_11  and  O_15
REMARK    4  A    between atoms: C_20  and  C_33
REMARK    5  A    between atoms: C_22  and  C_23
REMARK    6  A    between atoms: C_22  and  C_28
REMARK    7  A    between atoms: C_29  and  O_30
REMARK                            x       y       z     vdW  Elec       q    Type
REMARK                         _______ _______ _______ _____ _____    ______ ____
ROOT
ATOM      1  C   LIG A   1      -7.893   3.187 128.137  0.00  0.00    +0.014 C 
ATOM      2  C   LIG A   1      -6.780   2.456 128.899  0.00  0.00    +0.007 C 
ATOM      3  C   LIG A   1      -5.866   3.449 129.599  0.00  0.00    +0.112 C 
ATOM      4  C   LIG A   1      -4.453   2.998 129.383  0.00  0.00    +0.153 C 
ATOM      5  C   LIG A   1      -4.444   1.749 128.560  0.00  0.00    +0.043 C 
ATOM      6  C   LIG A   1      -5.816   1.751 127.839  0.00  0.00    +0.037 C 
ATOM      7  O   LIG A   1      -4.963   4.173 128.750  0.00  0.00    -0.363 OA
ATOM      8  C   LIG A   1      -6.229   4.103 130.908  0.00  0.00    +0.102 C 
ATOM      9  C   LIG A   1      -7.345   3.397 131.683  0.00  0.00    +0.016 C 
ATOM     10  C   LIG A   1      -8.809   4.041 131.717  0.00  0.00    +0.016 C 
ATOM     11  C   LIG A   1      -8.888   5.498 131.168  0.00  0.00    -0.002 C 
ATOM     12  C   LIG A   1     -10.333   6.097 130.962  0.00  0.00    +0.053 C 
ATOM     13  C   LIG A   1     -11.064   6.363 132.294  0.00  0.00    +0.024 C 
ATOM     14  C   LIG A   1     -11.163   5.077 130.152  0.00  0.00    +0.166 C 
ATOM     15  C   LIG A   1     -10.906   3.632 130.330  0.00  0.00    +0.044 C 
ATOM     16  C   LIG A   1      -9.872   3.183 131.050  0.00  0.00    -0.012 C 
ATOM     17  O   LIG A   1     -12.109   5.388 129.425  0.00  0.00    -0.292 OA
ATOM     18  C   LIG A   1     -10.418   7.426 130.163  0.00  0.00    +0.024 C 
ATOM     19  C   LIG A   1      -7.771   6.179 130.834  0.00  0.00    +0.161 C 
ATOM     20  C   LIG A   1      -6.408   5.588 130.848  0.00  0.00    +0.203 C 
ATOM     21  O   LIG A   1      -5.462   6.374 130.749  0.00  0.00    -0.288 OA
ATOM     22  C   LIG A   1      -9.190   4.021 133.231  0.00  0.00    +0.020 C 
ATOM     23  C   LIG A   1      -7.244   1.883 131.419  0.00  0.00    +0.006 C 
ATOM     24  C   LIG A   1      -7.345   1.457 129.947  0.00  0.00    +0.010 C 
ENDROOT
BRANCH   6  25
ATOM     25  C   LIG A   1      -6.197   0.436 127.228  0.00  0.00    +0.042 C 
ATOM     26  C   LIG A   1      -5.985  -0.829 127.593  0.00  0.00    +0.057 C 
ATOM     27  C   LIG A   1      -6.572  -1.777 126.635  0.00  0.00    +0.334 C 
ATOM     28  O   LIG A   1      -7.171  -0.964 125.648  0.00  0.00    -0.428 OA
ATOM     29  C   LIG A   1      -6.993   0.341 125.989  0.00  0.00    +0.338 C 
ATOM     30  O   LIG A   1      -7.437   1.284 125.362  0.00  0.00    -0.245 OA
BRANCH  27  31
ATOM     31  O   LIG A   1      -5.531  -2.547 126.081  0.00  0.00    -0.354 OA
ATOM     32  H   LIG A   1      -4.843  -1.906 125.835  0.00  0.00    +0.214 HD
ENDBRANCH  27  31
ENDBRANCH   6  25
BRANCH  19  33
ATOM     33  O   LIG A   1      -7.784   7.510 130.464  0.00  0.00    -0.503 OA
ATOM     34  H   LIG A   1      -7.303   7.548 129.606  0.00  0.00    +0.292 HD
ENDBRANCH  19  33
TORSDOF 3
ENDMDL
MODEL 8
REMARK VINA RESULT:      -8.0      1.820      2.341
REMARK  Name = NuBBE_1183
REMARK  7 active torsions:
REMARK  status: ('A' for Active; 'I' for Inactive)
REMARK    1  A    between atoms: C_1  and  C_2
REMARK    2  A    between atoms: C_7  and  C_9
REMARK    3  A    between atoms: C_11  and  O_15
REMARK    4  A    between atoms: C_20  and  C_33
REMARK    5  A    between atoms: C_22  and  C_23
REMARK    6  A    between atoms: C_22  and  C_28
REMARK    7  A    between atoms: C_29  and  O_30
REMARK                            x       y       z     vdW  Elec       q    Type
REMARK                         _______ _______ _______ _____ _____    ______ ____
ROOT
ATOM      1  C   LIG A   1      -7.058   1.309 128.917  0.00  0.00    +0.014 C 
ATOM      2  C   LIG A   1      -7.034   0.069 129.821  0.00  0.00    +0.007 C 
ATOM      3  C   LIG A   1      -6.010   0.235 130.933  0.00  0.00    +0.112 C 
ATOM      4  C   LIG A   1      -5.264  -1.059 131.061  0.00  0.00    +0.153 C 
ATOM      5  C   LIG A   1      -5.782  -2.040 130.058  0.00  0.00    +0.043 C 
ATOM      6  C   LIG A   1      -6.467  -1.164 128.979  0.00  0.00    +0.037 C 
ATOM      7  O   LIG A   1      -4.635   0.113 130.539  0.00  0.00    -0.363 OA
ATOM      8  C   LIG A   1      -6.284   1.043 132.175  0.00  0.00    +0.102 C 
ATOM      9  C   LIG A   1      -7.768   1.316 132.440  0.00  0.00    +0.016 C 
ATOM     10  C   LIG A   1      -8.361   2.775 132.162  0.00  0.00    +0.016 C 
ATOM     11  C   LIG A   1      -7.285   3.873 131.898  0.00  0.00    -0.002 C 
ATOM     12  C   LIG A   1      -7.812   5.270 131.393  0.00  0.00    +0.053 C 
ATOM     13  C   LIG A   1      -8.597   6.040 132.476  0.00  0.00    +0.024 C 
ATOM     14  C   LIG A   1      -8.759   5.022 130.198  0.00  0.00    +0.166 C 
ATOM     15  C   LIG A   1      -9.578   3.792 130.168  0.00  0.00    +0.044 C 
ATOM     16  C   LIG A   1      -9.410   2.812 131.063  0.00  0.00    -0.012 C 
ATOM     17  O   LIG A   1      -8.952   5.841 129.297  0.00  0.00    -0.292 OA
ATOM     18  C   LIG A   1      -6.737   6.261 130.869  0.00  0.00    +0.024 C 
ATOM     19  C   LIG A   1      -5.969   3.607 132.042  0.00  0.00    +0.161 C 
ATOM     20  C   LIG A   1      -5.427   2.258 132.346  0.00  0.00    +0.203 C 
ATOM     21  O   LIG A   1      -4.240   2.199 132.679  0.00  0.00    -0.288 OA
ATOM     22  C   LIG A   1      -9.154   3.111 133.465  0.00  0.00    +0.020 C 
ATOM     23  C   LIG A   1      -8.586   0.113 131.937  0.00  0.00    +0.006 C 
ATOM     24  C   LIG A   1      -8.424  -0.227 130.449  0.00  0.00    +0.010 C 
ENDROOT
BRANCH   6  25
ATOM     25  C   LIG A   1      -7.367  -1.920 128.047  0.00  0.00    +0.042 C 
ATOM     26  C   LIG A   1      -7.597  -1.830 126.737  0.00  0.00    +0.057 C 
ATOM     27  C   LIG A   1      -8.591  -2.816 126.291  0.00  0.00    +0.334 C 
ATOM     28  O   LIG A   1      -8.944  -3.523 127.460  0.00  0.00    -0.428 OA
ATOM     29  C   LIG A   1      -8.215  -3.038 128.502  0.00  0.00    +0.338 C 
ATOM     30  O   LIG A   1      -8.258  -3.476 129.636  0.00  0.00    -0.245 OA
BRANCH  27  31
ATOM     31  O   LIG A   1      -9.702  -2.121 125.775  0.00  0.00    -0.354 OA
ATOM     32  H   LIG A   1     -10.410  -2.785 125.709  0.00  0.00    +0.214 HD
ENDBRANCH  27  31
ENDBRANCH   6  25
BRANCH  19  33
ATOM     33  O   LIG A   1      -4.991   4.577 131.943  0.00  0.00    -0.503 OA
ATOM     34  H   LIG A   1      -4.911   4.772 130.981  0.00  0.00    +0.292 HD
ENDBRANCH  19  33
TORSDOF 3
ENDMDL
MODEL 9
REMARK VINA RESULT:      -7.9      1.823      2.097
REMARK  Name = NuBBE_1183
REMARK  7 active torsions:
REMARK  status: ('A' for Active; 'I' for Inactive)
REMARK    1  A    between atoms: C_1  and  C_2
REMARK    2  A    between atoms: C_7  and  C_9
REMARK    3  A    between atoms: C_11  and  O_15
REMARK    4  A    between atoms: C_20  and  C_33
REMARK    5  A    between atoms: C_22  and  C_23
REMARK    6  A    between atoms: C_22  and  C_28
REMARK    7  A    between atoms: C_29  and  O_30
REMARK                            x       y       z     vdW  Elec       q    Type
REMARK                         _______ _______ _______ _____ _____    ______ ____
ROOT
ATOM      1  C   LIG A   1      -7.664   3.404 127.270  0.00  0.00    +0.014 C 
ATOM      2  C   LIG A   1      -6.408   2.563 127.537  0.00  0.00    +0.007 C 
ATOM      3  C   LIG A   1      -5.333   3.403 128.208  0.00  0.00    +0.112 C 
ATOM      4  C   LIG A   1      -4.025   3.078 127.550  0.00  0.00    +0.153 C 
ATOM      5  C   LIG A   1      -4.242   2.061 126.476  0.00  0.00    +0.043 C 
ATOM      6  C   LIG A   1      -5.750   2.172 126.135  0.00  0.00    +0.037 C 
ATOM      7  O   LIG A   1      -4.658   4.346 127.362  0.00  0.00    -0.363 OA
ATOM      8  C   LIG A   1      -5.348   3.713 129.683  0.00  0.00    +0.102 C 
ATOM      9  C   LIG A   1      -6.247   2.795 130.516  0.00  0.00    +0.016 C 
ATOM     10  C   LIG A   1      -7.645   3.347 131.062  0.00  0.00    +0.016 C 
ATOM     11  C   LIG A   1      -7.835   4.888 130.914  0.00  0.00    -0.002 C 
ATOM     12  C   LIG A   1      -9.275   5.453 131.219  0.00  0.00    +0.053 C 
ATOM     13  C   LIG A   1      -9.648   5.365 132.714  0.00  0.00    +0.024 C 
ATOM     14  C   LIG A   1     -10.298   4.618 130.418  0.00  0.00    +0.166 C 
ATOM     15  C   LIG A   1     -10.028   3.185 130.176  0.00  0.00    +0.044 C 
ATOM     16  C   LIG A   1      -8.855   2.625 130.491  0.00  0.00    -0.012 C 
ATOM     17  O   LIG A   1     -11.389   5.050 130.042  0.00  0.00    -0.292 OA
ATOM     18  C   LIG A   1      -9.535   6.928 130.808  0.00  0.00    +0.024 C 
ATOM     19  C   LIG A   1      -6.825   5.677 130.490  0.00  0.00    +0.161 C 
ATOM     20  C   LIG A   1      -5.511   5.161 130.027  0.00  0.00    +0.203 C 
ATOM     21  O   LIG A   1      -4.607   5.989 129.889  0.00  0.00    -0.288 OA
ATOM     22  C   LIG A   1      -7.638   2.954 132.573  0.00  0.00    +0.020 C 
ATOM     23  C   LIG A   1      -6.240   1.392 129.880  0.00  0.00    +0.006 C 
ATOM     24  C   LIG A   1      -6.710   1.322 128.420  0.00  0.00    +0.010 C 
ENDROOT
BRANCH   6  25
ATOM     25  C   LIG A   1      -6.293   1.023 125.340  0.00  0.00    +0.042 C 
ATOM     26  C   LIG A   1      -6.064  -0.290 125.372  0.00  0.00    +0.057 C 
ATOM     27  C   LIG A   1      -6.861  -1.006 124.365  0.00  0.00    +0.334 C 
ATOM     28  O   LIG A   1      -7.606   0.002 123.717  0.00  0.00    -0.428 OA
ATOM     29  C   LIG A   1      -7.316   1.201 124.292  0.00  0.00    +0.338 C 
ATOM     30  O   LIG A   1      -7.835   2.257 123.985  0.00  0.00    -0.245 OA
BRANCH  27  31
ATOM     31  O   LIG A   1      -5.977  -1.630 123.463  0.00  0.00    -0.354 OA
ATOM     32  H   LIG A   1      -6.195  -2.576 123.507  0.00  0.00    +0.214 HD
ENDBRANCH  27  31
ENDBRANCH   6  25
BRANCH  19  33
ATOM     33  O   LIG A   1      -6.908   7.055 130.465  0.00  0.00    -0.503 OA
ATOM     34  H   LIG A   1      -6.367   7.364 131.227  0.00  0.00    +0.292 HD
ENDBRANCH  19  33
TORSDOF 3
ENDMDL
