MODEL 1
REMARK VINA RESULT:     -10.7      0.000      0.000
REMARK  Name = NuBBE_268
REMARK  6 active torsions:
REMARK  status: ('A' for Active; 'I' for Inactive)
REMARK    1  A    between atoms: C_4  and  C_5
REMARK    2  A    between atoms: C_5  and  C_6
REMARK    3  A    between atoms: C_21  and  C_22
REMARK    4  A    between atoms: C_27  and  O_29
REMARK    5  A    between atoms: C_34  and  O_35
REMARK    6  A    between atoms: C_38  and  C_39
REMARK                            x       y       z     vdW  Elec       q    Type
REMARK                         _______ _______ _______ _____ _____    ______ ____
ROOT
ATOM      1  O   LIG A   1      -9.930  -0.910 125.521  0.00  0.00    -0.271 OA
ATOM      2  C   LIG A   1      -8.903  -0.534 124.982  0.00  0.00    +0.258 C 
ATOM      3  N   LIG A   1      -8.863   0.255 123.849  0.00  0.00    -0.308 N 
ATOM      4  C   LIG A   1      -7.539   0.468 123.328  0.00  0.00    +0.085 C 
ATOM      5  C   LIG A   1      -6.699  -0.610 124.049  0.00  0.00    +0.070 C 
ATOM      6  C   LIG A   1      -7.452  -0.848 125.409  0.00  0.00    +0.202 C 
ATOM      7  O   LIG A   1      -6.830  -0.010 126.419  0.00  0.00    -0.444 OA
ATOM      8  C   LIG A   1      -7.362  -2.332 125.896  0.00  0.00    +0.098 C 
ATOM      9  C   LIG A   1      -7.571  -2.510 127.393  0.00  0.00    -0.020 C 
ATOM     10  C   LIG A   1      -8.540  -3.224 127.986  0.00  0.00    -0.030 C 
ATOM     11  C   LIG A   1      -8.706  -3.504 129.464  0.00  0.00    +0.030 C 
ATOM     12  C   LIG A   1      -7.631  -3.063 130.497  0.00  0.00    -0.010 C 
ATOM     13  C   LIG A   1      -6.270  -3.718 130.233  0.00  0.00    +0.008 C 
ATOM     14  C   LIG A   1      -7.599  -1.528 130.664  0.00  0.00    +0.004 C 
ATOM     15  C   LIG A   1      -6.392  -0.969 131.432  0.00  0.00    +0.003 C 
ATOM     16  C   LIG A   1      -6.382   0.571 131.468  0.00  0.00    +0.035 C 
ATOM     17  C   LIG A   1      -5.606   1.263 130.327  0.00  0.00    +0.138 C 
ATOM     18  C   LIG A   1      -6.023   0.843 128.953  0.00  0.00    +0.011 C 
ATOM     19  C   LIG A   1      -6.918   1.517 128.213  0.00  0.00    +0.090 C 
ATOM     20  C   LIG A   1      -7.492   1.057 126.931  0.00  0.00    +0.333 C 
ATOM     21  O   LIG A   1      -8.453   1.627 126.450  0.00  0.00    -0.246 OA
ATOM     22  C   LIG A   1      -5.985  -2.950 125.540  0.00  0.00    +0.151 C 
ATOM     23  C   LIG A   1      -5.642  -2.854 124.068  0.00  0.00    -0.045 C 
ATOM     24  C   LIG A   1      -6.523  -1.924 123.237  0.00  0.00    +0.023 C 
ATOM     25  C   LIG A   1      -5.975  -1.681 121.819  0.00  0.00    +0.013 C 
ATOM     26  C   LIG A   1      -4.581  -3.545 123.606  0.00  0.00    +0.010 C 
ATOM     27  H   LIG A   1      -9.723   0.610 123.448  0.00  0.00    +0.149 HD
ENDROOT
BRANCH  17  28
ATOM     28  O   LIG A   1      -4.217   0.973 130.432  0.00  0.00    -0.388 OA
ATOM     29  H   LIG A   1      -3.750   1.570 129.824  0.00  0.00    +0.210 HD
ENDBRANCH  17  28
BRANCH  22  30
ATOM     30  O   LIG A   1      -4.918  -2.331 126.267  0.00  0.00    -0.387 OA
ATOM     31  H   LIG A   1      -4.075  -2.603 125.868  0.00  0.00    +0.210 HD
ENDBRANCH  22  30
BRANCH   4  32
ATOM     32  C   LIG A   1      -7.030   1.914 123.516  0.00  0.00    +0.057 C 
BRANCH  32  33
ATOM     33  C   LIG A   1      -7.209   2.765 122.277  0.00  0.00    -0.046 A 
ATOM     34  C   LIG A   1      -8.488   3.119 121.828  0.00  0.00    +0.003 A 
ATOM     35  C   LIG A   1      -8.644   3.837 120.639  0.00  0.00    +0.000 A 
ATOM     36  C   LIG A   1      -7.530   4.192 119.880  0.00  0.00    +0.000 A 
ATOM     37  C   LIG A   1      -6.254   3.859 120.325  0.00  0.00    +0.000 A 
ATOM     38  C   LIG A   1      -6.094   3.172 121.527  0.00  0.00    +0.003 A 
ENDBRANCH  32  33
ENDBRANCH   4  32
TORSDOF 4
ENDMDL
MODEL 2
REMARK VINA RESULT:     -10.3      2.749      5.502
REMARK  Name = NuBBE_268
REMARK  6 active torsions:
REMARK  status: ('A' for Active; 'I' for Inactive)
REMARK    1  A    between atoms: C_4  and  C_5
REMARK    2  A    between atoms: C_5  and  C_6
REMARK    3  A    between atoms: C_21  and  C_22
REMARK    4  A    between atoms: C_27  and  O_29
REMARK    5  A    between atoms: C_34  and  O_35
REMARK    6  A    between atoms: C_38  and  C_39
REMARK                            x       y       z     vdW  Elec       q    Type
REMARK                         _______ _______ _______ _____ _____    ______ ____
ROOT
ATOM      1  O   LIG A   1      -9.226   1.923 127.583  0.00  0.00    -0.271 OA
ATOM      2  C   LIG A   1      -8.688   0.934 127.115  0.00  0.00    +0.258 C 
ATOM      3  N   LIG A   1      -9.224   0.163 126.102  0.00  0.00    -0.308 N 
ATOM      4  C   LIG A   1      -8.466  -1.022 125.801  0.00  0.00    +0.085 C 
ATOM      5  C   LIG A   1      -7.527  -1.158 127.020  0.00  0.00    +0.070 C 
ATOM      6  C   LIG A   1      -7.335   0.316 127.534  0.00  0.00    +0.202 C 
ATOM      7  O   LIG A   1      -6.119   0.844 126.941  0.00  0.00    -0.444 OA
ATOM      8  C   LIG A   1      -7.184   0.398 129.088  0.00  0.00    +0.098 C 
ATOM      9  C   LIG A   1      -6.475   1.651 129.580  0.00  0.00    -0.020 C 
ATOM     10  C   LIG A   1      -6.983   2.592 130.390  0.00  0.00    -0.030 C 
ATOM     11  C   LIG A   1      -6.265   3.788 130.978  0.00  0.00    +0.030 C 
ATOM     12  C   LIG A   1      -4.735   3.990 130.785  0.00  0.00    -0.010 C 
ATOM     13  C   LIG A   1      -3.917   2.841 131.386  0.00  0.00    +0.008 C 
ATOM     14  C   LIG A   1      -4.390   4.344 129.321  0.00  0.00    +0.004 C 
ATOM     15  C   LIG A   1      -2.900   4.279 128.957  0.00  0.00    +0.003 C 
ATOM     16  C   LIG A   1      -2.649   4.547 127.461  0.00  0.00    +0.035 C 
ATOM     17  C   LIG A   1      -2.625   3.300 126.552  0.00  0.00    +0.138 C 
ATOM     18  C   LIG A   1      -3.840   2.432 126.662  0.00  0.00    +0.011 C 
ATOM     19  C   LIG A   1      -4.892   2.524 125.832  0.00  0.00    +0.090 C 
ATOM     20  C   LIG A   1      -6.179   1.817 125.999  0.00  0.00    +0.333 C 
ATOM     21  O   LIG A   1      -7.142   2.132 125.325  0.00  0.00    -0.246 OA
ATOM     22  C   LIG A   1      -6.405  -0.826 129.635  0.00  0.00    +0.151 C 
ATOM     23  C   LIG A   1      -7.006  -2.155 129.231  0.00  0.00    -0.045 C 
ATOM     24  C   LIG A   1      -8.065  -2.103 128.132  0.00  0.00    +0.023 C 
ATOM     25  C   LIG A   1      -8.451  -3.494 127.599  0.00  0.00    +0.013 C 
ATOM     26  C   LIG A   1      -6.548  -3.277 129.822  0.00  0.00    +0.010 C 
ATOM     27  H   LIG A   1     -10.091   0.443 125.657  0.00  0.00    +0.149 HD
ENDROOT
BRANCH  17  28
ATOM     28  O   LIG A   1      -1.512   2.476 126.877  0.00  0.00    -0.388 OA
ATOM     29  H   LIG A   1      -1.473   2.413 127.846  0.00  0.00    +0.210 HD
ENDBRANCH  17  28
BRANCH  22  30
ATOM     30  O   LIG A   1      -5.040  -0.826 129.202  0.00  0.00    -0.387 OA
ATOM     31  H   LIG A   1      -4.629  -1.661 129.481  0.00  0.00    +0.210 HD
ENDBRANCH  22  30
BRANCH   4  32
ATOM     32  C   LIG A   1      -7.745  -0.960 124.436  0.00  0.00    +0.057 C 
BRANCH  32  33
ATOM     33  C   LIG A   1      -6.830  -2.143 124.202  0.00  0.00    -0.046 A 
ATOM     34  C   LIG A   1      -7.281  -3.452 124.411  0.00  0.00    +0.003 A 
ATOM     35  C   LIG A   1      -6.405  -4.532 124.269  0.00  0.00    +0.000 A 
ATOM     36  C   LIG A   1      -5.069  -4.314 123.936  0.00  0.00    +0.000 A 
ATOM     37  C   LIG A   1      -4.614  -3.018 123.711  0.00  0.00    +0.000 A 
ATOM     38  C   LIG A   1      -5.494  -1.943 123.819  0.00  0.00    +0.003 A 
ENDBRANCH  32  33
ENDBRANCH   4  32
TORSDOF 4
ENDMDL
MODEL 3
REMARK VINA RESULT:      -9.7      4.121      8.775
REMARK  Name = NuBBE_268
REMARK  6 active torsions:
REMARK  status: ('A' for Active; 'I' for Inactive)
REMARK    1  A    between atoms: C_4  and  C_5
REMARK    2  A    between atoms: C_5  and  C_6
REMARK    3  A    between atoms: C_21  and  C_22
REMARK    4  A    between atoms: C_27  and  O_29
REMARK    5  A    between atoms: C_34  and  O_35
REMARK    6  A    between atoms: C_38  and  C_39
REMARK                            x       y       z     vdW  Elec       q    Type
REMARK                         _______ _______ _______ _____ _____    ______ ____
ROOT
ATOM      1  O   LIG A   1     -10.739   3.104 129.721  0.00  0.00    -0.271 OA
ATOM      2  C   LIG A   1      -9.916   3.420 130.564  0.00  0.00    +0.258 C 
ATOM      3  N   LIG A   1     -10.192   4.215 131.659  0.00  0.00    -0.308 N 
ATOM      4  C   LIG A   1      -9.036   4.552 132.447  0.00  0.00    +0.085 C 
ATOM      5  C   LIG A   1      -7.858   4.186 131.518  0.00  0.00    +0.070 C 
ATOM      6  C   LIG A   1      -8.421   3.035 130.605  0.00  0.00    +0.202 C 
ATOM      7  O   LIG A   1      -8.048   1.766 131.203  0.00  0.00    -0.444 OA
ATOM      8  C   LIG A   1      -7.833   3.073 129.157  0.00  0.00    +0.098 C 
ATOM      9  C   LIG A   1      -7.894   1.740 128.424  0.00  0.00    -0.020 C 
ATOM     10  C   LIG A   1      -8.550   1.484 127.282  0.00  0.00    -0.030 C 
ATOM     11  C   LIG A   1      -8.538   0.200 126.481  0.00  0.00    +0.030 C 
ATOM     12  C   LIG A   1      -7.608  -0.986 126.864  0.00  0.00    -0.010 C 
ATOM     13  C   LIG A   1      -6.124  -0.600 126.810  0.00  0.00    +0.008 C 
ATOM     14  C   LIG A   1      -8.062  -1.662 128.177  0.00  0.00    +0.004 C 
ATOM     15  C   LIG A   1      -7.059  -2.646 128.796  0.00  0.00    +0.003 C 
ATOM     16  C   LIG A   1      -7.541  -3.201 130.150  0.00  0.00    +0.035 C 
ATOM     17  C   LIG A   1      -7.090  -2.410 131.397  0.00  0.00    +0.138 C 
ATOM     18  C   LIG A   1      -7.423  -0.951 131.357  0.00  0.00    +0.011 C 
ATOM     19  C   LIG A   1      -8.526  -0.429 131.918  0.00  0.00    +0.090 C 
ATOM     20  C   LIG A   1      -8.988   0.966 131.762  0.00  0.00    +0.333 C 
ATOM     21  O   LIG A   1     -10.106   1.284 132.123  0.00  0.00    -0.246 OA
ATOM     22  C   LIG A   1      -6.352   3.531 129.170  0.00  0.00    +0.151 C 
ATOM     23  C   LIG A   1      -6.137   4.860 129.862  0.00  0.00    -0.045 C 
ATOM     24  C   LIG A   1      -7.313   5.382 130.686  0.00  0.00    +0.023 C 
ATOM     25  C   LIG A   1      -6.948   6.598 131.556  0.00  0.00    +0.013 C 
ATOM     26  C   LIG A   1      -4.937   5.462 129.747  0.00  0.00    +0.010 C 
ATOM     27  H   LIG A   1     -11.141   4.525 131.834  0.00  0.00    +0.149 HD
ENDROOT
BRANCH  17  28
ATOM     28  O   LIG A   1      -5.678  -2.497 131.548  0.00  0.00    -0.388 OA
ATOM     29  H   LIG A   1      -5.490  -3.312 132.042  0.00  0.00    +0.210 HD
ENDBRANCH  17  28
BRANCH  22  30
ATOM     30  O   LIG A   1      -5.502   2.574 129.812  0.00  0.00    -0.387 OA
ATOM     31  H   LIG A   1      -5.823   2.437 130.718  0.00  0.00    +0.210 HD
ENDBRANCH  22  30
BRANCH   4  32
ATOM     32  C   LIG A   1      -9.009   3.855 133.826  0.00  0.00    +0.057 C 
BRANCH  32  33
ATOM     33  C   LIG A   1      -7.795   4.231 134.648  0.00  0.00    -0.046 A 
ATOM     34  C   LIG A   1      -6.672   3.395 134.695  0.00  0.00    +0.003 A 
ATOM     35  C   LIG A   1      -5.590   3.712 135.519  0.00  0.00    +0.000 A 
ATOM     36  C   LIG A   1      -5.624   4.855 136.316  0.00  0.00    +0.000 A 
ATOM     37  C   LIG A   1      -6.727   5.702 136.265  0.00  0.00    +0.000 A 
ATOM     38  C   LIG A   1      -7.793   5.404 135.419  0.00  0.00    +0.003 A 
ENDBRANCH  32  33
ENDBRANCH   4  32
TORSDOF 4
ENDMDL
MODEL 4
REMARK VINA RESULT:      -9.4      3.963      6.881
REMARK  Name = NuBBE_268
REMARK  6 active torsions:
REMARK  status: ('A' for Active; 'I' for Inactive)
REMARK    1  A    between atoms: C_4  and  C_5
REMARK    2  A    between atoms: C_5  and  C_6
REMARK    3  A    between atoms: C_21  and  C_22
REMARK    4  A    between atoms: C_27  and  O_29
REMARK    5  A    between atoms: C_34  and  O_35
REMARK    6  A    between atoms: C_38  and  C_39
REMARK                            x       y       z     vdW  Elec       q    Type
REMARK                         _______ _______ _______ _____ _____    ______ ____
ROOT
ATOM      1  O   LIG A   1      -4.115   0.561 130.442  0.00  0.00    -0.271 OA
ATOM      2  C   LIG A   1      -4.390   1.363 129.565  0.00  0.00    +0.258 C 
ATOM      3  N   LIG A   1      -4.481   1.046 128.224  0.00  0.00    -0.308 N 
ATOM      4  C   LIG A   1      -4.697   2.180 127.365  0.00  0.00    +0.085 C 
ATOM      5  C   LIG A   1      -4.359   3.380 128.277  0.00  0.00    +0.070 C 
ATOM      6  C   LIG A   1      -4.677   2.872 129.731  0.00  0.00    +0.202 C 
ATOM      7  O   LIG A   1      -6.028   3.287 130.066  0.00  0.00    -0.444 OA
ATOM      8  C   LIG A   1      -3.711   3.471 130.804  0.00  0.00    +0.098 C 
ATOM      9  C   LIG A   1      -4.272   3.468 132.219  0.00  0.00    -0.020 C 
ATOM     10  C   LIG A   1      -3.758   2.834 133.283  0.00  0.00    -0.030 C 
ATOM     11  C   LIG A   1      -4.235   2.903 134.717  0.00  0.00    +0.030 C 
ATOM     12  C   LIG A   1      -5.371   3.875 135.147  0.00  0.00    -0.010 C 
ATOM     13  C   LIG A   1      -5.005   5.343 134.896  0.00  0.00    +0.008 C 
ATOM     14  C   LIG A   1      -6.739   3.434 134.581  0.00  0.00    +0.004 C 
ATOM     15  C   LIG A   1      -7.869   4.468 134.698  0.00  0.00    +0.003 C 
ATOM     16  C   LIG A   1      -9.170   3.994 134.023  0.00  0.00    +0.035 C 
ATOM     17  C   LIG A   1      -9.345   4.402 132.545  0.00  0.00    +0.138 C 
ATOM     18  C   LIG A   1      -8.204   4.014 131.657  0.00  0.00    +0.011 C 
ATOM     19  C   LIG A   1      -8.185   2.887 130.928  0.00  0.00    +0.090 C 
ATOM     20  C   LIG A   1      -7.022   2.372 130.175  0.00  0.00    +0.333 C 
ATOM     21  O   LIG A   1      -7.033   1.240 129.730  0.00  0.00    -0.246 OA
ATOM     22  C   LIG A   1      -3.332   4.933 130.454  0.00  0.00    +0.151 C 
ATOM     23  C   LIG A   1      -2.745   5.091 129.068  0.00  0.00    -0.045 C 
ATOM     24  C   LIG A   1      -2.895   3.888 128.139  0.00  0.00    +0.023 C 
ATOM     25  C   LIG A   1      -2.505   4.197 126.683  0.00  0.00    +0.013 C 
ATOM     26  C   LIG A   1      -2.180   6.268 128.735  0.00  0.00    +0.010 C 
ATOM     27  H   LIG A   1      -4.376   0.084 127.922  0.00  0.00    +0.149 HD
ENDROOT
BRANCH  17  28
ATOM     28  O   LIG A   1      -9.475   5.815 132.438  0.00  0.00    -0.388 OA
ATOM     29  H   LIG A   1      -9.326   6.049 131.506  0.00  0.00    +0.210 HD
ENDBRANCH  17  28
BRANCH  22  30
ATOM     30  O   LIG A   1      -4.459   5.813 130.542  0.00  0.00    -0.387 OA
ATOM     31  H   LIG A   1      -4.793   5.975 129.645  0.00  0.00    +0.210 HD
ENDBRANCH  22  30
BRANCH   4  32
ATOM     32  C   LIG A   1      -6.112   2.220 126.746  0.00  0.00    +0.057 C 
BRANCH  32  33
ATOM     33  C   LIG A   1      -6.102   2.635 125.290  0.00  0.00    -0.046 A 
ATOM     34  C   LIG A   1      -5.487   3.827 124.887  0.00  0.00    +0.003 A 
ATOM     35  C   LIG A   1      -5.553   4.239 123.553  0.00  0.00    +0.000 A 
ATOM     36  C   LIG A   1      -6.247   3.477 122.615  0.00  0.00    +0.000 A 
ATOM     37  C   LIG A   1      -6.848   2.282 123.001  0.00  0.00    +0.000 A 
ATOM     38  C   LIG A   1      -6.755   1.853 124.323  0.00  0.00    +0.003 A 
ENDBRANCH  32  33
ENDBRANCH   4  32
TORSDOF 4
ENDMDL
MODEL 5
REMARK VINA RESULT:      -9.3      3.246      6.838
REMARK  Name = NuBBE_268
REMARK  6 active torsions:
REMARK  status: ('A' for Active; 'I' for Inactive)
REMARK    1  A    between atoms: C_4  and  C_5
REMARK    2  A    between atoms: C_5  and  C_6
REMARK    3  A    between atoms: C_21  and  C_22
REMARK    4  A    between atoms: C_27  and  O_29
REMARK    5  A    between atoms: C_34  and  O_35
REMARK    6  A    between atoms: C_38  and  C_39
REMARK                            x       y       z     vdW  Elec       q    Type
REMARK                         _______ _______ _______ _____ _____    ______ ____
ROOT
ATOM      1  O   LIG A   1      -3.649   2.308 128.672  0.00  0.00    -0.271 OA
ATOM      2  C   LIG A   1      -4.614   1.738 128.192  0.00  0.00    +0.258 C 
ATOM      3  N   LIG A   1      -4.552   0.528 127.528  0.00  0.00    -0.308 N 
ATOM      4  C   LIG A   1      -5.799   0.113 126.943  0.00  0.00    +0.085 C 
ATOM      5  C   LIG A   1      -6.648   1.403 126.973  0.00  0.00    +0.070 C 
ATOM      6  C   LIG A   1      -6.083   2.216 128.195  0.00  0.00    +0.202 C 
ATOM      7  O   LIG A   1      -6.907   1.917 129.352  0.00  0.00    -0.444 OA
ATOM      8  C   LIG A   1      -6.128   3.762 127.962  0.00  0.00    +0.098 C 
ATOM      9  C   LIG A   1      -6.123   4.585 129.242  0.00  0.00    -0.020 C 
ATOM     10  C   LIG A   1      -5.197   5.482 129.614  0.00  0.00    -0.030 C 
ATOM     11  C   LIG A   1      -5.225   6.388 130.826  0.00  0.00    +0.030 C 
ATOM     12  C   LIG A   1      -6.469   6.458 131.756  0.00  0.00    -0.010 C 
ATOM     13  C   LIG A   1      -7.723   6.935 131.014  0.00  0.00    +0.008 C 
ATOM     14  C   LIG A   1      -6.644   5.156 132.570  0.00  0.00    +0.004 C 
ATOM     15  C   LIG A   1      -7.989   5.003 133.295  0.00  0.00    +0.003 C 
ATOM     16  C   LIG A   1      -8.124   3.639 133.999  0.00  0.00    +0.035 C 
ATOM     17  C   LIG A   1      -8.778   2.517 133.165  0.00  0.00    +0.138 C 
ATOM     18  C   LIG A   1      -8.135   2.281 131.833  0.00  0.00    +0.011 C 
ATOM     19  C   LIG A   1      -7.198   1.344 131.621  0.00  0.00    +0.090 C 
ATOM     20  C   LIG A   1      -6.411   1.185 130.380  0.00  0.00    +0.333 C 
ATOM     21  O   LIG A   1      -5.438   0.455 130.361  0.00  0.00    -0.246 OA
ATOM     22  C   LIG A   1      -7.386   4.166 127.152  0.00  0.00    +0.151 C 
ATOM     23  C   LIG A   1      -7.519   3.429 125.836  0.00  0.00    -0.045 C 
ATOM     24  C   LIG A   1      -6.603   2.222 125.651  0.00  0.00    +0.023 C 
ATOM     25  C   LIG A   1      -6.957   1.378 124.413  0.00  0.00    +0.013 C 
ATOM     26  C   LIG A   1      -8.446   3.849 124.952  0.00  0.00    +0.010 C 
ATOM     27  H   LIG A   1      -3.673   0.027 127.469  0.00  0.00    +0.149 HD
ENDROOT
BRANCH  17  28
ATOM     28  O   LIG A   1     -10.141   2.831 132.903  0.00  0.00    -0.388 OA
ATOM     29  H   LIG A   1     -10.155   3.669 132.411  0.00  0.00    +0.210 HD
ENDBRANCH  17  28
BRANCH  22  30
ATOM     30  O   LIG A   1      -8.592   3.940 127.890  0.00  0.00    -0.387 OA
ATOM     31  H   LIG A   1      -8.355   3.648 128.785  0.00  0.00    +0.210 HD
ENDBRANCH  22  30
BRANCH   4  32
ATOM     32  C   LIG A   1      -6.441  -1.097 127.659  0.00  0.00    +0.057 C 
BRANCH  32  33
ATOM     33  C   LIG A   1      -7.126  -2.048 126.701  0.00  0.00    -0.046 A 
ATOM     34  C   LIG A   1      -6.493  -2.460 125.522  0.00  0.00    +0.003 A 
ATOM     35  C   LIG A   1      -7.166  -3.274 124.607  0.00  0.00    +0.000 A 
ATOM     36  C   LIG A   1      -8.480  -3.669 124.851  0.00  0.00    +0.000 A 
ATOM     37  C   LIG A   1      -9.114  -3.279 126.028  0.00  0.00    +0.000 A 
ATOM     38  C   LIG A   1      -8.433  -2.495 126.956  0.00  0.00    +0.003 A 
ENDBRANCH  32  33
ENDBRANCH   4  32
TORSDOF 4
ENDMDL
MODEL 6
REMARK VINA RESULT:      -9.2      3.262      7.303
REMARK  Name = NuBBE_268
REMARK  6 active torsions:
REMARK  status: ('A' for Active; 'I' for Inactive)
REMARK    1  A    between atoms: C_4  and  C_5
REMARK    2  A    between atoms: C_5  and  C_6
REMARK    3  A    between atoms: C_21  and  C_22
REMARK    4  A    between atoms: C_27  and  O_29
REMARK    5  A    between atoms: C_34  and  O_35
REMARK    6  A    between atoms: C_38  and  C_39
REMARK                            x       y       z     vdW  Elec       q    Type
REMARK                         _______ _______ _______ _____ _____    ______ ____
ROOT
ATOM      1  O   LIG A   1      -8.592   3.950 127.583  0.00  0.00    -0.271 OA
ATOM      2  C   LIG A   1      -7.551   3.887 128.214  0.00  0.00    +0.258 C 
ATOM      3  N   LIG A   1      -7.204   4.755 129.231  0.00  0.00    -0.308 N 
ATOM      4  C   LIG A   1      -5.875   4.558 129.745  0.00  0.00    +0.085 C 
ATOM      5  C   LIG A   1      -5.210   3.669 128.670  0.00  0.00    +0.070 C 
ATOM      6  C   LIG A   1      -6.403   2.869 128.030  0.00  0.00    +0.202 C 
ATOM      7  O   LIG A   1      -6.498   1.588 128.706  0.00  0.00    -0.444 OA
ATOM      8  C   LIG A   1      -6.193   2.591 126.505  0.00  0.00    +0.098 C 
ATOM      9  C   LIG A   1      -6.988   1.408 125.972  0.00  0.00    -0.020 C 
ATOM     10  C   LIG A   1      -7.924   1.439 125.012  0.00  0.00    -0.030 C 
ATOM     11  C   LIG A   1      -8.649   0.264 124.392  0.00  0.00    +0.030 C 
ATOM     12  C   LIG A   1      -8.267  -1.202 124.746  0.00  0.00    -0.010 C 
ATOM     13  C   LIG A   1      -6.817  -1.530 124.373  0.00  0.00    +0.008 C 
ATOM     14  C   LIG A   1      -8.669  -1.558 126.195  0.00  0.00    +0.004 C 
ATOM     15  C   LIG A   1      -8.084  -2.869 126.741  0.00  0.00    +0.003 C 
ATOM     16  C   LIG A   1      -8.448  -3.102 128.220  0.00  0.00    +0.035 C 
ATOM     17  C   LIG A   1      -7.435  -2.562 129.252  0.00  0.00    +0.138 C 
ATOM     18  C   LIG A   1      -7.101  -1.112 129.089  0.00  0.00    +0.011 C 
ATOM     19  C   LIG A   1      -7.712  -0.130 129.770  0.00  0.00    +0.090 C 
ATOM     20  C   LIG A   1      -7.544   1.317 129.525  0.00  0.00    +0.333 C 
ATOM     21  O   LIG A   1      -8.301   2.118 130.041  0.00  0.00    -0.246 OA
ATOM     22  C   LIG A   1      -4.698   2.331 126.189  0.00  0.00    +0.151 C 
ATOM     23  C   LIG A   1      -3.780   3.440 126.655  0.00  0.00    -0.045 C 
ATOM     24  C   LIG A   1      -4.397   4.463 127.607  0.00  0.00    +0.023 C 
ATOM     25  C   LIG A   1      -3.358   5.409 128.234  0.00  0.00    +0.013 C 
ATOM     26  C   LIG A   1      -2.496   3.430 126.247  0.00  0.00    +0.010 C 
ATOM     27  H   LIG A   1      -7.859   5.466 129.535  0.00  0.00    +0.149 HD
ENDROOT
BRANCH  17  28
ATOM     28  O   LIG A   1      -6.207  -3.272 129.153  0.00  0.00    -0.388 OA
ATOM     29  H   LIG A   1      -5.612  -2.919 129.835  0.00  0.00    +0.210 HD
ENDBRANCH  17  28
BRANCH  22  30
ATOM     30  O   LIG A   1      -4.231   1.113 126.782  0.00  0.00    -0.387 OA
ATOM     31  H   LIG A   1      -4.022   0.486 126.071  0.00  0.00    +0.210 HD
ENDBRANCH  22  30
BRANCH   4  32
ATOM     32  C   LIG A   1      -5.850   3.968 131.173  0.00  0.00    +0.057 C 
BRANCH  32  33
ATOM     33  C   LIG A   1      -4.482   4.050 131.817  0.00  0.00    -0.046 A 
ATOM     34  C   LIG A   1      -3.731   5.231 131.761  0.00  0.00    +0.003 A 
ATOM     35  C   LIG A   1      -2.438   5.270 132.288  0.00  0.00    +0.000 A 
ATOM     36  C   LIG A   1      -1.877   4.130 132.860  0.00  0.00    +0.000 A 
ATOM     37  C   LIG A   1      -2.620   2.955 132.936  0.00  0.00    +0.000 A 
ATOM     38  C   LIG A   1      -3.921   2.923 132.440  0.00  0.00    +0.003 A 
ENDBRANCH  32  33
ENDBRANCH   4  32
TORSDOF 4
ENDMDL
MODEL 7
REMARK VINA RESULT:      -9.2      3.428      6.478
REMARK  Name = NuBBE_268
REMARK  6 active torsions:
REMARK  status: ('A' for Active; 'I' for Inactive)
REMARK    1  A    between atoms: C_4  and  C_5
REMARK    2  A    between atoms: C_5  and  C_6
REMARK    3  A    between atoms: C_21  and  C_22
REMARK    4  A    between atoms: C_27  and  O_29
REMARK    5  A    between atoms: C_34  and  O_35
REMARK    6  A    between atoms: C_38  and  C_39
REMARK                            x       y       z     vdW  Elec       q    Type
REMARK                         _______ _______ _______ _____ _____    ______ ____
ROOT
ATOM      1  O   LIG A   1      -8.998   3.040 128.775  0.00  0.00    -0.271 OA
ATOM      2  C   LIG A   1      -8.144   2.294 128.328  0.00  0.00    +0.258 C 
ATOM      3  N   LIG A   1      -8.355   1.402 127.295  0.00  0.00    -0.308 N 
ATOM      4  C   LIG A   1      -7.234   0.541 127.023  0.00  0.00    +0.085 C 
ATOM      5  C   LIG A   1      -6.347   0.712 128.276  0.00  0.00    +0.070 C 
ATOM      6  C   LIG A   1      -6.678   2.158 128.797  0.00  0.00    +0.202 C 
ATOM      7  O   LIG A   1      -5.688   3.070 128.251  0.00  0.00    -0.444 OA
ATOM      8  C   LIG A   1      -6.618   2.266 130.356  0.00  0.00    +0.098 C 
ATOM      9  C   LIG A   1      -6.387   3.677 130.875  0.00  0.00    -0.020 C 
ATOM     10  C   LIG A   1      -7.208   4.384 131.666  0.00  0.00    -0.030 C 
ATOM     11  C   LIG A   1      -6.954   5.743 132.281  0.00  0.00    +0.030 C 
ATOM     12  C   LIG A   1      -5.573   6.448 132.146  0.00  0.00    -0.010 C 
ATOM     13  C   LIG A   1      -4.440   5.630 132.777  0.00  0.00    +0.008 C 
ATOM     14  C   LIG A   1      -5.315   6.916 130.696  0.00  0.00    +0.004 C 
ATOM     15  C   LIG A   1      -3.877   7.357 130.389  0.00  0.00    +0.003 C 
ATOM     16  C   LIG A   1      -3.677   7.713 128.903  0.00  0.00    +0.035 C 
ATOM     17  C   LIG A   1      -3.205   6.557 127.995  0.00  0.00    +0.138 C 
ATOM     18  C   LIG A   1      -4.063   5.332 128.059  0.00  0.00    +0.011 C 
ATOM     19  C   LIG A   1      -5.055   5.078 127.190  0.00  0.00    +0.090 C 
ATOM     20  C   LIG A   1      -6.036   3.980 127.308  0.00  0.00    +0.333 C 
ATOM     21  O   LIG A   1      -7.025   3.963 126.598  0.00  0.00    -0.246 OA
ATOM     22  C   LIG A   1      -5.494   1.366 130.932  0.00  0.00    +0.151 C 
ATOM     23  C   LIG A   1      -5.601  -0.082 130.505  0.00  0.00    -0.045 C 
ATOM     24  C   LIG A   1      -6.577  -0.373 129.367  0.00  0.00    +0.023 C 
ATOM     25  C   LIG A   1      -6.457  -1.806 128.819  0.00  0.00    +0.013 C 
ATOM     26  C   LIG A   1      -4.816  -0.994 131.112  0.00  0.00    +0.010 C 
ATOM     27  H   LIG A   1      -9.249   1.381 126.818  0.00  0.00    +0.149 HD
ENDROOT
BRANCH  17  28
ATOM     28  O   LIG A   1      -1.893   6.149 128.362  0.00  0.00    -0.388 OA
ATOM     29  H   LIG A   1      -1.696   6.550 129.226  0.00  0.00    +0.210 HD
ENDBRANCH  17  28
BRANCH  22  30
ATOM     30  O   LIG A   1      -4.193   1.827 130.550  0.00  0.00    -0.387 OA
ATOM     31  H   LIG A   1      -3.605   1.059 130.473  0.00  0.00    +0.210 HD
ENDBRANCH  22  30
BRANCH   4  32
ATOM     32  C   LIG A   1      -6.527   0.859 125.686  0.00  0.00    +0.057 C 
BRANCH  32  33
ATOM     33  C   LIG A   1      -6.320  -0.370 124.826  0.00  0.00    -0.046 A 
ATOM     34  C   LIG A   1      -5.524  -1.432 125.272  0.00  0.00    +0.003 A 
ATOM     35  C   LIG A   1      -5.276  -2.526 124.438  0.00  0.00    +0.000 A 
ATOM     36  C   LIG A   1      -5.804  -2.561 123.149  0.00  0.00    +0.000 A 
ATOM     37  C   LIG A   1      -6.610  -1.519 122.701  0.00  0.00    +0.000 A 
ATOM     38  C   LIG A   1      -6.886  -0.444 123.543  0.00  0.00    +0.003 A 
ENDBRANCH  32  33
ENDBRANCH   4  32
TORSDOF 4
ENDMDL
MODEL 8
REMARK VINA RESULT:      -9.2      3.105      6.069
REMARK  Name = NuBBE_268
REMARK  6 active torsions:
REMARK  status: ('A' for Active; 'I' for Inactive)
REMARK    1  A    between atoms: C_4  and  C_5
REMARK    2  A    between atoms: C_5  and  C_6
REMARK    3  A    between atoms: C_21  and  C_22
REMARK    4  A    between atoms: C_27  and  O_29
REMARK    5  A    between atoms: C_34  and  O_35
REMARK    6  A    between atoms: C_38  and  C_39
REMARK                            x       y       z     vdW  Elec       q    Type
REMARK                         _______ _______ _______ _____ _____    ______ ____
ROOT
ATOM      1  O   LIG A   1      -8.386   0.836 128.637  0.00  0.00    -0.271 OA
ATOM      2  C   LIG A   1      -7.631  -0.073 128.335  0.00  0.00    +0.258 C 
ATOM      3  N   LIG A   1      -7.999  -1.171 127.583  0.00  0.00    -0.308 N 
ATOM      4  C   LIG A   1      -6.970  -2.170 127.459  0.00  0.00    +0.085 C 
ATOM      5  C   LIG A   1      -5.961  -1.774 128.560  0.00  0.00    +0.070 C 
ATOM      6  C   LIG A   1      -6.141  -0.219 128.717  0.00  0.00    +0.202 C 
ATOM      7  O   LIG A   1      -5.145   0.434 127.885  0.00  0.00    -0.444 OA
ATOM      8  C   LIG A   1      -5.930   0.267 130.188  0.00  0.00    +0.098 C 
ATOM      9  C   LIG A   1      -5.554   1.736 130.310  0.00  0.00    -0.020 C 
ATOM     10  C   LIG A   1      -6.248   2.689 130.951  0.00  0.00    -0.030 C 
ATOM     11  C   LIG A   1      -5.843   4.130 131.178  0.00  0.00    +0.030 C 
ATOM     12  C   LIG A   1      -4.436   4.650 130.768  0.00  0.00    -0.010 C 
ATOM     13  C   LIG A   1      -3.309   3.916 131.505  0.00  0.00    +0.008 C 
ATOM     14  C   LIG A   1      -4.281   4.717 129.232  0.00  0.00    +0.004 C 
ATOM     15  C   LIG A   1      -2.850   4.936 128.720  0.00  0.00    +0.003 C 
ATOM     16  C   LIG A   1      -2.764   4.891 127.182  0.00  0.00    +0.035 C 
ATOM     17  C   LIG A   1      -2.461   3.508 126.568  0.00  0.00    +0.138 C 
ATOM     18  C   LIG A   1      -3.392   2.420 127.005  0.00  0.00    +0.011 C 
ATOM     19  C   LIG A   1      -4.475   2.048 126.304  0.00  0.00    +0.090 C 
ATOM     20  C   LIG A   1      -5.515   1.108 126.769  0.00  0.00    +0.333 C 
ATOM     21  O   LIG A   1      -6.564   1.004 126.160  0.00  0.00    -0.246 OA
ATOM     22  C   LIG A   1      -4.823  -0.559 130.892  0.00  0.00    +0.151 C 
ATOM     23  C   LIG A   1      -5.069  -2.052 130.859  0.00  0.00    -0.045 C 
ATOM     24  C   LIG A   1      -6.164  -2.527 129.906  0.00  0.00    +0.023 C 
ATOM     25  C   LIG A   1      -6.195  -4.057 129.735  0.00  0.00    +0.013 C 
ATOM     26  C   LIG A   1      -4.297  -2.852 131.620  0.00  0.00    +0.010 C 
ATOM     27  H   LIG A   1      -8.932  -1.229 127.193  0.00  0.00    +0.149 HD
ENDROOT
BRANCH  17  28
ATOM     28  O   LIG A   1      -1.151   3.086 126.932  0.00  0.00    -0.388 OA
ATOM     29  H   LIG A   1      -0.994   3.386 127.843  0.00  0.00    +0.210 HD
ENDBRANCH  17  28
BRANCH  22  30
ATOM     30  O   LIG A   1      -3.534  -0.327 130.312  0.00  0.00    -0.387 OA
ATOM     31  H   LIG A   1      -3.002   0.187 130.941  0.00  0.00    +0.210 HD
ENDBRANCH  22  30
BRANCH   4  32
ATOM     32  C   LIG A   1      -6.370  -2.261 126.038  0.00  0.00    +0.057 C 
BRANCH  32  33
ATOM     33  C   LIG A   1      -7.416  -2.532 124.977  0.00  0.00    -0.046 A 
ATOM     34  C   LIG A   1      -7.488  -1.744 123.822  0.00  0.00    +0.003 A 
ATOM     35  C   LIG A   1      -8.506  -1.952 122.888  0.00  0.00    +0.000 A 
ATOM     36  C   LIG A   1      -9.470  -2.935 123.107  0.00  0.00    +0.000 A 
ATOM     37  C   LIG A   1      -9.398  -3.735 124.243  0.00  0.00    +0.000 A 
ATOM     38  C   LIG A   1      -8.365  -3.551 125.159  0.00  0.00    +0.003 A 
ENDBRANCH  32  33
ENDBRANCH   4  32
TORSDOF 4
ENDMDL
MODEL 9
REMARK VINA RESULT:      -9.0      3.254      7.635
REMARK  Name = NuBBE_268
REMARK  6 active torsions:
REMARK  status: ('A' for Active; 'I' for Inactive)
REMARK    1  A    between atoms: C_4  and  C_5
REMARK    2  A    between atoms: C_5  and  C_6
REMARK    3  A    between atoms: C_21  and  C_22
REMARK    4  A    between atoms: C_27  and  O_29
REMARK    5  A    between atoms: C_34  and  O_35
REMARK    6  A    between atoms: C_38  and  C_39
REMARK                            x       y       z     vdW  Elec       q    Type
REMARK                         _______ _______ _______ _____ _____    ______ ____
ROOT
ATOM      1  O   LIG A   1      -8.916   3.367 128.387  0.00  0.00    -0.271 OA
ATOM      2  C   LIG A   1      -7.865   3.247 128.994  0.00  0.00    +0.258 C 
ATOM      3  N   LIG A   1      -7.498   4.023 130.075  0.00  0.00    -0.308 N 
ATOM      4  C   LIG A   1      -6.161   3.779 130.548  0.00  0.00    +0.085 C 
ATOM      5  C   LIG A   1      -5.518   2.983 129.390  0.00  0.00    +0.070 C 
ATOM      6  C   LIG A   1      -6.725   2.245 128.704  0.00  0.00    +0.202 C 
ATOM      7  O   LIG A   1      -6.815   0.910 129.269  0.00  0.00    -0.444 OA
ATOM      8  C   LIG A   1      -6.542   2.098 127.158  0.00  0.00    +0.098 C 
ATOM      9  C   LIG A   1      -7.350   0.966 126.539  0.00  0.00    -0.020 C 
ATOM     10  C   LIG A   1      -8.302   1.083 125.600  0.00  0.00    -0.030 C 
ATOM     11  C   LIG A   1      -9.042  -0.032 124.894  0.00  0.00    +0.030 C 
ATOM     12  C   LIG A   1      -8.662  -1.524 125.116  0.00  0.00    -0.010 C 
ATOM     13  C   LIG A   1      -7.219  -1.824 124.691  0.00  0.00    +0.008 C 
ATOM     14  C   LIG A   1      -9.041  -2.002 126.535  0.00  0.00    +0.004 C 
ATOM     15  C   LIG A   1      -8.454  -3.357 126.957  0.00  0.00    +0.003 C 
ATOM     16  C   LIG A   1      -8.794  -3.714 128.417  0.00  0.00    +0.035 C 
ATOM     17  C   LIG A   1      -7.762  -3.268 129.474  0.00  0.00    +0.138 C 
ATOM     18  C   LIG A   1      -7.423  -1.810 129.430  0.00  0.00    +0.011 C 
ATOM     19  C   LIG A   1      -8.019  -0.889 130.203  0.00  0.00    +0.090 C 
ATOM     20  C   LIG A   1      -7.848   0.574 130.080  0.00  0.00    +0.333 C 
ATOM     21  O   LIG A   1      -8.593   1.330 130.675  0.00  0.00    -0.246 OA
ATOM     22  C   LIG A   1      -5.053   1.860 126.795  0.00  0.00    +0.151 C 
ATOM     23  C   LIG A   1      -4.122   2.923 127.339  0.00  0.00    -0.045 C 
ATOM     24  C   LIG A   1      -4.719   3.862 128.385  0.00  0.00    +0.023 C 
ATOM     25  C   LIG A   1      -3.666   4.748 129.073  0.00  0.00    +0.013 C 
ATOM     26  C   LIG A   1      -2.845   2.944 126.910  0.00  0.00    +0.010 C 
ATOM     27  H   LIG A   1      -8.144   4.708 130.450  0.00  0.00    +0.149 HD
ENDROOT
BRANCH  17  28
ATOM     28  O   LIG A   1      -6.539  -3.971 129.293  0.00  0.00    -0.388 OA
ATOM     29  H   LIG A   1      -5.825  -3.399 129.623  0.00  0.00    +0.210 HD
ENDBRANCH  17  28
BRANCH  22  30
ATOM     30  O   LIG A   1      -4.582   0.595 127.274  0.00  0.00    -0.387 OA
ATOM     31  H   LIG A   1      -5.292   0.177 127.788  0.00  0.00    +0.210 HD
ENDBRANCH  22  30
BRANCH   4  32
ATOM     32  C   LIG A   1      -6.115   3.069 131.920  0.00  0.00    +0.057 C 
BRANCH  32  33
ATOM     33  C   LIG A   1      -6.679   3.919 133.038  0.00  0.00    -0.046 A 
ATOM     34  C   LIG A   1      -5.949   4.993 133.562  0.00  0.00    +0.003 A 
ATOM     35  C   LIG A   1      -6.444   5.721 134.647  0.00  0.00    +0.000 A 
ATOM     36  C   LIG A   1      -7.662   5.374 135.229  0.00  0.00    +0.000 A 
ATOM     37  C   LIG A   1      -8.404   4.319 134.706  0.00  0.00    +0.000 A 
ATOM     38  C   LIG A   1      -7.927   3.613 133.604  0.00  0.00    +0.003 A 
ENDBRANCH  32  33
ENDBRANCH   4  32
TORSDOF 4
ENDMDL
