MODEL 1
REMARK VINA RESULT:      -9.9      0.000      0.000
REMARK  Name = NuBBE_416
REMARK  8 active torsions:
REMARK  status: ('A' for Active; 'I' for Inactive)
REMARK    1  A    between atoms: C_3  and  C_28
REMARK    2  A    between atoms: C_8  and  C_9
REMARK    3  A    between atoms: C_12  and  C_13
REMARK    4  A    between atoms: C_14  and  C_15
REMARK    5  A    between atoms: C_18  and  C_19
REMARK    6  A    between atoms: C_23  and  C_24
REMARK    7  A    between atoms: C_23  and  C_25
REMARK    8  A    between atoms: C_29  and  C_31
REMARK                            x       y       z     vdW  Elec       q    Type
REMARK                         _______ _______ _______ _____ _____    ______ ____
ROOT
ATOM      1  C   LIG A   1      -8.246  -0.992 125.417  0.00  0.00    +0.002 C 
ATOM      2  C   LIG A   1      -8.031  -1.165 123.793  0.00  0.00    -0.019 C 
ATOM      3  C   LIG A   1      -6.754  -0.412 123.446  0.00  0.00    +0.008 C 
ATOM      4  C   LIG A   1      -6.985   1.069 123.673  0.00  0.00    +0.005 C 
ATOM      5  C   LIG A   1      -7.171   1.359 125.177  0.00  0.00    +0.002 C 
ATOM      6  C   LIG A   1      -8.327   0.536 125.992  0.00  0.00    -0.025 C 
ATOM      7  C   LIG A   1      -9.822   0.740 126.442  0.00  0.00    +0.012 C 
ATOM      8  C   LIG A   1      -7.788   0.917 127.404  0.00  0.00    +0.008 C 
ATOM      9  C   LIG A   1      -7.971   2.615 127.636  0.00  0.00    +0.008 C 
ATOM     10  C   LIG A   1      -6.570   3.186 127.323  0.00  0.00    -0.023 C 
ATOM     11  C   LIG A   1      -6.114   2.504 128.718  0.00  0.00    +0.012 C 
ATOM     12  C   LIG A   1      -6.803   2.868 125.556  0.00  0.00    -0.023 C 
ATOM     13  C   LIG A   1      -8.044   3.675 124.956  0.00  0.00    +0.012 C 
ATOM     14  C   LIG A   1      -5.571   3.403 124.621  0.00  0.00    +0.008 C 
ATOM     15  C   LIG A   1      -4.497   4.249 125.321  0.00  0.00    +0.007 C 
ATOM     16  C   LIG A   1      -4.426   3.631 126.745  0.00  0.00    -0.029 C 
ATOM     17  C   LIG A   1      -4.122   2.106 126.501  0.00  0.00    +0.011 C 
ATOM     18  C   LIG A   1      -5.615   4.544 127.193  0.00  0.00    +0.002 C 
ATOM     19  C   LIG A   1      -4.205   5.800 127.569  0.00  0.00    +0.011 C 
ATOM     20  C   LIG A   1      -3.440   5.799 129.111  0.00  0.00    -0.035 C 
ATOM     21  C   LIG A   1      -2.982   7.212 129.396  0.00  0.00    +0.011 C 
ATOM     22  C   LIG A   1      -2.642   4.972 130.249  0.00  0.00    +0.011 C 
ATOM     23  C   LIG A   1      -4.552   4.875 129.319  0.00  0.00    +0.007 C 
ATOM     24  C   LIG A   1      -3.757   3.739 128.181  0.00  0.00    +0.007 C 
ATOM     25  C   LIG A   1      -9.100  -0.626 122.776  0.00  0.00    +0.012 C 
ATOM     26  C   LIG A   1      -7.881  -2.676 123.412  0.00  0.00    +0.058 C 
ATOM     27  C   LIG A   1      -6.608  -3.368 123.899  0.00  0.00    +0.016 C 
ATOM     28  C   LIG A   1      -9.143  -3.354 123.947  0.00  0.00    +0.137 C 
ATOM     29  C   LIG A   1      -9.185  -3.407 125.463  0.00  0.00    +0.075 C 
ATOM     30  C   LIG A   1      -9.343  -1.973 125.942  0.00  0.00    +0.012 C 
ATOM     31  O   LIG A   1     -10.067  -3.629 123.274  0.00  0.00    -0.297 OA
ENDROOT
TORSDOF 0
ENDMDL
MODEL 2
REMARK VINA RESULT:      -9.6      5.290      7.958
REMARK  Name = NuBBE_416
REMARK  8 active torsions:
REMARK  status: ('A' for Active; 'I' for Inactive)
REMARK    1  A    between atoms: C_3  and  C_28
REMARK    2  A    between atoms: C_8  and  C_9
REMARK    3  A    between atoms: C_12  and  C_13
REMARK    4  A    between atoms: C_14  and  C_15
REMARK    5  A    between atoms: C_18  and  C_19
REMARK    6  A    between atoms: C_23  and  C_24
REMARK    7  A    between atoms: C_23  and  C_25
REMARK    8  A    between atoms: C_29  and  C_31
REMARK                            x       y       z     vdW  Elec       q    Type
REMARK                         _______ _______ _______ _____ _____    ______ ____
ROOT
ATOM      1  C   LIG A   1      -6.860   0.604 132.294  0.00  0.00    +0.002 C 
ATOM      2  C   LIG A   1      -5.330   0.982 132.771  0.00  0.00    -0.019 C 
ATOM      3  C   LIG A   1      -5.338   2.468 133.104  0.00  0.00    +0.008 C 
ATOM      4  C   LIG A   1      -5.574   3.252 131.827  0.00  0.00    +0.005 C 
ATOM      5  C   LIG A   1      -7.002   2.997 131.298  0.00  0.00    +0.002 C 
ATOM      6  C   LIG A   1      -7.472   1.452 131.037  0.00  0.00    -0.025 C 
ATOM      7  C   LIG A   1      -7.557   0.432 129.840  0.00  0.00    +0.012 C 
ATOM      8  C   LIG A   1      -8.989   1.793 130.931  0.00  0.00    +0.008 C 
ATOM      9  C   LIG A   1      -9.252   2.754 129.526  0.00  0.00    +0.008 C 
ATOM     10  C   LIG A   1      -9.315   4.199 130.070  0.00  0.00    -0.023 C 
ATOM     11  C   LIG A   1     -10.744   3.771 130.698  0.00  0.00    +0.012 C 
ATOM     12  C   LIG A   1      -7.530   4.191 130.377  0.00  0.00    -0.023 C 
ATOM     13  C   LIG A   1      -6.688   3.979 129.036  0.00  0.00    +0.012 C 
ATOM     14  C   LIG A   1      -6.948   5.623 130.915  0.00  0.00    +0.008 C 
ATOM     15  C   LIG A   1      -7.927   6.807 130.910  0.00  0.00    +0.007 C 
ATOM     16  C   LIG A   1      -9.294   6.142 131.233  0.00  0.00    -0.029 C 
ATOM     17  C   LIG A   1      -9.056   5.385 132.592  0.00  0.00    +0.011 C 
ATOM     18  C   LIG A   1      -9.486   5.817 129.714  0.00  0.00    +0.002 C 
ATOM     19  C   LIG A   1     -10.252   7.583 129.669  0.00  0.00    +0.011 C 
ATOM     20  C   LIG A   1     -11.930   7.800 129.979  0.00  0.00    -0.035 C 
ATOM     21  C   LIG A   1     -12.385   9.014 129.201  0.00  0.00    +0.011 C 
ATOM     22  C   LIG A   1     -13.186   7.572 130.973  0.00  0.00    +0.011 C 
ATOM     23  C   LIG A   1     -11.818   6.346 129.900  0.00  0.00    +0.007 C 
ATOM     24  C   LIG A   1     -10.852   6.387 131.411  0.00  0.00    +0.007 C 
ATOM     25  C   LIG A   1      -4.112   0.800 131.796  0.00  0.00    +0.012 C 
ATOM     26  C   LIG A   1      -4.923   0.155 134.036  0.00  0.00    +0.058 C 
ATOM     27  C   LIG A   1      -5.669   0.491 135.327  0.00  0.00    +0.016 C 
ATOM     28  C   LIG A   1      -5.104  -1.310 133.635  0.00  0.00    +0.137 C 
ATOM     29  C   LIG A   1      -6.560  -1.695 133.453  0.00  0.00    +0.075 C 
ATOM     30  C   LIG A   1      -7.056  -0.945 132.227  0.00  0.00    +0.012 C 
ATOM     31  O   LIG A   1      -4.215  -2.009 133.313  0.00  0.00    -0.297 OA
ENDROOT
TORSDOF 0
ENDMDL
MODEL 3
REMARK VINA RESULT:      -9.5      4.429      5.849
REMARK  Name = NuBBE_416
REMARK  8 active torsions:
REMARK  status: ('A' for Active; 'I' for Inactive)
REMARK    1  A    between atoms: C_3  and  C_28
REMARK    2  A    between atoms: C_8  and  C_9
REMARK    3  A    between atoms: C_12  and  C_13
REMARK    4  A    between atoms: C_14  and  C_15
REMARK    5  A    between atoms: C_18  and  C_19
REMARK    6  A    between atoms: C_23  and  C_24
REMARK    7  A    between atoms: C_23  and  C_25
REMARK    8  A    between atoms: C_29  and  C_31
REMARK                            x       y       z     vdW  Elec       q    Type
REMARK                         _______ _______ _______ _____ _____    ______ ____
ROOT
ATOM      1  C   LIG A   1      -7.584  -2.543 126.744  0.00  0.00    +0.002 C 
ATOM      2  C   LIG A   1      -7.924  -1.129 125.968  0.00  0.00    -0.019 C 
ATOM      3  C   LIG A   1      -7.010  -0.075 126.578  0.00  0.00    +0.008 C 
ATOM      4  C   LIG A   1      -7.415   0.144 128.023  0.00  0.00    +0.005 C 
ATOM      5  C   LIG A   1      -7.113  -1.117 128.861  0.00  0.00    +0.002 C 
ATOM      6  C   LIG A   1      -7.739  -2.547 128.371  0.00  0.00    -0.025 C 
ATOM      7  C   LIG A   1      -8.992  -3.451 128.674  0.00  0.00    +0.012 C 
ATOM      8  C   LIG A   1      -6.820  -3.413 129.285  0.00  0.00    +0.008 C 
ATOM      9  C   LIG A   1      -7.219  -3.107 130.933  0.00  0.00    +0.008 C 
ATOM     10  C   LIG A   1      -6.146  -2.094 131.394  0.00  0.00    -0.023 C 
ATOM     11  C   LIG A   1      -5.114  -3.338 131.318  0.00  0.00    +0.012 C 
ATOM     12  C   LIG A   1      -6.921  -0.784 130.412  0.00  0.00    -0.023 C 
ATOM     13  C   LIG A   1      -8.419  -0.485 130.879  0.00  0.00    +0.012 C 
ATOM     14  C   LIG A   1      -6.214   0.681 130.595  0.00  0.00    +0.008 C 
ATOM     15  C   LIG A   1      -5.139   0.793 131.685  0.00  0.00    +0.007 C 
ATOM     16  C   LIG A   1      -4.461  -0.606 131.664  0.00  0.00    -0.029 C 
ATOM     17  C   LIG A   1      -3.987  -0.795 130.175  0.00  0.00    +0.011 C 
ATOM     18  C   LIG A   1      -5.564  -1.146 132.634  0.00  0.00    +0.002 C 
ATOM     19  C   LIG A   1      -4.369  -0.487 133.991  0.00  0.00    +0.011 C 
ATOM     20  C   LIG A   1      -3.127  -1.504 134.611  0.00  0.00    -0.035 C 
ATOM     21  C   LIG A   1      -2.867  -1.087 136.041  0.00  0.00    +0.011 C 
ATOM     22  C   LIG A   1      -1.843  -2.443 134.316  0.00  0.00    +0.011 C 
ATOM     23  C   LIG A   1      -3.906  -2.432 133.796  0.00  0.00    +0.007 C 
ATOM     24  C   LIG A   1      -3.364  -1.533 132.341  0.00  0.00    +0.007 C 
ATOM     25  C   LIG A   1      -9.360  -0.497 126.034  0.00  0.00    +0.012 C 
ATOM     26  C   LIG A   1      -7.641  -1.257 124.434  0.00  0.00    +0.058 C 
ATOM     27  C   LIG A   1      -6.174  -1.408 124.031  0.00  0.00    +0.016 C 
ATOM     28  C   LIG A   1      -8.488  -2.441 123.965  0.00  0.00    +0.137 C 
ATOM     29  C   LIG A   1      -7.986  -3.771 124.497  0.00  0.00    +0.075 C 
ATOM     30  C   LIG A   1      -8.228  -3.756 125.998  0.00  0.00    +0.012 C 
ATOM     31  O   LIG A   1      -9.522  -2.322 123.418  0.00  0.00    -0.297 OA
ENDROOT
TORSDOF 0
ENDMDL
MODEL 4
REMARK VINA RESULT:      -9.1      3.255      8.391
REMARK  Name = NuBBE_416
REMARK  8 active torsions:
REMARK  status: ('A' for Active; 'I' for Inactive)
REMARK    1  A    between atoms: C_3  and  C_28
REMARK    2  A    between atoms: C_8  and  C_9
REMARK    3  A    between atoms: C_12  and  C_13
REMARK    4  A    between atoms: C_14  and  C_15
REMARK    5  A    between atoms: C_18  and  C_19
REMARK    6  A    between atoms: C_23  and  C_24
REMARK    7  A    between atoms: C_23  and  C_25
REMARK    8  A    between atoms: C_29  and  C_31
REMARK                            x       y       z     vdW  Elec       q    Type
REMARK                         _______ _______ _______ _____ _____    ______ ____
ROOT
ATOM      1  C   LIG A   1      -5.451   4.385 129.754  0.00  0.00    +0.002 C 
ATOM      2  C   LIG A   1      -3.971   4.021 130.380  0.00  0.00    -0.019 C 
ATOM      3  C   LIG A   1      -3.402   2.905 129.515  0.00  0.00    +0.008 C 
ATOM      4  C   LIG A   1      -4.245   1.659 129.709  0.00  0.00    +0.005 C 
ATOM      5  C   LIG A   1      -5.659   1.874 129.128  0.00  0.00    +0.002 C 
ATOM      6  C   LIG A   1      -6.528   3.160 129.647  0.00  0.00    -0.025 C 
ATOM      7  C   LIG A   1      -7.638   3.477 130.719  0.00  0.00    +0.012 C 
ATOM      8  C   LIG A   1      -7.578   3.082 128.497  0.00  0.00    +0.008 C 
ATOM      9  C   LIG A   1      -8.485   1.627 128.664  0.00  0.00    +0.008 C 
ATOM     10  C   LIG A   1      -7.821   0.656 127.661  0.00  0.00    -0.023 C 
ATOM     11  C   LIG A   1      -8.494   1.576 126.512  0.00  0.00    +0.012 C 
ATOM     12  C   LIG A   1      -6.370   0.498 128.734  0.00  0.00    -0.023 C 
ATOM     13  C   LIG A   1      -6.739  -0.110 130.164  0.00  0.00    +0.012 C 
ATOM     14  C   LIG A   1      -5.262  -0.576 128.189  0.00  0.00    +0.008 C 
ATOM     15  C   LIG A   1      -5.669  -1.425 126.975  0.00  0.00    +0.007 C 
ATOM     16  C   LIG A   1      -6.561  -0.459 126.146  0.00  0.00    -0.029 C 
ATOM     17  C   LIG A   1      -5.654   0.802 125.895  0.00  0.00    +0.011 C 
ATOM     18  C   LIG A   1      -7.799  -0.875 127.008  0.00  0.00    +0.002 C 
ATOM     19  C   LIG A   1      -7.947  -2.281 125.701  0.00  0.00    +0.011 C 
ATOM     20  C   LIG A   1      -8.857  -2.025 124.263  0.00  0.00    -0.035 C 
ATOM     21  C   LIG A   1      -9.415  -3.363 123.831  0.00  0.00    +0.011 C 
ATOM     22  C   LIG A   1      -9.115  -1.132 122.939  0.00  0.00    +0.011 C 
ATOM     23  C   LIG A   1      -9.175  -0.833 125.044  0.00  0.00    +0.007 C 
ATOM     24  C   LIG A   1      -7.469  -0.312 124.853  0.00  0.00    +0.007 C 
ATOM     25  C   LIG A   1      -3.824   3.497 131.854  0.00  0.00    +0.012 C 
ATOM     26  C   LIG A   1      -3.026   5.268 130.332  0.00  0.00    +0.058 C 
ATOM     27  C   LIG A   1      -2.594   5.730 128.940  0.00  0.00    +0.016 C 
ATOM     28  C   LIG A   1      -3.770   6.367 131.093  0.00  0.00    +0.137 C 
ATOM     29  C   LIG A   1      -4.999   6.865 130.357  0.00  0.00    +0.075 C 
ATOM     30  C   LIG A   1      -5.998   5.718 130.358  0.00  0.00    +0.012 C 
ATOM     31  O   LIG A   1      -3.532   6.657 132.208  0.00  0.00    -0.297 OA
ENDROOT
TORSDOF 0
ENDMDL
MODEL 5
REMARK VINA RESULT:      -9.0      1.592      2.428
REMARK  Name = NuBBE_416
REMARK  8 active torsions:
REMARK  status: ('A' for Active; 'I' for Inactive)
REMARK    1  A    between atoms: C_3  and  C_28
REMARK    2  A    between atoms: C_8  and  C_9
REMARK    3  A    between atoms: C_12  and  C_13
REMARK    4  A    between atoms: C_14  and  C_15
REMARK    5  A    between atoms: C_18  and  C_19
REMARK    6  A    between atoms: C_23  and  C_24
REMARK    7  A    between atoms: C_23  and  C_25
REMARK    8  A    between atoms: C_29  and  C_31
REMARK                            x       y       z     vdW  Elec       q    Type
REMARK                         _______ _______ _______ _____ _____    ______ ____
ROOT
ATOM      1  C   LIG A   1      -7.780   0.135 126.163  0.00  0.00    +0.002 C 
ATOM      2  C   LIG A   1      -6.698  -0.867 125.427  0.00  0.00    -0.019 C 
ATOM      3  C   LIG A   1      -5.371  -0.669 126.148  0.00  0.00    +0.008 C 
ATOM      4  C   LIG A   1      -4.875   0.739 125.878  0.00  0.00    +0.005 C 
ATOM      5  C   LIG A   1      -5.804   1.772 126.551  0.00  0.00    +0.002 C 
ATOM      6  C   LIG A   1      -7.402   1.724 126.207  0.00  0.00    -0.025 C 
ATOM      7  C   LIG A   1      -8.419   2.428 125.232  0.00  0.00    +0.012 C 
ATOM      8  C   LIG A   1      -7.820   2.639 127.398  0.00  0.00    +0.008 C 
ATOM      9  C   LIG A   1      -7.189   4.221 127.138  0.00  0.00    +0.008 C 
ATOM     10  C   LIG A   1      -5.910   4.258 128.005  0.00  0.00    -0.023 C 
ATOM     11  C   LIG A   1      -6.916   4.287 129.272  0.00  0.00    +0.012 C 
ATOM     12  C   LIG A   1      -5.060   3.155 126.847  0.00  0.00    -0.023 C 
ATOM     13  C   LIG A   1      -4.940   3.790 125.386  0.00  0.00    +0.012 C 
ATOM     14  C   LIG A   1      -3.490   2.886 127.225  0.00  0.00    +0.008 C 
ATOM     15  C   LIG A   1      -2.907   3.727 128.370  0.00  0.00    +0.007 C 
ATOM     16  C   LIG A   1      -4.112   3.903 129.335  0.00  0.00    -0.029 C 
ATOM     17  C   LIG A   1      -4.578   2.435 129.660  0.00  0.00    +0.011 C 
ATOM     18  C   LIG A   1      -4.588   5.140 128.503  0.00  0.00    +0.002 C 
ATOM     19  C   LIG A   1      -3.394   6.095 129.674  0.00  0.00    +0.011 C 
ATOM     20  C   LIG A   1      -3.969   6.707 131.176  0.00  0.00    -0.035 C 
ATOM     21  C   LIG A   1      -3.164   7.944 131.504  0.00  0.00    +0.011 C 
ATOM     22  C   LIG A   1      -4.694   6.416 132.592  0.00  0.00    +0.011 C 
ATOM     23  C   LIG A   1      -5.203   6.262 130.532  0.00  0.00    +0.007 C 
ATOM     24  C   LIG A   1      -4.615   4.574 130.683  0.00  0.00    +0.007 C 
ATOM     25  C   LIG A   1      -6.351  -0.702 123.904  0.00  0.00    +0.012 C 
ATOM     26  C   LIG A   1      -7.153  -2.360 125.547  0.00  0.00    +0.058 C 
ATOM     27  C   LIG A   1      -7.122  -2.960 126.952  0.00  0.00    +0.016 C 
ATOM     28  C   LIG A   1      -8.555  -2.404 124.937  0.00  0.00    +0.137 C 
ATOM     29  C   LIG A   1      -9.588  -1.683 125.782  0.00  0.00    +0.075 C 
ATOM     30  C   LIG A   1      -9.241  -0.204 125.722  0.00  0.00    +0.012 C 
ATOM     31  O   LIG A   1      -8.774  -2.782 123.845  0.00  0.00    -0.297 OA
ENDROOT
TORSDOF 0
ENDMDL
MODEL 6
REMARK VINA RESULT:      -9.0      3.984      8.134
REMARK  Name = NuBBE_416
REMARK  8 active torsions:
REMARK  status: ('A' for Active; 'I' for Inactive)
REMARK    1  A    between atoms: C_3  and  C_28
REMARK    2  A    between atoms: C_8  and  C_9
REMARK    3  A    between atoms: C_12  and  C_13
REMARK    4  A    between atoms: C_14  and  C_15
REMARK    5  A    between atoms: C_18  and  C_19
REMARK    6  A    between atoms: C_23  and  C_24
REMARK    7  A    between atoms: C_23  and  C_25
REMARK    8  A    between atoms: C_29  and  C_31
REMARK                            x       y       z     vdW  Elec       q    Type
REMARK                         _______ _______ _______ _____ _____    ______ ____
ROOT
ATOM      1  C   LIG A   1      -7.903   3.084 131.655  0.00  0.00    +0.002 C 
ATOM      2  C   LIG A   1      -7.702   4.675 131.274  0.00  0.00    -0.019 C 
ATOM      3  C   LIG A   1      -7.724   4.758 129.754  0.00  0.00    +0.008 C 
ATOM      4  C   LIG A   1      -6.499   4.049 129.209  0.00  0.00    +0.005 C 
ATOM      5  C   LIG A   1      -6.592   2.533 129.484  0.00  0.00    +0.002 C 
ATOM      6  C   LIG A   1      -6.823   2.032 131.024  0.00  0.00    -0.025 C 
ATOM      7  C   LIG A   1      -5.959   1.531 132.242  0.00  0.00    +0.012 C 
ATOM      8  C   LIG A   1      -7.220   0.577 130.631  0.00  0.00    +0.008 C 
ATOM      9  C   LIG A   1      -5.854  -0.208 129.934  0.00  0.00    +0.008 C 
ATOM     10  C   LIG A   1      -6.096  -0.096 128.412  0.00  0.00    -0.023 C 
ATOM     11  C   LIG A   1      -7.275  -1.181 128.643  0.00  0.00    +0.012 C 
ATOM     12  C   LIG A   1      -5.720   1.675 128.455  0.00  0.00    -0.023 C 
ATOM     13  C   LIG A   1      -4.231   1.964 128.954  0.00  0.00    +0.012 C 
ATOM     14  C   LIG A   1      -5.723   2.385 126.980  0.00  0.00    +0.008 C 
ATOM     15  C   LIG A   1      -5.853   1.449 125.769  0.00  0.00    +0.007 C 
ATOM     16  C   LIG A   1      -6.776   0.314 126.291  0.00  0.00    -0.029 C 
ATOM     17  C   LIG A   1      -8.070   1.055 126.795  0.00  0.00    +0.011 C 
ATOM     18  C   LIG A   1      -5.527  -0.421 126.881  0.00  0.00    +0.002 C 
ATOM     19  C   LIG A   1      -5.431  -1.186 125.117  0.00  0.00    +0.011 C 
ATOM     20  C   LIG A   1      -6.289  -2.634 124.760  0.00  0.00    -0.035 C 
ATOM     21  C   LIG A   1      -5.517  -3.371 123.689  0.00  0.00    +0.011 C 
ATOM     22  C   LIG A   1      -7.699  -3.426 124.735  0.00  0.00    +0.011 C 
ATOM     23  C   LIG A   1      -6.453  -2.528 126.207  0.00  0.00    +0.007 C 
ATOM     24  C   LIG A   1      -7.466  -1.072 125.937  0.00  0.00    +0.007 C 
ATOM     25  C   LIG A   1      -6.401   5.448 131.696  0.00  0.00    +0.012 C 
ATOM     26  C   LIG A   1      -8.861   5.539 131.874  0.00  0.00    +0.058 C 
ATOM     27  C   LIG A   1     -10.247   5.318 131.267  0.00  0.00    +0.016 C 
ATOM     28  C   LIG A   1      -8.842   5.253 133.376  0.00  0.00    +0.137 C 
ATOM     29  C   LIG A   1      -9.286   3.842 133.712  0.00  0.00    +0.075 C 
ATOM     30  C   LIG A   1      -8.209   2.910 133.178  0.00  0.00    +0.012 C 
ATOM     31  O   LIG A   1      -8.355   5.974 134.167  0.00  0.00    -0.297 OA
ENDROOT
TORSDOF 0
ENDMDL
MODEL 7
REMARK VINA RESULT:      -8.9      2.859      4.494
REMARK  Name = NuBBE_416
REMARK  8 active torsions:
REMARK  status: ('A' for Active; 'I' for Inactive)
REMARK    1  A    between atoms: C_3  and  C_28
REMARK    2  A    between atoms: C_8  and  C_9
REMARK    3  A    between atoms: C_12  and  C_13
REMARK    4  A    between atoms: C_14  and  C_15
REMARK    5  A    between atoms: C_18  and  C_19
REMARK    6  A    between atoms: C_23  and  C_24
REMARK    7  A    between atoms: C_23  and  C_25
REMARK    8  A    between atoms: C_29  and  C_31
REMARK                            x       y       z     vdW  Elec       q    Type
REMARK                         _______ _______ _______ _____ _____    ______ ____
ROOT
ATOM      1  C   LIG A   1      -7.840  -0.189 125.382  0.00  0.00    +0.002 C 
ATOM      2  C   LIG A   1      -6.985  -1.594 125.282  0.00  0.00    -0.019 C 
ATOM      3  C   LIG A   1      -6.789  -2.080 126.711  0.00  0.00    +0.008 C 
ATOM      4  C   LIG A   1      -5.885  -1.103 127.438  0.00  0.00    +0.005 C 
ATOM      5  C   LIG A   1      -6.598   0.254 127.617  0.00  0.00    +0.002 C 
ATOM      6  C   LIG A   1      -7.192   1.005 126.290  0.00  0.00    -0.025 C 
ATOM      7  C   LIG A   1      -6.749   2.120 125.270  0.00  0.00    +0.012 C 
ATOM      8  C   LIG A   1      -8.078   2.006 127.091  0.00  0.00    +0.008 C 
ATOM      9  C   LIG A   1      -7.057   3.068 127.985  0.00  0.00    +0.008 C 
ATOM     10  C   LIG A   1      -7.050   2.467 129.409  0.00  0.00    -0.023 C 
ATOM     11  C   LIG A   1      -8.579   2.989 129.506  0.00  0.00    +0.012 C 
ATOM     12  C   LIG A   1      -6.016   1.088 128.851  0.00  0.00    -0.023 C 
ATOM     13  C   LIG A   1      -4.606   1.581 128.287  0.00  0.00    +0.012 C 
ATOM     14  C   LIG A   1      -5.561   0.077 130.055  0.00  0.00    +0.008 C 
ATOM     15  C   LIG A   1      -5.900   0.518 131.486  0.00  0.00    +0.007 C 
ATOM     16  C   LIG A   1      -7.252   1.267 131.319  0.00  0.00    -0.029 C 
ATOM     17  C   LIG A   1      -8.201   0.222 130.623  0.00  0.00    +0.011 C 
ATOM     18  C   LIG A   1      -6.473   2.578 130.967  0.00  0.00    +0.002 C 
ATOM     19  C   LIG A   1      -6.473   2.816 132.877  0.00  0.00    +0.011 C 
ATOM     20  C   LIG A   1      -7.781   3.632 133.643  0.00  0.00    -0.035 C 
ATOM     21  C   LIG A   1      -7.237   4.308 134.881  0.00  0.00    +0.011 C 
ATOM     22  C   LIG A   1      -9.375   3.736 133.899  0.00  0.00    +0.011 C 
ATOM     23  C   LIG A   1      -8.064   3.856 132.227  0.00  0.00    +0.007 C 
ATOM     24  C   LIG A   1      -8.382   2.098 132.062  0.00  0.00    +0.007 C 
ATOM     25  C   LIG A   1      -5.547  -1.622 124.651  0.00  0.00    +0.012 C 
ATOM     26  C   LIG A   1      -7.775  -2.666 124.458  0.00  0.00    +0.058 C 
ATOM     27  C   LIG A   1      -9.051  -3.204 125.105  0.00  0.00    +0.016 C 
ATOM     28  C   LIG A   1      -8.052  -2.010 123.104  0.00  0.00    +0.137 C 
ATOM     29  C   LIG A   1      -9.052  -0.873 123.195  0.00  0.00    +0.075 C 
ATOM     30  C   LIG A   1      -8.372   0.240 123.976  0.00  0.00    +0.012 C 
ATOM     31  O   LIG A   1      -7.421  -2.229 122.137  0.00  0.00    -0.297 OA
ENDROOT
TORSDOF 0
ENDMDL
MODEL 8
REMARK VINA RESULT:      -8.8      3.409      8.756
REMARK  Name = NuBBE_416
REMARK  8 active torsions:
REMARK  status: ('A' for Active; 'I' for Inactive)
REMARK    1  A    between atoms: C_3  and  C_28
REMARK    2  A    between atoms: C_8  and  C_9
REMARK    3  A    between atoms: C_12  and  C_13
REMARK    4  A    between atoms: C_14  and  C_15
REMARK    5  A    between atoms: C_18  and  C_19
REMARK    6  A    between atoms: C_23  and  C_24
REMARK    7  A    between atoms: C_23  and  C_25
REMARK    8  A    between atoms: C_29  and  C_31
REMARK                            x       y       z     vdW  Elec       q    Type
REMARK                         _______ _______ _______ _____ _____    ______ ____
ROOT
ATOM      1  C   LIG A   1      -3.395   5.106 129.856  0.00  0.00    +0.002 C 
ATOM      2  C   LIG A   1      -4.155   5.413 131.285  0.00  0.00    -0.019 C 
ATOM      3  C   LIG A   1      -4.967   4.168 131.615  0.00  0.00    +0.008 C 
ATOM      4  C   LIG A   1      -6.072   4.020 130.587  0.00  0.00    +0.005 C 
ATOM      5  C   LIG A   1      -5.474   3.698 129.201  0.00  0.00    +0.002 C 
ATOM      6  C   LIG A   1      -4.344   4.708 128.586  0.00  0.00    -0.025 C 
ATOM      7  C   LIG A   1      -4.270   5.934 127.601  0.00  0.00    +0.012 C 
ATOM      8  C   LIG A   1      -3.870   3.717 127.480  0.00  0.00    +0.008 C 
ATOM      9  C   LIG A   1      -5.151   3.479 126.353  0.00  0.00    +0.008 C 
ATOM     10  C   LIG A   1      -5.792   2.144 126.795  0.00  0.00    -0.023 C 
ATOM     11  C   LIG A   1      -4.446   1.449 126.226  0.00  0.00    +0.012 C 
ATOM     12  C   LIG A   1      -6.514   2.941 128.252  0.00  0.00    -0.023 C 
ATOM     13  C   LIG A   1      -7.526   4.113 127.860  0.00  0.00    +0.012 C 
ATOM     14  C   LIG A   1      -7.473   1.952 129.136  0.00  0.00    +0.008 C 
ATOM     15  C   LIG A   1      -7.780   0.574 128.532  0.00  0.00    +0.007 C 
ATOM     16  C   LIG A   1      -6.473   0.217 127.772  0.00  0.00    -0.029 C 
ATOM     17  C   LIG A   1      -5.341   0.311 128.862  0.00  0.00    +0.011 C 
ATOM     18  C   LIG A   1      -6.987   1.015 126.528  0.00  0.00    +0.002 C 
ATOM     19  C   LIG A   1      -7.813  -0.666 126.081  0.00  0.00    +0.011 C 
ATOM     20  C   LIG A   1      -6.949  -1.829 125.153  0.00  0.00    -0.035 C 
ATOM     21  C   LIG A   1      -7.961  -2.624 124.359  0.00  0.00    +0.011 C 
ATOM     22  C   LIG A   1      -5.624  -2.741 124.980  0.00  0.00    +0.011 C 
ATOM     23  C   LIG A   1      -6.072  -0.663 125.079  0.00  0.00    +0.007 C 
ATOM     24  C   LIG A   1      -5.758  -0.847 126.836  0.00  0.00    +0.007 C 
ATOM     25  C   LIG A   1      -5.176   6.600 131.418  0.00  0.00    +0.012 C 
ATOM     26  C   LIG A   1      -3.113   5.688 132.420  0.00  0.00    +0.058 C 
ATOM     27  C   LIG A   1      -2.260   4.495 132.851  0.00  0.00    +0.016 C 
ATOM     28  C   LIG A   1      -2.258   6.849 131.910  0.00  0.00    +0.137 C 
ATOM     29  C   LIG A   1      -1.369   6.457 130.745  0.00  0.00    +0.075 C 
ATOM     30  C   LIG A   1      -2.294   6.178 129.570  0.00  0.00    +0.012 C 
ATOM     31  O   LIG A   1      -2.410   7.964 132.250  0.00  0.00    -0.297 OA
ENDROOT
TORSDOF 0
ENDMDL
MODEL 9
REMARK VINA RESULT:      -8.7      1.394      3.032
REMARK  Name = NuBBE_416
REMARK  8 active torsions:
REMARK  status: ('A' for Active; 'I' for Inactive)
REMARK    1  A    between atoms: C_3  and  C_28
REMARK    2  A    between atoms: C_8  and  C_9
REMARK    3  A    between atoms: C_12  and  C_13
REMARK    4  A    between atoms: C_14  and  C_15
REMARK    5  A    between atoms: C_18  and  C_19
REMARK    6  A    between atoms: C_23  and  C_24
REMARK    7  A    between atoms: C_23  and  C_25
REMARK    8  A    between atoms: C_29  and  C_31
REMARK                            x       y       z     vdW  Elec       q    Type
REMARK                         _______ _______ _______ _____ _____    ______ ____
ROOT
ATOM      1  C   LIG A   1      -7.194  -0.573 124.811  0.00  0.00    +0.002 C 
ATOM      2  C   LIG A   1      -8.831  -0.637 124.977  0.00  0.00    -0.019 C 
ATOM      3  C   LIG A   1      -9.261   0.718 125.522  0.00  0.00    +0.008 C 
ATOM      4  C   LIG A   1      -8.712   0.875 126.927  0.00  0.00    +0.005 C 
ATOM      5  C   LIG A   1      -7.172   0.977 126.893  0.00  0.00    +0.002 C 
ATOM      6  C   LIG A   1      -6.329  -0.212 126.150  0.00  0.00    -0.025 C 
ATOM      7  C   LIG A   1      -5.574  -1.539 126.536  0.00  0.00    +0.012 C 
ATOM      8  C   LIG A   1      -4.997   0.595 126.081  0.00  0.00    +0.008 C 
ATOM      9  C   LIG A   1      -4.411   0.848 127.681  0.00  0.00    +0.008 C 
ATOM     10  C   LIG A   1      -4.866   2.286 128.021  0.00  0.00    -0.023 C 
ATOM     11  C   LIG A   1      -3.741   2.762 126.959  0.00  0.00    +0.012 C 
ATOM     12  C   LIG A   1      -6.585   1.736 128.171  0.00  0.00    -0.023 C 
ATOM     13  C   LIG A   1      -6.773   0.647 129.323  0.00  0.00    +0.012 C 
ATOM     14  C   LIG A   1      -7.614   2.915 128.652  0.00  0.00    +0.008 C 
ATOM     15  C   LIG A   1      -6.979   4.245 129.085  0.00  0.00    +0.007 C 
ATOM     16  C   LIG A   1      -5.741   4.370 128.154  0.00  0.00    -0.029 C 
ATOM     17  C   LIG A   1      -6.329   4.271 126.697  0.00  0.00    +0.011 C 
ATOM     18  C   LIG A   1      -4.909   3.504 129.156  0.00  0.00    +0.002 C 
ATOM     19  C   LIG A   1      -4.570   5.207 129.987  0.00  0.00    +0.011 C 
ATOM     20  C   LIG A   1      -3.230   6.160 129.480  0.00  0.00    -0.035 C 
ATOM     21  C   LIG A   1      -2.769   6.971 130.670  0.00  0.00    +0.011 C 
ATOM     22  C   LIG A   1      -2.445   6.896 128.272  0.00  0.00    +0.011 C 
ATOM     23  C   LIG A   1      -2.999   4.904 128.772  0.00  0.00    +0.007 C 
ATOM     24  C   LIG A   1      -4.464   5.242 127.794  0.00  0.00    +0.007 C 
ATOM     25  C   LIG A   1      -9.505  -1.683 125.936  0.00  0.00    +0.012 C 
ATOM     26  C   LIG A   1      -9.520  -0.900 123.596  0.00  0.00    +0.058 C 
ATOM     27  C   LIG A   1      -9.425   0.231 122.572  0.00  0.00    +0.016 C 
ATOM     28  C   LIG A   1      -8.897  -2.197 123.076  0.00  0.00    +0.137 C 
ATOM     29  C   LIG A   1      -7.441  -2.034 122.684  0.00  0.00    +0.075 C 
ATOM     30  C   LIG A   1      -6.671  -1.784 123.972  0.00  0.00    +0.012 C 
ATOM     31  O   LIG A   1      -9.425  -3.245 123.152  0.00  0.00    -0.297 OA
ENDROOT
TORSDOF 0
ENDMDL
