MODEL 1
REMARK VINA RESULT:      -6.5      0.000      0.000
REMARK  Name = NuBBE_2333
REMARK  5 active torsions:
REMARK  status: ('A' for Active; 'I' for Inactive)
REMARK    1  A    between atoms: C_1  and  C_2
REMARK    2  A    between atoms: C_10  and  C_11
REMARK    3  A    between atoms: C_10  and  O_12
REMARK    4  A    between atoms: C_19  and  C_20
REMARK    5  A    between atoms: C_19  and  C_21
REMARK                            x       y       z     vdW  Elec       q    Type
REMARK                         _______ _______ _______ _____ _____    ______ ____
ROOT
ATOM      1  C   LIG A   1      -6.404  -2.764 128.986  0.00  0.00    +0.008 C 
ATOM      2  C   LIG A   1      -7.843  -2.432 128.573  0.00  0.00    -0.010 C 
ATOM      3  C   LIG A   1      -8.717  -3.688 128.492  0.00  0.00    +0.004 C 
ATOM      4  C   LIG A   1      -8.898  -3.939 127.006  0.00  0.00    +0.007 C 
ATOM      5  C   LIG A   1      -7.847  -1.794 127.150  0.00  0.00    +0.002 C 
ATOM      6  C   LIG A   1      -8.950  -2.524 126.393  0.00  0.00    +0.024 C 
ATOM      7  C   LIG A   1      -8.762  -2.521 124.861  0.00  0.00    +0.066 C 
ATOM      8  C   LIG A   1      -7.616  -3.412 124.344  0.00  0.00    +0.041 C 
ATOM      9  C   LIG A   1      -8.599  -1.075 124.350  0.00  0.00    +0.035 C 
ATOM     10  C   LIG A   1      -7.251  -0.407 124.696  0.00  0.00    +0.007 C 
ATOM     11  C   LIG A   1      -7.158   0.283 126.078  0.00  0.00    -0.001 C 
ATOM     12  C   LIG A   1      -7.815  -0.288 127.226  0.00  0.00    +0.002 C 
ATOM     13  C   LIG A   1      -8.285   1.188 126.539  0.00  0.00    -0.028 C 
ATOM     14  C   LIG A   1      -8.338   2.106 127.779  0.00  0.00    +0.011 C 
ATOM     15  C   LIG A   1      -8.165   2.197 125.361  0.00  0.00    +0.011 C 
ENDROOT
BRANCH   7  16
ATOM     16  O   LIG A   1      -9.949  -3.077 124.270  0.00  0.00    -0.389 OA
ATOM     17  H   LIG A   1     -10.024  -2.747 123.359  0.00  0.00    +0.210 HD
ENDBRANCH   7  16
TORSDOF 1
ENDMDL
MODEL 2
REMARK VINA RESULT:      -6.4      1.998      3.950
REMARK  Name = NuBBE_2333
REMARK  5 active torsions:
REMARK  status: ('A' for Active; 'I' for Inactive)
REMARK    1  A    between atoms: C_1  and  C_2
REMARK    2  A    between atoms: C_10  and  C_11
REMARK    3  A    between atoms: C_10  and  O_12
REMARK    4  A    between atoms: C_19  and  C_20
REMARK    5  A    between atoms: C_19  and  C_21
REMARK                            x       y       z     vdW  Elec       q    Type
REMARK                         _______ _______ _______ _____ _____    ______ ____
ROOT
ATOM      1  C   LIG A   1      -8.650  -3.651 127.941  0.00  0.00    +0.008 C 
ATOM      2  C   LIG A   1      -7.462  -2.702 127.754  0.00  0.00    -0.010 C 
ATOM      3  C   LIG A   1      -7.413  -1.627 128.845  0.00  0.00    +0.004 C 
ATOM      4  C   LIG A   1      -7.873  -0.355 128.156  0.00  0.00    +0.007 C 
ATOM      5  C   LIG A   1      -7.598  -1.951 126.394  0.00  0.00    +0.002 C 
ATOM      6  C   LIG A   1      -7.320  -0.489 126.722  0.00  0.00    +0.024 C 
ATOM      7  C   LIG A   1      -7.964   0.504 125.731  0.00  0.00    +0.066 C 
ATOM      8  C   LIG A   1      -9.497   0.621 125.829  0.00  0.00    +0.041 C 
ATOM      9  C   LIG A   1      -7.536   0.166 124.289  0.00  0.00    +0.035 C 
ATOM     10  C   LIG A   1      -8.174  -1.111 123.700  0.00  0.00    +0.007 C 
ATOM     11  C   LIG A   1      -7.458  -2.446 124.013  0.00  0.00    -0.001 C 
ATOM     12  C   LIG A   1      -6.846  -2.663 125.298  0.00  0.00    +0.002 C 
ATOM     13  C   LIG A   1      -5.951  -2.539 123.865  0.00  0.00    -0.028 C 
ATOM     14  C   LIG A   1      -5.049  -3.789 123.950  0.00  0.00    +0.011 C 
ATOM     15  C   LIG A   1      -5.922  -2.190 122.349  0.00  0.00    +0.011 C 
ENDROOT
BRANCH   7  16
ATOM     16  O   LIG A   1      -7.479   1.821 126.048  0.00  0.00    -0.389 OA
ATOM     17  H   LIG A   1      -7.055   2.193 125.256  0.00  0.00    +0.210 HD
ENDBRANCH   7  16
TORSDOF 1
ENDMDL
MODEL 3
REMARK VINA RESULT:      -6.3      1.577      3.837
REMARK  Name = NuBBE_2333
REMARK  5 active torsions:
REMARK  status: ('A' for Active; 'I' for Inactive)
REMARK    1  A    between atoms: C_1  and  C_2
REMARK    2  A    between atoms: C_10  and  C_11
REMARK    3  A    between atoms: C_10  and  O_12
REMARK    4  A    between atoms: C_19  and  C_20
REMARK    5  A    between atoms: C_19  and  C_21
REMARK                            x       y       z     vdW  Elec       q    Type
REMARK                         _______ _______ _______ _____ _____    ______ ____
ROOT
ATOM      1  C   LIG A   1      -6.253  -3.638 124.080  0.00  0.00    +0.008 C 
ATOM      2  C   LIG A   1      -7.668  -3.431 124.632  0.00  0.00    -0.010 C 
ATOM      3  C   LIG A   1      -8.692  -3.218 123.512  0.00  0.00    +0.004 C 
ATOM      4  C   LIG A   1      -9.015  -1.736 123.560  0.00  0.00    +0.007 C 
ATOM      5  C   LIG A   1      -7.704  -2.149 125.519  0.00  0.00    +0.002 C 
ATOM      6  C   LIG A   1      -8.942  -1.387 125.061  0.00  0.00    +0.024 C 
ATOM      7  C   LIG A   1      -8.872   0.131 125.327  0.00  0.00    +0.066 C 
ATOM      8  C   LIG A   1      -7.886   0.905 124.431  0.00  0.00    +0.041 C 
ATOM      9  C   LIG A   1      -8.576   0.396 126.817  0.00  0.00    +0.035 C 
ATOM     10  C   LIG A   1      -7.134   0.071 127.264  0.00  0.00    +0.007 C 
ATOM     11  C   LIG A   1      -6.853  -1.394 127.673  0.00  0.00    -0.001 C 
ATOM     12  C   LIG A   1      -7.484  -2.483 126.973  0.00  0.00    +0.002 C 
ATOM     13  C   LIG A   1      -7.823  -2.113 128.592  0.00  0.00    -0.028 C 
ATOM     14  C   LIG A   1      -7.670  -3.493 129.265  0.00  0.00    +0.011 C 
ATOM     15  C   LIG A   1      -7.673  -1.123 129.783  0.00  0.00    +0.011 C 
ENDROOT
BRANCH   7  16
ATOM     16  O   LIG A   1     -10.160   0.693 125.018  0.00  0.00    -0.389 OA
ATOM     17  H   LIG A   1     -10.452   1.231 125.772  0.00  0.00    +0.210 HD
ENDBRANCH   7  16
TORSDOF 1
ENDMDL
MODEL 4
REMARK VINA RESULT:      -6.1      2.488      4.445
REMARK  Name = NuBBE_2333
REMARK  5 active torsions:
REMARK  status: ('A' for Active; 'I' for Inactive)
REMARK    1  A    between atoms: C_1  and  C_2
REMARK    2  A    between atoms: C_10  and  C_11
REMARK    3  A    between atoms: C_10  and  O_12
REMARK    4  A    between atoms: C_19  and  C_20
REMARK    5  A    between atoms: C_19  and  C_21
REMARK                            x       y       z     vdW  Elec       q    Type
REMARK                         _______ _______ _______ _____ _____    ______ ____
ROOT
ATOM      1  C   LIG A   1      -8.062  -2.140 122.528  0.00  0.00    +0.008 C 
ATOM      2  C   LIG A   1      -6.695  -1.563 122.914  0.00  0.00    -0.010 C 
ATOM      3  C   LIG A   1      -5.746  -2.646 123.437  0.00  0.00    +0.004 C 
ATOM      4  C   LIG A   1      -5.687  -2.418 124.936  0.00  0.00    +0.007 C 
ATOM      5  C   LIG A   1      -6.868  -0.527 124.067  0.00  0.00    +0.002 C 
ATOM      6  C   LIG A   1      -5.792  -0.885 125.084  0.00  0.00    +0.024 C 
ATOM      7  C   LIG A   1      -6.122  -0.438 126.524  0.00  0.00    +0.066 C 
ATOM      8  C   LIG A   1      -7.245  -1.236 127.213  0.00  0.00    +0.041 C 
ATOM      9  C   LIG A   1      -6.433   1.072 126.551  0.00  0.00    +0.035 C 
ATOM     10  C   LIG A   1      -7.786   1.473 125.926  0.00  0.00    +0.007 C 
ATOM     11  C   LIG A   1      -7.799   1.701 124.396  0.00  0.00    -0.001 C 
ATOM     12  C   LIG A   1      -6.999   0.875 123.527  0.00  0.00    +0.002 C 
ATOM     13  C   LIG A   1      -6.700   2.528 123.754  0.00  0.00    -0.028 C 
ATOM     14  C   LIG A   1      -6.596   3.029 122.298  0.00  0.00    +0.011 C 
ATOM     15  C   LIG A   1      -7.000   3.829 124.552  0.00  0.00    +0.011 C 
ENDROOT
BRANCH   7  16
ATOM     16  O   LIG A   1      -4.959  -0.673 127.336  0.00  0.00    -0.389 OA
ATOM     17  H   LIG A   1      -4.900  -1.625 127.523  0.00  0.00    +0.210 HD
ENDBRANCH   7  16
TORSDOF 1
ENDMDL
MODEL 5
REMARK VINA RESULT:      -5.8      2.124      3.890
REMARK  Name = NuBBE_2333
REMARK  5 active torsions:
REMARK  status: ('A' for Active; 'I' for Inactive)
REMARK    1  A    between atoms: C_1  and  C_2
REMARK    2  A    between atoms: C_10  and  C_11
REMARK    3  A    between atoms: C_10  and  O_12
REMARK    4  A    between atoms: C_19  and  C_20
REMARK    5  A    between atoms: C_19  and  C_21
REMARK                            x       y       z     vdW  Elec       q    Type
REMARK                         _______ _______ _______ _____ _____    ______ ____
ROOT
ATOM      1  C   LIG A   1      -8.248  -2.848 129.368  0.00  0.00    +0.008 C 
ATOM      2  C   LIG A   1      -7.183  -2.928 128.269  0.00  0.00    -0.010 C 
ATOM      3  C   LIG A   1      -5.766  -2.784 128.836  0.00  0.00    +0.004 C 
ATOM      4  C   LIG A   1      -5.330  -1.385 128.438  0.00  0.00    +0.007 C 
ATOM      5  C   LIG A   1      -7.380  -1.756 127.259  0.00  0.00    +0.002 C 
ATOM      6  C   LIG A   1      -5.988  -1.170 127.059  0.00  0.00    +0.024 C 
ATOM      7  C   LIG A   1      -5.993   0.309 126.616  0.00  0.00    +0.066 C 
ATOM      8  C   LIG A   1      -6.419   1.314 127.704  0.00  0.00    +0.041 C 
ATOM      9  C   LIG A   1      -6.856   0.480 125.351  0.00  0.00    +0.035 C 
ATOM     10  C   LIG A   1      -8.379   0.358 125.576  0.00  0.00    +0.007 C 
ATOM     11  C   LIG A   1      -8.967  -1.072 125.542  0.00  0.00    -0.001 C 
ATOM     12  C   LIG A   1      -8.226  -2.181 126.086  0.00  0.00    +0.002 C 
ATOM     13  C   LIG A   1      -8.559  -2.023 124.432  0.00  0.00    -0.028 C 
ATOM     14  C   LIG A   1      -9.134  -3.415 124.095  0.00  0.00    +0.011 C 
ATOM     15  C   LIG A   1      -9.085  -1.136 123.267  0.00  0.00    +0.011 C 
ENDROOT
BRANCH   7  16
ATOM     16  O   LIG A   1      -4.640   0.677 126.292  0.00  0.00    -0.389 OA
ATOM     17  H   LIG A   1      -4.419   1.493 126.771  0.00  0.00    +0.210 HD
ENDBRANCH   7  16
TORSDOF 1
ENDMDL
MODEL 6
REMARK VINA RESULT:      -5.8     13.905     16.777
REMARK  Name = NuBBE_2333
REMARK  5 active torsions:
REMARK  status: ('A' for Active; 'I' for Inactive)
REMARK    1  A    between atoms: C_1  and  C_2
REMARK    2  A    between atoms: C_10  and  C_11
REMARK    3  A    between atoms: C_10  and  O_12
REMARK    4  A    between atoms: C_19  and  C_20
REMARK    5  A    between atoms: C_19  and  C_21
REMARK                            x       y       z     vdW  Elec       q    Type
REMARK                         _______ _______ _______ _____ _____    ______ ____
ROOT
ATOM      1  C   LIG A   1       1.874  11.556 135.912  0.00  0.00    +0.008 C 
ATOM      2  C   LIG A   1       1.823  11.343 134.395  0.00  0.00    -0.010 C 
ATOM      3  C   LIG A   1       2.368  12.554 133.630  0.00  0.00    +0.004 C 
ATOM      4  C   LIG A   1       1.140  13.234 133.055  0.00  0.00    +0.007 C 
ATOM      5  C   LIG A   1       0.343  11.158 133.939  0.00  0.00    +0.002 C 
ATOM      6  C   LIG A   1       0.188  12.065 132.725  0.00  0.00    +0.024 C 
ATOM      7  C   LIG A   1      -1.264  12.521 132.470  0.00  0.00    +0.066 C 
ATOM      8  C   LIG A   1      -1.815  13.541 133.486  0.00  0.00    +0.041 C 
ATOM      9  C   LIG A   1      -2.195  11.296 132.372  0.00  0.00    +0.035 C 
ATOM     10  C   LIG A   1      -2.468  10.573 133.709  0.00  0.00    +0.007 C 
ATOM     11  C   LIG A   1      -1.435   9.504 134.138  0.00  0.00    -0.001 C 
ATOM     12  C   LIG A   1      -0.032   9.698 133.879  0.00  0.00    +0.002 C 
ATOM     13  C   LIG A   1      -0.946   8.488 133.123  0.00  0.00    -0.028 C 
ATOM     14  C   LIG A   1      -0.065   7.241 133.356  0.00  0.00    +0.011 C 
ATOM     15  C   LIG A   1      -2.346   7.877 132.828  0.00  0.00    +0.011 C 
ENDROOT
BRANCH   7  16
ATOM     16  O   LIG A   1      -1.295  13.212 131.209  0.00  0.00    -0.389 OA
ATOM     17  H   LIG A   1      -0.706  13.983 131.265  0.00  0.00    +0.210 HD
ENDBRANCH   7  16
TORSDOF 1
ENDMDL
MODEL 7
REMARK VINA RESULT:      -5.8      3.388      5.358
REMARK  Name = NuBBE_2333
REMARK  5 active torsions:
REMARK  status: ('A' for Active; 'I' for Inactive)
REMARK    1  A    between atoms: C_1  and  C_2
REMARK    2  A    between atoms: C_10  and  C_11
REMARK    3  A    between atoms: C_10  and  O_12
REMARK    4  A    between atoms: C_19  and  C_20
REMARK    5  A    between atoms: C_19  and  C_21
REMARK                            x       y       z     vdW  Elec       q    Type
REMARK                         _______ _______ _______ _____ _____    ______ ____
ROOT
ATOM      1  C   LIG A   1      -5.392   0.959 127.789  0.00  0.00    +0.008 C 
ATOM      2  C   LIG A   1      -4.996   1.249 126.337  0.00  0.00    -0.010 C 
ATOM      3  C   LIG A   1      -4.519   2.693 126.153  0.00  0.00    +0.004 C 
ATOM      4  C   LIG A   1      -5.661   3.390 125.437  0.00  0.00    +0.007 C 
ATOM      5  C   LIG A   1      -6.235   1.066 125.408  0.00  0.00    +0.002 C 
ATOM      6  C   LIG A   1      -6.240   2.299 124.511  0.00  0.00    +0.024 C 
ATOM      7  C   LIG A   1      -7.633   2.657 123.953  0.00  0.00    +0.066 C 
ATOM      8  C   LIG A   1      -8.624   3.225 124.987  0.00  0.00    +0.041 C 
ATOM      9  C   LIG A   1      -8.243   1.439 123.228  0.00  0.00    +0.035 C 
ATOM     10  C   LIG A   1      -8.711   0.295 124.154  0.00  0.00    +0.007 C 
ATOM     11  C   LIG A   1      -7.638  -0.739 124.567  0.00  0.00    -0.001 C 
ATOM     12  C   LIG A   1      -6.283  -0.324 124.826  0.00  0.00    +0.002 C 
ATOM     13  C   LIG A   1      -6.706  -1.312 123.515  0.00  0.00    -0.028 C 
ATOM     14  C   LIG A   1      -5.689  -2.465 123.653  0.00  0.00    +0.011 C 
ATOM     15  C   LIG A   1      -7.828  -1.937 122.637  0.00  0.00    +0.011 C 
ENDROOT
BRANCH   7  16
ATOM     16  O   LIG A   1      -7.465   3.714 122.992  0.00  0.00    -0.389 OA
ATOM     17  H   LIG A   1      -7.820   3.415 122.138  0.00  0.00    +0.210 HD
ENDBRANCH   7  16
TORSDOF 1
ENDMDL
MODEL 8
REMARK VINA RESULT:      -5.7      2.696      4.345
REMARK  Name = NuBBE_2333
REMARK  5 active torsions:
REMARK  status: ('A' for Active; 'I' for Inactive)
REMARK    1  A    between atoms: C_1  and  C_2
REMARK    2  A    between atoms: C_10  and  C_11
REMARK    3  A    between atoms: C_10  and  O_12
REMARK    4  A    between atoms: C_19  and  C_20
REMARK    5  A    between atoms: C_19  and  C_21
REMARK                            x       y       z     vdW  Elec       q    Type
REMARK                         _______ _______ _______ _____ _____    ______ ____
ROOT
ATOM      1  C   LIG A   1      -6.311  -1.904 122.454  0.00  0.00    +0.008 C 
ATOM      2  C   LIG A   1      -7.382  -1.770 123.542  0.00  0.00    -0.010 C 
ATOM      3  C   LIG A   1      -8.798  -1.851 122.962  0.00  0.00    +0.004 C 
ATOM      4  C   LIG A   1      -9.315  -0.425 123.002  0.00  0.00    +0.007 C 
ATOM      5  C   LIG A   1      -7.261  -0.375 124.229  0.00  0.00    +0.002 C 
ATOM      6  C   LIG A   1      -8.686   0.162 124.283  0.00  0.00    +0.024 C 
ATOM      7  C   LIG A   1      -8.768   1.703 124.344  0.00  0.00    +0.066 C 
ATOM      8  C   LIG A   1      -8.388   2.429 123.040  0.00  0.00    +0.041 C 
ATOM      9  C   LIG A   1      -7.930   2.231 125.525  0.00  0.00    +0.035 C 
ATOM     10  C   LIG A   1      -6.400   2.143 125.332  0.00  0.00    +0.007 C 
ATOM     11  C   LIG A   1      -5.733   0.802 125.718  0.00  0.00    -0.001 C 
ATOM     12  C   LIG A   1      -6.405  -0.448 125.468  0.00  0.00    +0.002 C 
ATOM     13  C   LIG A   1      -6.099   0.134 127.030  0.00  0.00    -0.028 C 
ATOM     14  C   LIG A   1      -5.451  -1.096 127.700  0.00  0.00    +0.011 C 
ATOM     15  C   LIG A   1      -5.637   1.311 127.937  0.00  0.00    +0.011 C 
ENDROOT
BRANCH   7  16
ATOM     16  O   LIG A   1     -10.142   2.062 124.572  0.00  0.00    -0.389 OA
ATOM     17  H   LIG A   1     -10.663   1.247 124.666  0.00  0.00    +0.210 HD
ENDBRANCH   7  16
TORSDOF 1
ENDMDL
MODEL 9
REMARK VINA RESULT:      -5.6      7.127      9.774
REMARK  Name = NuBBE_2333
REMARK  5 active torsions:
REMARK  status: ('A' for Active; 'I' for Inactive)
REMARK    1  A    between atoms: C_1  and  C_2
REMARK    2  A    between atoms: C_10  and  C_11
REMARK    3  A    between atoms: C_10  and  O_12
REMARK    4  A    between atoms: C_19  and  C_20
REMARK    5  A    between atoms: C_19  and  C_21
REMARK                            x       y       z     vdW  Elec       q    Type
REMARK                         _______ _______ _______ _____ _____    ______ ____
ROOT
ATOM      1  C   LIG A   1      -1.282   5.083 132.542  0.00  0.00    +0.008 C 
ATOM      2  C   LIG A   1      -1.825   5.974 131.420  0.00  0.00    -0.010 C 
ATOM      3  C   LIG A   1      -2.117   7.396 131.911  0.00  0.00    +0.004 C 
ATOM      4  C   LIG A   1      -3.630   7.472 131.999  0.00  0.00    +0.007 C 
ATOM      5  C   LIG A   1      -3.176   5.396 130.896  0.00  0.00    +0.002 C 
ATOM      6  C   LIG A   1      -4.115   6.594 130.826  0.00  0.00    +0.024 C 
ATOM      7  C   LIG A   1      -5.609   6.220 130.928  0.00  0.00    +0.066 C 
ATOM      8  C   LIG A   1      -6.071   5.755 132.323  0.00  0.00    +0.041 C 
ATOM      9  C   LIG A   1      -5.967   5.169 129.859  0.00  0.00    +0.035 C 
ATOM     10  C   LIG A   1      -5.410   3.752 130.123  0.00  0.00    +0.007 C 
ATOM     11  C   LIG A   1      -3.971   3.474 129.629  0.00  0.00    -0.001 C 
ATOM     12  C   LIG A   1      -2.962   4.499 129.704  0.00  0.00    +0.002 C 
ATOM     13  C   LIG A   1      -3.562   3.908 128.234  0.00  0.00    -0.028 C 
ATOM     14  C   LIG A   1      -2.259   3.591 127.469  0.00  0.00    +0.011 C 
ATOM     15  C   LIG A   1      -4.623   3.049 127.487  0.00  0.00    +0.011 C 
ENDROOT
BRANCH   7  16
ATOM     16  O   LIG A   1      -6.380   7.407 130.668  0.00  0.00    -0.389 OA
ATOM     17  H   LIG A   1      -5.799   8.180 130.767  0.00  0.00    +0.210 HD
ENDBRANCH   7  16
TORSDOF 1
ENDMDL
