MODEL 1
REMARK VINA RESULT:      -9.1      0.000      0.000
REMARK  Name = NuBBE_1145
REMARK  9 active torsions:
REMARK  status: ('A' for Active; 'I' for Inactive)
REMARK    1  A    between atoms: C_1  and  C_2
REMARK    2  A    between atoms: C_5  and  C_6
REMARK    3  A    between atoms: C_10  and  O_12
REMARK    4  A    between atoms: O_12  and  C_13
REMARK    5  A    between atoms: C_13  and  C_15
REMARK    6  A    between atoms: C_16  and  C_17
REMARK    7  A    between atoms: C_16  and  C_18
REMARK    8  A    between atoms: C_25  and  C_38
REMARK    9  A    between atoms: C_29  and  C_31
REMARK                            x       y       z     vdW  Elec       q    Type
REMARK                         _______ _______ _______ _____ _____    ______ ____
ROOT
ATOM      1  C   LIG A   1      -5.583   0.155 129.569  0.00  0.00    +0.020 C 
ATOM      2  C   LIG A   1      -6.648  -0.974 129.485  0.00  0.00    +0.030 C 
ATOM      3  C   LIG A   1      -5.961  -2.368 129.289  0.00  0.00    +0.012 C 
ATOM      4  C   LIG A   1      -4.996  -2.829 130.476  0.00  0.00    -0.006 C 
ATOM      5  C   LIG A   1      -3.543  -2.352 130.253  0.00  0.00    +0.016 C 
ATOM      6  C   LIG A   1      -5.568  -2.334 131.872  0.00  0.00    +0.016 C 
ATOM      7  C   LIG A   1      -7.106  -2.142 131.766  0.00  0.00    +0.051 C 
ATOM      8  C   LIG A   1      -7.536  -1.043 130.771  0.00  0.00    +0.187 C 
ATOM      9  C   LIG A   1      -5.188  -3.240 133.112  0.00  0.00    +0.031 C 
ATOM     10  C   LIG A   1      -3.688  -3.166 133.462  0.00  0.00    +0.019 C 
ATOM     11  C   LIG A   1      -5.951  -2.822 134.393  0.00  0.00    +0.019 C 
ATOM     12  C   LIG A   1      -5.506  -4.700 132.800  0.00  0.00    +0.162 C 
ATOM     13  O   LIG A   1      -5.900  -5.504 133.643  0.00  0.00    -0.292 OA
ATOM     14  C   LIG A   1      -5.214  -5.196 131.438  0.00  0.00    +0.043 C 
ATOM     15  C   LIG A   1      -4.946  -4.358 130.430  0.00  0.00    -0.016 C 
ATOM     16  C   LIG A   1      -5.393  -2.532 127.859  0.00  0.00    +0.006 C 
ATOM     17  C   LIG A   1      -6.333  -2.098 126.711  0.00  0.00    +0.012 C 
ATOM     18  C   LIG A   1      -7.733  -1.625 127.121  0.00  0.00    -0.007 C 
ATOM     19  C   LIG A   1      -7.545  -0.648 128.270  0.00  0.00    -0.058 C 
ATOM     20  C   LIG A   1      -8.103   0.543 128.005  0.00  0.00    -0.026 C 
ATOM     21  C   LIG A   1      -8.680   0.647 126.642  0.00  0.00    +0.032 C 
ATOM     22  C   LIG A   1      -8.547  -0.774 126.059  0.00  0.00    +0.010 C 
ATOM     23  C   LIG A   1      -8.653  -2.814 127.502  0.00  0.00    +0.016 C 
ENDROOT
BRANCH  22  24
ATOM     24  C   LIG A   1      -8.218  -0.765 124.541  0.00  0.00    +0.041 C 
ATOM     25  C   LIG A   1      -8.684   0.453 123.766  0.00  0.00    +0.127 C 
ATOM     26  C   LIG A   1      -9.682  -0.088 122.795  0.00  0.00    +0.307 C 
ATOM     27  O   LIG A   1     -10.414   0.593 122.089  0.00  0.00    -0.251 OA
ATOM     28  O   LIG A   1      -9.668  -1.445 122.786  0.00  0.00    -0.464 OA
ATOM     29  C   LIG A   1      -8.704  -1.939 123.712  0.00  0.00    +0.236 C 
ENDBRANCH  22  24
BRANCH   8  30
ATOM     30  O   LIG A   1      -7.520   0.234 131.455  0.00  0.00    -0.461 OA
BRANCH  30  31
ATOM     31  C   LIG A   1      -8.720   0.867 131.581  0.00  0.00    +0.304 C 
ATOM     32  O   LIG A   1      -9.767   0.346 131.935  0.00  0.00    -0.251 OA
ATOM     33  C   LIG A   1      -8.564   2.329 131.294  0.00  0.00    +0.136 C 
ENDBRANCH  30  31
ENDBRANCH   8  30
TORSDOF 3
ENDMDL
MODEL 2
REMARK VINA RESULT:      -8.8      2.335      8.199
REMARK  Name = NuBBE_1145
REMARK  9 active torsions:
REMARK  status: ('A' for Active; 'I' for Inactive)
REMARK    1  A    between atoms: C_1  and  C_2
REMARK    2  A    between atoms: C_5  and  C_6
REMARK    3  A    between atoms: C_10  and  O_12
REMARK    4  A    between atoms: O_12  and  C_13
REMARK    5  A    between atoms: C_13  and  C_15
REMARK    6  A    between atoms: C_16  and  C_17
REMARK    7  A    between atoms: C_16  and  C_18
REMARK    8  A    between atoms: C_25  and  C_38
REMARK    9  A    between atoms: C_29  and  C_31
REMARK                            x       y       z     vdW  Elec       q    Type
REMARK                         _______ _______ _______ _____ _____    ______ ____
ROOT
ATOM      1  C   LIG A   1      -5.474  -1.255 126.481  0.00  0.00    +0.020 C 
ATOM      2  C   LIG A   1      -6.635  -0.699 127.351  0.00  0.00    +0.030 C 
ATOM      3  C   LIG A   1      -6.285   0.727 127.895  0.00  0.00    +0.012 C 
ATOM      4  C   LIG A   1      -6.060   1.850 126.781  0.00  0.00    -0.006 C 
ATOM      5  C   LIG A   1      -4.583   1.923 126.329  0.00  0.00    +0.016 C 
ATOM      6  C   LIG A   1      -7.037   1.607 125.552  0.00  0.00    +0.016 C 
ATOM      7  C   LIG A   1      -8.287   0.819 126.030  0.00  0.00    +0.051 C 
ATOM      8  C   LIG A   1      -7.975  -0.601 126.550  0.00  0.00    +0.187 C 
ATOM      9  C   LIG A   1      -7.451   2.911 124.757  0.00  0.00    +0.031 C 
ATOM     10  C   LIG A   1      -6.274   3.523 123.970  0.00  0.00    +0.019 C 
ATOM     11  C   LIG A   1      -8.564   2.629 123.719  0.00  0.00    +0.019 C 
ATOM     12  C   LIG A   1      -7.943   3.976 125.734  0.00  0.00    +0.162 C 
ATOM     13  O   LIG A   1      -8.838   4.778 125.470  0.00  0.00    -0.292 OA
ATOM     14  C   LIG A   1      -7.224   4.122 127.018  0.00  0.00    +0.043 C 
ATOM     15  C   LIG A   1      -6.360   3.194 127.447  0.00  0.00    -0.016 C 
ATOM     16  C   LIG A   1      -5.217   0.668 129.014  0.00  0.00    +0.006 C 
ATOM     17  C   LIG A   1      -5.443  -0.409 130.099  0.00  0.00    +0.012 C 
ATOM     18  C   LIG A   1      -6.728  -1.240 129.975  0.00  0.00    -0.007 C 
ATOM     19  C   LIG A   1      -6.822  -1.685 128.525  0.00  0.00    -0.058 C 
ATOM     20  C   LIG A   1      -6.912  -3.019 128.421  0.00  0.00    -0.026 C 
ATOM     21  C   LIG A   1      -6.808  -3.733 129.719  0.00  0.00    +0.032 C 
ATOM     22  C   LIG A   1      -6.781  -2.608 130.773  0.00  0.00    +0.010 C 
ATOM     23  C   LIG A   1      -7.975  -0.438 130.429  0.00  0.00    +0.016 C 
ENDROOT
BRANCH  22  24
ATOM     24  C   LIG A   1      -5.843  -2.936 131.968  0.00  0.00    +0.041 C 
ATOM     25  C   LIG A   1      -5.672  -4.408 132.294  0.00  0.00    +0.127 C 
ATOM     26  C   LIG A   1      -6.249  -4.552 133.664  0.00  0.00    +0.307 C 
ATOM     27  O   LIG A   1      -6.453  -5.617 134.231  0.00  0.00    -0.251 OA
ATOM     28  O   LIG A   1      -6.515  -3.339 134.211  0.00  0.00    -0.464 OA
ATOM     29  C   LIG A   1      -6.163  -2.296 133.306  0.00  0.00    +0.236 C 
ENDBRANCH  22  24
BRANCH   8  30
ATOM     30  O   LIG A   1      -7.950  -1.512 125.424  0.00  0.00    -0.461 OA
BRANCH  30  31
ATOM     31  C   LIG A   1      -8.847  -2.537 125.455  0.00  0.00    +0.304 C 
ATOM     32  O   LIG A   1     -10.019  -2.449 125.788  0.00  0.00    -0.251 OA
ATOM     33  C   LIG A   1      -8.210  -3.794 124.948  0.00  0.00    +0.136 C 
ENDBRANCH  30  31
ENDBRANCH   8  30
TORSDOF 3
ENDMDL
MODEL 3
REMARK VINA RESULT:      -8.7      4.509      6.502
REMARK  Name = NuBBE_1145
REMARK  9 active torsions:
REMARK  status: ('A' for Active; 'I' for Inactive)
REMARK    1  A    between atoms: C_1  and  C_2
REMARK    2  A    between atoms: C_5  and  C_6
REMARK    3  A    between atoms: C_10  and  O_12
REMARK    4  A    between atoms: O_12  and  C_13
REMARK    5  A    between atoms: C_13  and  C_15
REMARK    6  A    between atoms: C_16  and  C_17
REMARK    7  A    between atoms: C_16  and  C_18
REMARK    8  A    between atoms: C_25  and  C_38
REMARK    9  A    between atoms: C_29  and  C_31
REMARK                            x       y       z     vdW  Elec       q    Type
REMARK                         _______ _______ _______ _____ _____    ______ ____
ROOT
ATOM      1  C   LIG A   1      -4.985   2.225 128.025  0.00  0.00    +0.020 C 
ATOM      2  C   LIG A   1      -6.062   3.321 127.803  0.00  0.00    +0.030 C 
ATOM      3  C   LIG A   1      -7.485   2.780 128.172  0.00  0.00    +0.012 C 
ATOM      4  C   LIG A   1      -7.680   2.346 129.697  0.00  0.00    -0.006 C 
ATOM      5  C   LIG A   1      -7.321   0.859 129.921  0.00  0.00    +0.016 C 
ATOM      6  C   LIG A   1      -6.842   3.300 130.650  0.00  0.00    +0.016 C 
ATOM      7  C   LIG A   1      -6.628   4.672 129.955  0.00  0.00    +0.051 C 
ATOM      8  C   LIG A   1      -5.788   4.599 128.662  0.00  0.00    +0.187 C 
ATOM      9  C   LIG A   1      -7.434   3.482 132.106  0.00  0.00    +0.031 C 
ATOM     10  C   LIG A   1      -7.329   2.196 132.952  0.00  0.00    +0.019 C 
ATOM     11  C   LIG A   1      -6.693   4.583 132.902  0.00  0.00    +0.019 C 
ATOM     12  C   LIG A   1      -8.915   3.844 132.019  0.00  0.00    +0.162 C 
ATOM     13  O   LIG A   1      -9.477   4.597 132.812  0.00  0.00    -0.292 OA
ATOM     14  C   LIG A   1      -9.735   3.162 130.995  0.00  0.00    +0.043 C 
ATOM     15  C   LIG A   1      -9.175   2.465 129.999  0.00  0.00    -0.016 C 
ATOM     16  C   LIG A   1      -8.010   1.778 127.116  0.00  0.00    +0.006 C 
ATOM     17  C   LIG A   1      -7.834   2.206 125.641  0.00  0.00    +0.012 C 
ATOM     18  C   LIG A   1      -7.227   3.595 125.404  0.00  0.00    -0.007 C 
ATOM     19  C   LIG A   1      -6.008   3.700 126.307  0.00  0.00    -0.058 C 
ATOM     20  C   LIG A   1      -4.899   3.986 125.610  0.00  0.00    -0.026 C 
ATOM     21  C   LIG A   1      -5.107   4.041 124.141  0.00  0.00    +0.032 C 
ATOM     22  C   LIG A   1      -6.631   3.885 123.964  0.00  0.00    +0.010 C 
ATOM     23  C   LIG A   1      -8.257   4.724 125.669  0.00  0.00    +0.016 C 
ENDROOT
BRANCH  22  24
ATOM     24  C   LIG A   1      -7.001   3.055 122.704  0.00  0.00    +0.041 C 
ATOM     25  C   LIG A   1      -6.197   3.353 121.452  0.00  0.00    +0.127 C 
ATOM     26  C   LIG A   1      -7.204   3.889 120.487  0.00  0.00    +0.307 C 
ATOM     27  O   LIG A   1      -6.938   4.401 119.408  0.00  0.00    -0.251 OA
ATOM     28  O   LIG A   1      -8.466   3.728 120.959  0.00  0.00    -0.464 OA
ATOM     29  C   LIG A   1      -8.443   3.096 122.237  0.00  0.00    +0.236 C 
ENDBRANCH  22  24
BRANCH   8  30
ATOM     30  O   LIG A   1      -4.385   4.668 129.016  0.00  0.00    -0.461 OA
BRANCH  30  31
ATOM     31  C   LIG A   1      -3.732   5.817 128.683  0.00  0.00    +0.304 C 
ATOM     32  O   LIG A   1      -4.101   6.629 127.847  0.00  0.00    -0.251 OA
ATOM     33  C   LIG A   1      -2.519   5.989 129.544  0.00  0.00    +0.136 C 
ENDBRANCH  30  31
ENDBRANCH   8  30
TORSDOF 3
ENDMDL
MODEL 4
REMARK VINA RESULT:      -8.6      4.399      8.012
REMARK  Name = NuBBE_1145
REMARK  9 active torsions:
REMARK  status: ('A' for Active; 'I' for Inactive)
REMARK    1  A    between atoms: C_1  and  C_2
REMARK    2  A    between atoms: C_5  and  C_6
REMARK    3  A    between atoms: C_10  and  O_12
REMARK    4  A    between atoms: O_12  and  C_13
REMARK    5  A    between atoms: C_13  and  C_15
REMARK    6  A    between atoms: C_16  and  C_17
REMARK    7  A    between atoms: C_16  and  C_18
REMARK    8  A    between atoms: C_25  and  C_38
REMARK    9  A    between atoms: C_29  and  C_31
REMARK                            x       y       z     vdW  Elec       q    Type
REMARK                         _______ _______ _______ _____ _____    ______ ____
ROOT
ATOM      1  C   LIG A   1      -7.829   2.394 126.962  0.00  0.00    +0.020 C 
ATOM      2  C   LIG A   1      -6.483   2.048 126.267  0.00  0.00    +0.030 C 
ATOM      3  C   LIG A   1      -5.854   0.758 126.895  0.00  0.00    +0.012 C 
ATOM      4  C   LIG A   1      -6.725  -0.573 126.745  0.00  0.00    -0.006 C 
ATOM      5  C   LIG A   1      -7.696  -0.761 127.933  0.00  0.00    +0.016 C 
ATOM      6  C   LIG A   1      -7.493  -0.572 125.355  0.00  0.00    +0.016 C 
ATOM      7  C   LIG A   1      -6.727   0.317 124.338  0.00  0.00    +0.051 C 
ATOM      8  C   LIG A   1      -6.658   1.808 124.732  0.00  0.00    +0.187 C 
ATOM      9  C   LIG A   1      -7.792  -2.005 124.753  0.00  0.00    +0.031 C 
ATOM     10  C   LIG A   1      -8.841  -2.784 125.572  0.00  0.00    +0.019 C 
ATOM     11  C   LIG A   1      -8.344  -1.925 123.309  0.00  0.00    +0.019 C 
ATOM     12  C   LIG A   1      -6.513  -2.839 124.749  0.00  0.00    +0.162 C 
ATOM     13  O   LIG A   1      -6.243  -3.663 123.877  0.00  0.00    -0.292 OA
ATOM     14  C   LIG A   1      -5.612  -2.729 125.916  0.00  0.00    +0.043 C 
ATOM     15  C   LIG A   1      -5.746  -1.747 126.815  0.00  0.00    -0.016 C 
ATOM     16  C   LIG A   1      -5.277   1.028 128.306  0.00  0.00    +0.006 C 
ATOM     17  C   LIG A   1      -4.424   2.309 128.446  0.00  0.00    +0.012 C 
ATOM     18  C   LIG A   1      -4.193   3.117 127.162  0.00  0.00    -0.007 C 
ATOM     19  C   LIG A   1      -5.547   3.256 126.485  0.00  0.00    -0.058 C 
ATOM     20  C   LIG A   1      -5.865   4.542 126.273  0.00  0.00    -0.026 C 
ATOM     21  C   LIG A   1      -4.878   5.505 126.823  0.00  0.00    +0.032 C 
ATOM     22  C   LIG A   1      -3.721   4.621 127.331  0.00  0.00    +0.010 C 
ATOM     23  C   LIG A   1      -3.140   2.445 126.243  0.00  0.00    +0.016 C 
ENDROOT
BRANCH  22  24
ATOM     24  C   LIG A   1      -3.079   5.172 128.633  0.00  0.00    +0.041 C 
ATOM     25  C   LIG A   1      -4.032   5.436 129.784  0.00  0.00    +0.127 C 
ATOM     26  C   LIG A   1      -3.952   6.912 129.997  0.00  0.00    +0.307 C 
ATOM     27  O   LIG A   1      -4.690   7.556 130.731  0.00  0.00    -0.251 OA
ATOM     28  O   LIG A   1      -2.941   7.455 129.274  0.00  0.00    -0.464 OA
ATOM     29  C   LIG A   1      -2.264   6.447 128.528  0.00  0.00    +0.236 C 
ENDBRANCH  22  24
BRANCH   8  30
ATOM     30  O   LIG A   1      -7.858   2.468 124.259  0.00  0.00    -0.461 OA
BRANCH  30  31
ATOM     31  C   LIG A   1      -7.777   3.070 123.039  0.00  0.00    +0.304 C 
ATOM     32  O   LIG A   1      -8.712   3.261 122.275  0.00  0.00    -0.251 OA
ATOM     33  C   LIG A   1      -6.377   3.540 122.788  0.00  0.00    +0.136 C 
ENDBRANCH  30  31
ENDBRANCH   8  30
TORSDOF 3
ENDMDL
MODEL 5
REMARK VINA RESULT:      -8.5      3.752      8.024
REMARK  Name = NuBBE_1145
REMARK  9 active torsions:
REMARK  status: ('A' for Active; 'I' for Inactive)
REMARK    1  A    between atoms: C_1  and  C_2
REMARK    2  A    between atoms: C_5  and  C_6
REMARK    3  A    between atoms: C_10  and  O_12
REMARK    4  A    between atoms: O_12  and  C_13
REMARK    5  A    between atoms: C_13  and  C_15
REMARK    6  A    between atoms: C_16  and  C_17
REMARK    7  A    between atoms: C_16  and  C_18
REMARK    8  A    between atoms: C_25  and  C_38
REMARK    9  A    between atoms: C_29  and  C_31
REMARK                            x       y       z     vdW  Elec       q    Type
REMARK                         _______ _______ _______ _____ _____    ______ ____
ROOT
ATOM      1  C   LIG A   1      -6.112   2.643 132.558  0.00  0.00    +0.020 C 
ATOM      2  C   LIG A   1      -6.622   2.388 131.113  0.00  0.00    +0.030 C 
ATOM      3  C   LIG A   1      -8.146   2.028 131.120  0.00  0.00    +0.012 C 
ATOM      4  C   LIG A   1      -9.117   3.165 131.682  0.00  0.00    -0.006 C 
ATOM      5  C   LIG A   1      -9.327   3.040 133.208  0.00  0.00    +0.016 C 
ATOM      6  C   LIG A   1      -8.568   4.601 131.282  0.00  0.00    +0.016 C 
ATOM      7  C   LIG A   1      -7.693   4.486 130.005  0.00  0.00    +0.051 C 
ATOM      8  C   LIG A   1      -6.419   3.634 130.189  0.00  0.00    +0.187 C 
ATOM      9  C   LIG A   1      -9.674   5.721 131.120  0.00  0.00    +0.031 C 
ATOM     10  C   LIG A   1     -10.323   6.111 132.464  0.00  0.00    +0.019 C 
ATOM     11  C   LIG A   1      -9.096   7.028 130.525  0.00  0.00    +0.019 C 
ATOM     12  C   LIG A   1     -10.791   5.214 130.211  0.00  0.00    +0.162 C 
ATOM     13  O   LIG A   1     -11.416   5.936 129.436  0.00  0.00    -0.292 OA
ATOM     14  C   LIG A   1     -11.218   3.806 130.359  0.00  0.00    +0.043 C 
ATOM     15  C   LIG A   1     -10.489   2.922 131.050  0.00  0.00    -0.016 C 
ATOM     16  C   LIG A   1      -8.397   0.601 131.667  0.00  0.00    +0.006 C 
ATOM     17  C   LIG A   1      -7.466  -0.501 131.112  0.00  0.00    +0.012 C 
ATOM     18  C   LIG A   1      -6.458  -0.064 130.041  0.00  0.00    -0.007 C 
ATOM     19  C   LIG A   1      -5.799   1.207 130.553  0.00  0.00    -0.058 C 
ATOM     20  C   LIG A   1      -4.464   1.086 130.606  0.00  0.00    -0.026 C 
ATOM     21  C   LIG A   1      -3.966  -0.264 130.245  0.00  0.00    +0.032 C 
ATOM     22  C   LIG A   1      -5.224  -1.025 129.778  0.00  0.00    +0.010 C 
ATOM     23  C   LIG A   1      -7.137   0.137 128.661  0.00  0.00    +0.016 C 
ENDROOT
BRANCH  22  24
ATOM     24  C   LIG A   1      -5.204  -2.521 130.195  0.00  0.00    +0.041 C 
ATOM     25  C   LIG A   1      -4.976  -2.797 131.669  0.00  0.00    +0.127 C 
ATOM     26  C   LIG A   1      -3.676  -3.531 131.710  0.00  0.00    +0.307 C 
ATOM     27  O   LIG A   1      -3.052  -3.798 132.729  0.00  0.00    -0.251 OA
ATOM     28  O   LIG A   1      -3.272  -3.878 130.462  0.00  0.00    -0.464 OA
ATOM     29  C   LIG A   1      -4.215  -3.431 129.491  0.00  0.00    +0.236 C 
ENDBRANCH  22  24
BRANCH   8  30
ATOM     30  O   LIG A   1      -5.368   4.478 130.717  0.00  0.00    -0.461 OA
BRANCH  30  31
ATOM     31  C   LIG A   1      -4.641   5.182 129.804  0.00  0.00    +0.304 C 
ATOM     32  O   LIG A   1      -4.840   6.342 129.475  0.00  0.00    -0.251 OA
ATOM     33  C   LIG A   1      -3.500   4.351 129.303  0.00  0.00    +0.136 C 
ENDBRANCH  30  31
ENDBRANCH   8  30
TORSDOF 3
ENDMDL
MODEL 6
REMARK VINA RESULT:      -8.2      2.693      5.967
REMARK  Name = NuBBE_1145
REMARK  9 active torsions:
REMARK  status: ('A' for Active; 'I' for Inactive)
REMARK    1  A    between atoms: C_1  and  C_2
REMARK    2  A    between atoms: C_5  and  C_6
REMARK    3  A    between atoms: C_10  and  O_12
REMARK    4  A    between atoms: O_12  and  C_13
REMARK    5  A    between atoms: C_13  and  C_15
REMARK    6  A    between atoms: C_16  and  C_17
REMARK    7  A    between atoms: C_16  and  C_18
REMARK    8  A    between atoms: C_25  and  C_38
REMARK    9  A    between atoms: C_29  and  C_31
REMARK                            x       y       z     vdW  Elec       q    Type
REMARK                         _______ _______ _______ _____ _____    ______ ____
ROOT
ATOM      1  C   LIG A   1      -9.388   0.746 131.833  0.00  0.00    +0.020 C 
ATOM      2  C   LIG A   1      -7.972   0.990 131.242  0.00  0.00    +0.030 C 
ATOM      3  C   LIG A   1      -7.873   2.423 130.616  0.00  0.00    +0.012 C 
ATOM      4  C   LIG A   1      -8.084   3.633 131.638  0.00  0.00    -0.006 C 
ATOM      5  C   LIG A   1      -9.571   4.044 131.743  0.00  0.00    +0.016 C 
ATOM      6  C   LIG A   1      -7.476   3.265 133.058  0.00  0.00    +0.016 C 
ATOM      7  C   LIG A   1      -6.357   2.203 132.885  0.00  0.00    +0.051 C 
ATOM      8  C   LIG A   1      -6.851   0.852 132.324  0.00  0.00    +0.187 C 
ATOM      9  C   LIG A   1      -6.970   4.497 133.912  0.00  0.00    +0.031 C 
ATOM     10  C   LIG A   1      -8.127   5.391 134.404  0.00  0.00    +0.019 C 
ATOM     11  C   LIG A   1      -6.201   4.050 135.178  0.00  0.00    +0.019 C 
ATOM     12  C   LIG A   1      -6.056   5.373 133.059  0.00  0.00    +0.162 C 
ATOM     13  O   LIG A   1      -5.087   5.982 133.509  0.00  0.00    -0.292 OA
ATOM     14  C   LIG A   1      -6.427   5.589 131.644  0.00  0.00    +0.043 C 
ATOM     15  C   LIG A   1      -7.358   4.840 131.042  0.00  0.00    -0.016 C 
ATOM     16  C   LIG A   1      -8.657   2.523 129.285  0.00  0.00    +0.006 C 
ATOM     17  C   LIG A   1      -8.441   1.358 128.293  0.00  0.00    +0.012 C 
ATOM     18  C   LIG A   1      -7.429   0.285 128.713  0.00  0.00    -0.007 C 
ATOM     19  C   LIG A   1      -7.754  -0.082 130.152  0.00  0.00    -0.058 C 
ATOM     20  C   LIG A   1      -7.985  -1.396 130.289  0.00  0.00    -0.026 C 
ATOM     21  C   LIG A   1      -7.956  -2.149 129.010  0.00  0.00    +0.032 C 
ATOM     22  C   LIG A   1      -7.505  -1.110 127.963  0.00  0.00    +0.010 C 
ATOM     23  C   LIG A   1      -5.968   0.776 128.545  0.00  0.00    +0.016 C 
ENDROOT
BRANCH  22  24
ATOM     24  C   LIG A   1      -8.207  -1.305 126.592  0.00  0.00    +0.041 C 
ATOM     25  C   LIG A   1      -8.812  -2.674 126.343  0.00  0.00    +0.127 C 
ATOM     26  C   LIG A   1      -8.034  -3.215 125.188  0.00  0.00    +0.307 C 
ATOM     27  O   LIG A   1      -8.100  -4.366 124.776  0.00  0.00    -0.251 OA
ATOM     28  O   LIG A   1      -7.241  -2.259 124.642  0.00  0.00    -0.464 OA
ATOM     29  C   LIG A   1      -7.393  -1.027 125.342  0.00  0.00    +0.236 C 
ENDBRANCH  22  24
BRANCH   8  30
ATOM     30  O   LIG A   1      -7.321   0.037 133.426  0.00  0.00    -0.461 OA
BRANCH  30  31
ATOM     31  C   LIG A   1      -6.437  -0.871 133.927  0.00  0.00    +0.304 C 
ATOM     32  O   LIG A   1      -6.499  -1.392 135.031  0.00  0.00    -0.251 OA
ATOM     33  C   LIG A   1      -5.401  -1.204 132.898  0.00  0.00    +0.136 C 
ENDBRANCH  30  31
ENDBRANCH   8  30
TORSDOF 3
ENDMDL
MODEL 7
REMARK VINA RESULT:      -8.2      4.169      6.559
REMARK  Name = NuBBE_1145
REMARK  9 active torsions:
REMARK  status: ('A' for Active; 'I' for Inactive)
REMARK    1  A    between atoms: C_1  and  C_2
REMARK    2  A    between atoms: C_5  and  C_6
REMARK    3  A    between atoms: C_10  and  O_12
REMARK    4  A    between atoms: O_12  and  C_13
REMARK    5  A    between atoms: C_13  and  C_15
REMARK    6  A    between atoms: C_16  and  C_17
REMARK    7  A    between atoms: C_16  and  C_18
REMARK    8  A    between atoms: C_25  and  C_38
REMARK    9  A    between atoms: C_29  and  C_31
REMARK                            x       y       z     vdW  Elec       q    Type
REMARK                         _______ _______ _______ _____ _____    ______ ____
ROOT
ATOM      1  C   LIG A   1      -5.194   1.883 129.796  0.00  0.00    +0.020 C 
ATOM      2  C   LIG A   1      -6.365   2.286 128.859  0.00  0.00    +0.030 C 
ATOM      3  C   LIG A   1      -7.744   2.033 129.557  0.00  0.00    +0.012 C 
ATOM      4  C   LIG A   1      -8.003   2.876 130.890  0.00  0.00    -0.006 C 
ATOM      5  C   LIG A   1      -7.502   2.130 132.148  0.00  0.00    +0.016 C 
ATOM      6  C   LIG A   1      -7.347   4.317 130.763  0.00  0.00    +0.016 C 
ATOM      7  C   LIG A   1      -7.234   4.707 129.264  0.00  0.00    +0.051 C 
ATOM      8  C   LIG A   1      -6.297   3.793 128.445  0.00  0.00    +0.187 C 
ATOM      9  C   LIG A   1      -8.062   5.455 131.599  0.00  0.00    +0.031 C 
ATOM     10  C   LIG A   1      -7.881   5.275 133.120  0.00  0.00    +0.019 C 
ATOM     11  C   LIG A   1      -7.507   6.859 131.261  0.00  0.00    +0.019 C 
ATOM     12  C   LIG A   1      -9.563   5.434 131.319  0.00  0.00    +0.162 C 
ATOM     13  O   LIG A   1     -10.261   6.446 131.288  0.00  0.00    -0.292 OA
ATOM     14  C   LIG A   1     -10.225   4.118 131.193  0.00  0.00    +0.043 C 
ATOM     15  C   LIG A   1      -9.520   2.990 131.048  0.00  0.00    -0.016 C 
ATOM     16  C   LIG A   1      -8.077   0.524 129.642  0.00  0.00    +0.006 C 
ATOM     17  C   LIG A   1      -7.839  -0.287 128.348  0.00  0.00    +0.012 C 
ATOM     18  C   LIG A   1      -7.372   0.508 127.122  0.00  0.00    -0.007 C 
ATOM     19  C   LIG A   1      -6.242   1.411 127.592  0.00  0.00    -0.058 C 
ATOM     20  C   LIG A   1      -5.122   1.212 126.882  0.00  0.00    -0.026 C 
ATOM     21  C   LIG A   1      -5.225   0.116 125.887  0.00  0.00    +0.032 C 
ATOM     22  C   LIG A   1      -6.706  -0.313 125.941  0.00  0.00    +0.010 C 
ATOM     23  C   LIG A   1      -8.536   1.306 126.478  0.00  0.00    +0.016 C 
ENDROOT
BRANCH  22  24
ATOM     24  C   LIG A   1      -6.888  -1.844 125.758  0.00  0.00    +0.041 C 
ATOM     25  C   LIG A   1      -5.622  -2.638 125.498  0.00  0.00    +0.127 C 
ATOM     26  C   LIG A   1      -5.812  -3.197 124.125  0.00  0.00    +0.307 C 
ATOM     27  O   LIG A   1      -4.948  -3.768 123.474  0.00  0.00    -0.251 OA
ATOM     28  O   LIG A   1      -7.082  -2.998 123.689  0.00  0.00    -0.464 OA
ATOM     29  C   LIG A   1      -7.846  -2.311 124.678  0.00  0.00    +0.236 C 
ENDBRANCH  22  24
BRANCH   8  30
ATOM     30  O   LIG A   1      -4.940   4.283 128.577  0.00  0.00    -0.461 OA
BRANCH  30  31
ATOM     31  C   LIG A   1      -4.393   4.855 127.468  0.00  0.00    +0.304 C 
ATOM     32  O   LIG A   1      -4.915   5.723 126.782  0.00  0.00    -0.251 OA
ATOM     33  C   LIG A   1      -3.013   4.322 127.239  0.00  0.00    +0.136 C 
ENDBRANCH  30  31
ENDBRANCH   8  30
TORSDOF 3
ENDMDL
MODEL 8
REMARK VINA RESULT:      -8.2      3.934      6.017
REMARK  Name = NuBBE_1145
REMARK  9 active torsions:
REMARK  status: ('A' for Active; 'I' for Inactive)
REMARK    1  A    between atoms: C_1  and  C_2
REMARK    2  A    between atoms: C_5  and  C_6
REMARK    3  A    between atoms: C_10  and  O_12
REMARK    4  A    between atoms: O_12  and  C_13
REMARK    5  A    between atoms: C_13  and  C_15
REMARK    6  A    between atoms: C_16  and  C_17
REMARK    7  A    between atoms: C_16  and  C_18
REMARK    8  A    between atoms: C_25  and  C_38
REMARK    9  A    between atoms: C_29  and  C_31
REMARK                            x       y       z     vdW  Elec       q    Type
REMARK                         _______ _______ _______ _____ _____    ______ ____
ROOT
ATOM      1  C   LIG A   1      -7.479   4.121 126.650  0.00  0.00    +0.020 C 
ATOM      2  C   LIG A   1      -7.142   3.050 127.724  0.00  0.00    +0.030 C 
ATOM      3  C   LIG A   1      -5.593   2.931 127.919  0.00  0.00    +0.012 C 
ATOM      4  C   LIG A   1      -4.865   4.253 128.445  0.00  0.00    -0.006 C 
ATOM      5  C   LIG A   1      -4.405   5.158 127.280  0.00  0.00    +0.016 C 
ATOM      6  C   LIG A   1      -5.809   5.033 129.457  0.00  0.00    +0.016 C 
ATOM      7  C   LIG A   1      -6.808   4.039 130.108  0.00  0.00    +0.051 C 
ATOM      8  C   LIG A   1      -7.786   3.383 129.110  0.00  0.00    +0.187 C 
ATOM      9  C   LIG A   1      -5.055   5.890 130.553  0.00  0.00    +0.031 C 
ATOM     10  C   LIG A   1      -4.332   7.114 129.954  0.00  0.00    +0.019 C 
ATOM     11  C   LIG A   1      -6.024   6.443 131.625  0.00  0.00    +0.019 C 
ATOM     12  C   LIG A   1      -3.995   5.031 131.238  0.00  0.00    +0.162 C 
ATOM     13  O   LIG A   1      -3.694   5.144 132.425  0.00  0.00    -0.292 OA
ATOM     14  C   LIG A   1      -3.213   4.097 130.400  0.00  0.00    +0.043 C 
ATOM     15  C   LIG A   1      -3.586   3.797 129.150  0.00  0.00    -0.016 C 
ATOM     16  C   LIG A   1      -4.915   2.223 126.722  0.00  0.00    +0.006 C 
ATOM     17  C   LIG A   1      -5.612   0.937 126.223  0.00  0.00    +0.012 C 
ATOM     18  C   LIG A   1      -6.846   0.481 127.014  0.00  0.00    -0.007 C 
ATOM     19  C   LIG A   1      -7.717   1.711 127.211  0.00  0.00    -0.058 C 
ATOM     20  C   LIG A   1      -8.956   1.522 126.733  0.00  0.00    -0.026 C 
ATOM     21  C   LIG A   1      -9.149   0.214 126.058  0.00  0.00    +0.032 C 
ATOM     22  C   LIG A   1      -7.825  -0.540 126.298  0.00  0.00    +0.010 C 
ATOM     23  C   LIG A   1      -6.452  -0.184 128.359  0.00  0.00    +0.016 C 
ENDROOT
BRANCH  22  24
ATOM     24  C   LIG A   1      -7.408  -1.411 125.082  0.00  0.00    +0.041 C 
ATOM     25  C   LIG A   1      -8.422  -1.512 123.958  0.00  0.00    +0.127 C 
ATOM     26  C   LIG A   1      -8.795  -2.959 123.927  0.00  0.00    +0.307 C 
ATOM     27  O   LIG A   1      -9.709  -3.433 123.267  0.00  0.00    -0.251 OA
ATOM     28  O   LIG A   1      -7.978  -3.690 124.726  0.00  0.00    -0.464 OA
ATOM     29  C   LIG A   1      -7.012  -2.850 125.354  0.00  0.00    +0.236 C 
ENDBRANCH  22  24
BRANCH   8  30
ATOM     30  O   LIG A   1      -8.924   4.261 128.931  0.00  0.00    -0.461 OA
BRANCH  30  31
ATOM     31  C   LIG A   1      -9.651   4.545 130.048  0.00  0.00    +0.304 C 
ATOM     32  O   LIG A   1      -9.739   5.641 130.582  0.00  0.00    -0.251 OA
ATOM     33  C   LIG A   1     -10.398   3.328 130.500  0.00  0.00    +0.136 C 
ENDBRANCH  30  31
ENDBRANCH   8  30
TORSDOF 3
ENDMDL
MODEL 9
REMARK VINA RESULT:      -8.2      6.454     10.183
REMARK  Name = NuBBE_1145
REMARK  9 active torsions:
REMARK  status: ('A' for Active; 'I' for Inactive)
REMARK    1  A    between atoms: C_1  and  C_2
REMARK    2  A    between atoms: C_5  and  C_6
REMARK    3  A    between atoms: C_10  and  O_12
REMARK    4  A    between atoms: O_12  and  C_13
REMARK    5  A    between atoms: C_13  and  C_15
REMARK    6  A    between atoms: C_16  and  C_17
REMARK    7  A    between atoms: C_16  and  C_18
REMARK    8  A    between atoms: C_25  and  C_38
REMARK    9  A    between atoms: C_29  and  C_31
REMARK                            x       y       z     vdW  Elec       q    Type
REMARK                         _______ _______ _______ _____ _____    ______ ____
ROOT
ATOM      1  C   LIG A   1      -7.001   6.513 131.525  0.00  0.00    +0.020 C 
ATOM      2  C   LIG A   1      -5.784   5.555 131.653  0.00  0.00    +0.030 C 
ATOM      3  C   LIG A   1      -5.875   4.719 132.974  0.00  0.00    +0.012 C 
ATOM      4  C   LIG A   1      -7.144   3.755 133.090  0.00  0.00    -0.006 C 
ATOM      5  C   LIG A   1      -8.349   4.469 133.744  0.00  0.00    +0.016 C 
ATOM      6  C   LIG A   1      -7.516   3.164 131.664  0.00  0.00    +0.016 C 
ATOM      7  C   LIG A   1      -6.254   3.155 130.759  0.00  0.00    +0.051 C 
ATOM      8  C   LIG A   1      -5.691   4.559 130.450  0.00  0.00    +0.187 C 
ATOM      9  C   LIG A   1      -8.214   1.744 131.688  0.00  0.00    +0.031 C 
ATOM     10  C   LIG A   1      -9.641   1.796 132.272  0.00  0.00    +0.019 C 
ATOM     11  C   LIG A   1      -8.350   1.140 130.269  0.00  0.00    +0.019 C 
ATOM     12  C   LIG A   1      -7.405   0.787 132.559  0.00  0.00    +0.162 C 
ATOM     13  O   LIG A   1      -7.295  -0.416 132.325  0.00  0.00    -0.292 OA
ATOM     14  C   LIG A   1      -6.821   1.316 133.810  0.00  0.00    +0.043 C 
ATOM     15  C   LIG A   1      -6.753   2.631 134.051  0.00  0.00    -0.016 C 
ATOM     16  C   LIG A   1      -5.571   5.583 134.222  0.00  0.00    +0.006 C 
ATOM     17  C   LIG A   1      -4.335   6.504 134.113  0.00  0.00    +0.012 C 
ATOM     18  C   LIG A   1      -3.522   6.402 132.816  0.00  0.00    -0.007 C 
ATOM     19  C   LIG A   1      -4.521   6.443 131.670  0.00  0.00    -0.058 C 
ATOM     20  C   LIG A   1      -4.248   7.435 130.810  0.00  0.00    -0.026 C 
ATOM     21  C   LIG A   1      -3.111   8.295 131.224  0.00  0.00    +0.032 C 
ATOM     22  C   LIG A   1      -2.545   7.604 132.481  0.00  0.00    +0.010 C 
ATOM     23  C   LIG A   1      -2.644   5.124 132.789  0.00  0.00    +0.016 C 
ENDROOT
BRANCH  22  24
ATOM     24  C   LIG A   1      -2.047   8.621 133.545  0.00  0.00    +0.041 C 
ATOM     25  C   LIG A   1      -2.175  10.086 133.175  0.00  0.00    +0.127 C 
ATOM     26  C   LIG A   1      -0.764  10.577 133.120  0.00  0.00    +0.307 C 
ATOM     27  O   LIG A   1      -0.419  11.672 132.697  0.00  0.00    -0.251 OA
ATOM     28  O   LIG A   1       0.094   9.648 133.611  0.00  0.00    -0.464 OA
ATOM     29  C   LIG A   1      -0.615   8.485 134.028  0.00  0.00    +0.236 C 
ENDBRANCH  22  24
BRANCH   8  30
ATOM     30  O   LIG A   1      -6.392   5.098 129.303  0.00  0.00    -0.461 OA
BRANCH  30  31
ATOM     31  C   LIG A   1      -5.874   4.794 128.080  0.00  0.00    +0.304 C 
ATOM     32  O   LIG A   1      -6.519   4.591 127.062  0.00  0.00    -0.251 OA
ATOM     33  C   LIG A   1      -4.377   4.815 128.135  0.00  0.00    +0.136 C 
ENDBRANCH  30  31
ENDBRANCH   8  30
TORSDOF 3
ENDMDL
