MODEL 1
REMARK VINA RESULT:      -7.9      0.000      0.000
REMARK  Name = NuBBE_1832
REMARK  7 active torsions:
REMARK  status: ('A' for Active; 'I' for Inactive)
REMARK    1  A    between atoms: O_1  and  C_2
REMARK    2  A    between atoms: C_3  and  O_4
REMARK    3  A    between atoms: O_4  and  C_5
REMARK    4  A    between atoms: C_10  and  C_11
REMARK    5  A    between atoms: C_20  and  C_21
REMARK    6  A    between atoms: C_22  and  C_23
REMARK    7  A    between atoms: C_23  and  C_24
REMARK                            x       y       z     vdW  Elec       q    Type
REMARK                         _______ _______ _______ _____ _____    ______ ____
ROOT
ATOM      1  C   LIG A   1      -9.344   0.275 123.143  0.00  0.00    +0.166 A 
ATOM      2  C   LIG A   1      -8.975  -0.974 123.671  0.00  0.00    +0.162 A 
ATOM      3  C   LIG A   1      -7.880  -1.065 124.532  0.00  0.00    +0.061 A 
ATOM      4  C   LIG A   1      -7.171   0.106 124.858  0.00  0.00    +0.028 A 
ATOM      5  C   LIG A   1      -7.568   1.311 124.296  0.00  0.00    +0.143 A 
ATOM      6  O   LIG A   1      -6.750   2.307 124.739  0.00  0.00    -0.454 OA
ATOM      7  C   LIG A   1      -5.837   1.757 125.598  0.00  0.00    +0.139 A 
ATOM      8  C   LIG A   1      -6.053   0.390 125.701  0.00  0.00    +0.003 A 
ATOM      9  C   LIG A   1      -5.309  -0.614 126.505  0.00  0.00    +0.048 C 
ATOM     10  C   LIG A   1      -8.654   1.470 123.423  0.00  0.00    +0.044 A 
ENDROOT
BRANCH   7  11
ATOM     11  C   LIG A   1      -4.897   2.704 126.193  0.00  0.00    +0.021 A 
ATOM     12  C   LIG A   1      -5.321   3.993 126.560  0.00  0.00    +0.061 A 
ATOM     13  C   LIG A   1      -4.398   4.855 127.118  0.00  0.00    +0.167 A 
ATOM     14  C   LIG A   1      -3.091   4.486 127.320  0.00  0.00    +0.166 A 
ATOM     15  C   LIG A   1      -2.631   3.235 126.977  0.00  0.00    +0.050 A 
ATOM     16  C   LIG A   1      -3.547   2.340 126.413  0.00  0.00    +0.015 A 
ATOM     17  O   LIG A   1      -2.351   5.476 127.884  0.00  0.00    -0.453 OA
ATOM     18  C   LIG A   1      -3.344   6.515 128.014  0.00  0.00    +0.466 C 
ATOM     19  O   LIG A   1      -4.646   6.127 127.527  0.00  0.00    -0.453 OA
ENDBRANCH   7  11
BRANCH   1  20
ATOM     20  O   LIG A   1     -10.462   0.340 122.343  0.00  0.00    -0.503 OA
ATOM     21  H   LIG A   1     -10.121   0.464 121.436  0.00  0.00    +0.292 HD
ENDBRANCH   1  20
BRANCH   2  22
ATOM     22  O   LIG A   1      -9.765  -2.033 123.292  0.00  0.00    -0.491 OA
ATOM     23  C   LIG A   1      -9.337  -3.322 123.723  0.00  0.00    +0.277 C 
ENDBRANCH   2  22
BRANCH  10  24
ATOM     24  C   LIG A   1      -9.070   2.799 122.849  0.00  0.00    +0.069 C 
BRANCH  24  25
ATOM     25  C   LIG A   1      -8.266   3.203 121.642  0.00  0.00    -0.030 C 
ATOM     26  C   LIG A   1      -8.786   3.783 120.558  0.00  0.00    +0.004 C 
ENDBRANCH  24  25
ENDBRANCH  10  24
TORSDOF 5
ENDMDL
MODEL 2
REMARK VINA RESULT:      -7.5      4.594      6.704
REMARK  Name = NuBBE_1832
REMARK  7 active torsions:
REMARK  status: ('A' for Active; 'I' for Inactive)
REMARK    1  A    between atoms: O_1  and  C_2
REMARK    2  A    between atoms: C_3  and  O_4
REMARK    3  A    between atoms: O_4  and  C_5
REMARK    4  A    between atoms: C_10  and  C_11
REMARK    5  A    between atoms: C_20  and  C_21
REMARK    6  A    between atoms: C_22  and  C_23
REMARK    7  A    between atoms: C_23  and  C_24
REMARK                            x       y       z     vdW  Elec       q    Type
REMARK                         _______ _______ _______ _____ _____    ______ ____
ROOT
ATOM      1  C   LIG A   1      -8.246  -1.747 123.914  0.00  0.00    +0.166 A 
ATOM      2  C   LIG A   1      -8.969  -0.695 124.504  0.00  0.00    +0.162 A 
ATOM      3  C   LIG A   1      -8.774  -0.392 125.852  0.00  0.00    +0.061 A 
ATOM      4  C   LIG A   1      -7.848  -1.149 126.593  0.00  0.00    +0.028 A 
ATOM      5  C   LIG A   1      -7.174  -2.188 125.967  0.00  0.00    +0.143 A 
ATOM      6  O   LIG A   1      -6.336  -2.786 126.860  0.00  0.00    -0.454 OA
ATOM      7  C   LIG A   1      -6.451  -2.131 128.056  0.00  0.00    +0.139 A 
ATOM      8  C   LIG A   1      -7.383  -1.108 127.944  0.00  0.00    +0.003 A 
ATOM      9  C   LIG A   1      -7.838  -0.143 128.978  0.00  0.00    +0.048 C 
ATOM     10  C   LIG A   1      -7.326  -2.545 124.619  0.00  0.00    +0.044 A 
ENDROOT
BRANCH   7  11
ATOM     11  C   LIG A   1      -5.588  -2.631 129.123  0.00  0.00    +0.021 A 
ATOM     12  C   LIG A   1      -6.097  -3.502 130.102  0.00  0.00    +0.061 A 
ATOM     13  C   LIG A   1      -5.246  -3.948 131.092  0.00  0.00    +0.167 A 
ATOM     14  C   LIG A   1      -3.928  -3.565 131.143  0.00  0.00    +0.166 A 
ATOM     15  C   LIG A   1      -3.386  -2.715 130.207  0.00  0.00    +0.050 A 
ATOM     16  C   LIG A   1      -4.226  -2.250 129.189  0.00  0.00    +0.015 A 
ATOM     17  O   LIG A   1      -3.263  -4.119 132.191  0.00  0.00    -0.453 OA
ATOM     18  C   LIG A   1      -4.316  -4.897 132.797  0.00  0.00    +0.466 C 
ATOM     19  O   LIG A   1      -5.579  -4.792 132.106  0.00  0.00    -0.453 OA
ENDBRANCH   7  11
BRANCH   1  20
ATOM     20  O   LIG A   1      -8.419  -1.984 122.569  0.00  0.00    -0.503 OA
ATOM     21  H   LIG A   1      -8.929  -1.220 122.238  0.00  0.00    +0.292 HD
ENDBRANCH   1  20
BRANCH   2  22
ATOM     22  O   LIG A   1      -9.822  -0.021 123.663  0.00  0.00    -0.491 OA
ATOM     23  C   LIG A   1      -9.661   1.395 123.609  0.00  0.00    +0.277 C 
ENDBRANCH   2  22
BRANCH  10  24
ATOM     24  C   LIG A   1      -6.559  -3.666 123.966  0.00  0.00    +0.069 C 
BRANCH  24  25
ATOM     25  C   LIG A   1      -5.113  -3.331 123.716  0.00  0.00    -0.030 C 
ATOM     26  C   LIG A   1      -4.149  -4.242 123.569  0.00  0.00    +0.004 C 
ENDBRANCH  24  25
ENDBRANCH  10  24
TORSDOF 5
ENDMDL
MODEL 3
REMARK VINA RESULT:      -7.5      3.620      6.139
REMARK  Name = NuBBE_1832
REMARK  7 active torsions:
REMARK  status: ('A' for Active; 'I' for Inactive)
REMARK    1  A    between atoms: O_1  and  C_2
REMARK    2  A    between atoms: C_3  and  O_4
REMARK    3  A    between atoms: O_4  and  C_5
REMARK    4  A    between atoms: C_10  and  C_11
REMARK    5  A    between atoms: C_20  and  C_21
REMARK    6  A    between atoms: C_22  and  C_23
REMARK    7  A    between atoms: C_23  and  C_24
REMARK                            x       y       z     vdW  Elec       q    Type
REMARK                         _______ _______ _______ _____ _____    ______ ____
ROOT
ATOM      1  C   LIG A   1      -7.415  -1.112 126.591  0.00  0.00    +0.166 A 
ATOM      2  C   LIG A   1      -7.706  -0.103 127.525  0.00  0.00    +0.162 A 
ATOM      3  C   LIG A   1      -7.844   1.218 127.096  0.00  0.00    +0.061 A 
ATOM      4  C   LIG A   1      -7.692   1.509 125.728  0.00  0.00    +0.028 A 
ATOM      5  C   LIG A   1      -7.388   0.478 124.851  0.00  0.00    +0.143 A 
ATOM      6  O   LIG A   1      -7.282   0.976 123.587  0.00  0.00    -0.454 OA
ATOM      7  C   LIG A   1      -7.533   2.321 123.638  0.00  0.00    +0.139 A 
ATOM      8  C   LIG A   1      -7.788   2.702 124.948  0.00  0.00    +0.003 A 
ATOM      9  C   LIG A   1      -8.102   4.053 125.482  0.00  0.00    +0.048 C 
ATOM     10  C   LIG A   1      -7.233  -0.867 125.217  0.00  0.00    +0.044 A 
ENDROOT
BRANCH   7  11
ATOM     11  C   LIG A   1      -7.492   3.009 122.349  0.00  0.00    +0.021 A 
ATOM     12  C   LIG A   1      -6.278   3.511 121.849  0.00  0.00    +0.061 A 
ATOM     13  C   LIG A   1      -6.286   4.155 120.628  0.00  0.00    +0.167 A 
ATOM     14  C   LIG A   1      -7.440   4.315 119.900  0.00  0.00    +0.166 A 
ATOM     15  C   LIG A   1      -8.651   3.841 120.350  0.00  0.00    +0.050 A 
ATOM     16  C   LIG A   1      -8.670   3.180 121.583  0.00  0.00    +0.015 A 
ATOM     17  O   LIG A   1      -7.231   4.970 118.728  0.00  0.00    -0.453 OA
ATOM     18  C   LIG A   1      -5.809   5.206 118.801  0.00  0.00    +0.466 C 
ATOM     19  O   LIG A   1      -5.203   4.692 120.006  0.00  0.00    -0.453 OA
ENDBRANCH   7  11
BRANCH   1  20
ATOM     20  O   LIG A   1      -7.341  -2.412 127.037  0.00  0.00    -0.503 OA
ATOM     21  H   LIG A   1      -6.454  -2.496 127.436  0.00  0.00    +0.292 HD
ENDBRANCH   1  20
BRANCH   2  22
ATOM     22  O   LIG A   1      -7.853  -0.526 128.825  0.00  0.00    -0.491 OA
ATOM     23  C   LIG A   1      -7.783   0.487 129.826  0.00  0.00    +0.277 C 
ENDBRANCH   2  22
BRANCH  10  24
ATOM     24  C   LIG A   1      -6.924  -1.965 124.233  0.00  0.00    +0.069 C 
BRANCH  24  25
ATOM     25  C   LIG A   1      -5.475  -2.375 124.235  0.00  0.00    -0.030 C 
ATOM     26  C   LIG A   1      -4.917  -3.154 123.306  0.00  0.00    +0.004 C 
ENDBRANCH  24  25
ENDBRANCH  10  24
TORSDOF 5
ENDMDL
MODEL 4
REMARK VINA RESULT:      -7.4      7.454     10.405
REMARK  Name = NuBBE_1832
REMARK  7 active torsions:
REMARK  status: ('A' for Active; 'I' for Inactive)
REMARK    1  A    between atoms: O_1  and  C_2
REMARK    2  A    between atoms: C_3  and  O_4
REMARK    3  A    between atoms: O_4  and  C_5
REMARK    4  A    between atoms: C_10  and  C_11
REMARK    5  A    between atoms: C_20  and  C_21
REMARK    6  A    between atoms: C_22  and  C_23
REMARK    7  A    between atoms: C_23  and  C_24
REMARK                            x       y       z     vdW  Elec       q    Type
REMARK                         _______ _______ _______ _____ _____    ______ ____
ROOT
ATOM      1  C   LIG A   1      -3.515   6.903 132.133  0.00  0.00    +0.166 A 
ATOM      2  C   LIG A   1      -3.804   6.204 133.318  0.00  0.00    +0.162 A 
ATOM      3  C   LIG A   1      -5.114   5.802 133.582  0.00  0.00    +0.061 A 
ATOM      4  C   LIG A   1      -6.120   6.104 132.646  0.00  0.00    +0.028 A 
ATOM      5  C   LIG A   1      -5.784   6.812 131.501  0.00  0.00    +0.143 A 
ATOM      6  O   LIG A   1      -6.900   6.999 130.741  0.00  0.00    -0.454 OA
ATOM      7  C   LIG A   1      -7.953   6.401 131.379  0.00  0.00    +0.139 A 
ATOM      8  C   LIG A   1      -7.522   5.836 132.571  0.00  0.00    +0.003 A 
ATOM      9  C   LIG A   1      -8.309   5.094 133.590  0.00  0.00    +0.048 C 
ATOM     10  C   LIG A   1      -4.491   7.247 131.179  0.00  0.00    +0.044 A 
ENDROOT
BRANCH   7  11
ATOM     11  C   LIG A   1      -9.231   6.481 130.674  0.00  0.00    +0.021 A 
ATOM     12  C   LIG A   1      -9.536   7.598 129.877  0.00  0.00    +0.061 A 
ATOM     13  C   LIG A   1     -10.755   7.632 129.231  0.00  0.00    +0.167 A 
ATOM     14  C   LIG A   1     -11.666   6.611 129.348  0.00  0.00    +0.166 A 
ATOM     15  C   LIG A   1     -11.412   5.499 130.117  0.00  0.00    +0.050 A 
ATOM     16  C   LIG A   1     -10.181   5.437 130.780  0.00  0.00    +0.015 A 
ATOM     17  O   LIG A   1     -12.798   6.838 128.631  0.00  0.00    -0.453 OA
ATOM     18  C   LIG A   1     -12.495   8.122 128.046  0.00  0.00    +0.466 C 
ATOM     19  O   LIG A   1     -11.200   8.633 128.426  0.00  0.00    -0.453 OA
ENDBRANCH   7  11
BRANCH   1  20
ATOM     20  O   LIG A   1      -2.204   7.236 131.875  0.00  0.00    -0.503 OA
ATOM     21  H   LIG A   1      -1.812   7.428 132.748  0.00  0.00    +0.292 HD
ENDBRANCH   1  20
BRANCH   2  22
ATOM     22  O   LIG A   1      -2.726   5.952 134.133  0.00  0.00    -0.491 OA
ATOM     23  C   LIG A   1      -2.721   6.623 135.391  0.00  0.00    +0.277 C 
ENDBRANCH   2  22
BRANCH  10  24
ATOM     24  C   LIG A   1      -4.158   7.995 129.914  0.00  0.00    +0.069 C 
BRANCH  24  25
ATOM     25  C   LIG A   1      -3.750   7.093 128.780  0.00  0.00    -0.030 C 
ATOM     26  C   LIG A   1      -2.484   6.841 128.443  0.00  0.00    +0.004 C 
ENDBRANCH  24  25
ENDBRANCH  10  24
TORSDOF 5
ENDMDL
MODEL 5
REMARK VINA RESULT:      -7.2      5.258      7.185
REMARK  Name = NuBBE_1832
REMARK  7 active torsions:
REMARK  status: ('A' for Active; 'I' for Inactive)
REMARK    1  A    between atoms: O_1  and  C_2
REMARK    2  A    between atoms: C_3  and  O_4
REMARK    3  A    between atoms: O_4  and  C_5
REMARK    4  A    between atoms: C_10  and  C_11
REMARK    5  A    between atoms: C_20  and  C_21
REMARK    6  A    between atoms: C_22  and  C_23
REMARK    7  A    between atoms: C_23  and  C_24
REMARK                            x       y       z     vdW  Elec       q    Type
REMARK                         _______ _______ _______ _____ _____    ______ ____
ROOT
ATOM      1  C   LIG A   1      -7.439  -1.324 124.868  0.00  0.00    +0.166 A 
ATOM      2  C   LIG A   1      -8.662  -2.008 124.758  0.00  0.00    +0.162 A 
ATOM      3  C   LIG A   1      -9.115  -2.791 125.821  0.00  0.00    +0.061 A 
ATOM      4  C   LIG A   1      -8.334  -2.873 126.988  0.00  0.00    +0.028 A 
ATOM      5  C   LIG A   1      -7.126  -2.191 127.038  0.00  0.00    +0.143 A 
ATOM      6  O   LIG A   1      -6.535  -2.408 128.246  0.00  0.00    -0.454 OA
ATOM      7  C   LIG A   1      -7.360  -3.212 128.985  0.00  0.00    +0.139 A 
ATOM      8  C   LIG A   1      -8.489  -3.534 128.245  0.00  0.00    +0.003 A 
ATOM      9  C   LIG A   1      -9.648  -4.381 128.631  0.00  0.00    +0.048 C 
ATOM     10  C   LIG A   1      -6.613  -1.392 126.006  0.00  0.00    +0.044 A 
ENDROOT
BRANCH   7  11
ATOM     11  C   LIG A   1      -6.885  -3.518 130.333  0.00  0.00    +0.021 A 
ATOM     12  C   LIG A   1      -7.390  -2.817 131.442  0.00  0.00    +0.061 A 
ATOM     13  C   LIG A   1      -6.912  -3.137 132.696  0.00  0.00    +0.167 A 
ATOM     14  C   LIG A   1      -5.964  -4.114 132.883  0.00  0.00    +0.166 A 
ATOM     15  C   LIG A   1      -5.441  -4.825 131.828  0.00  0.00    +0.050 A 
ATOM     16  C   LIG A   1      -5.912  -4.523 130.545  0.00  0.00    +0.015 A 
ATOM     17  O   LIG A   1      -5.633  -4.277 134.191  0.00  0.00    -0.453 OA
ATOM     18  C   LIG A   1      -6.484  -3.288 134.809  0.00  0.00    +0.466 C 
ATOM     19  O   LIG A   1      -7.296  -2.560 133.865  0.00  0.00    -0.453 OA
ENDBRANCH   7  11
BRANCH   1  20
ATOM     20  O   LIG A   1      -7.048  -0.515 123.826  0.00  0.00    -0.503 OA
ATOM     21  H   LIG A   1      -6.078  -0.436 123.913  0.00  0.00    +0.292 HD
ENDBRANCH   1  20
BRANCH   2  22
ATOM     22  O   LIG A   1      -9.338  -1.824 123.575  0.00  0.00    -0.491 OA
ATOM     23  C   LIG A   1      -9.672  -3.006 122.852  0.00  0.00    +0.277 C 
ENDBRANCH   2  22
BRANCH  10  24
ATOM     24  C   LIG A   1      -5.307  -0.648 126.104  0.00  0.00    +0.069 C 
BRANCH  24  25
ATOM     25  C   LIG A   1      -5.441   0.704 126.754  0.00  0.00    -0.030 C 
ATOM     26  C   LIG A   1      -4.837   1.809 126.312  0.00  0.00    +0.004 C 
ENDBRANCH  24  25
ENDBRANCH  10  24
TORSDOF 5
ENDMDL
MODEL 6
REMARK VINA RESULT:      -7.2      3.155      6.274
REMARK  Name = NuBBE_1832
REMARK  7 active torsions:
REMARK  status: ('A' for Active; 'I' for Inactive)
REMARK    1  A    between atoms: O_1  and  C_2
REMARK    2  A    between atoms: C_3  and  O_4
REMARK    3  A    between atoms: O_4  and  C_5
REMARK    4  A    between atoms: C_10  and  C_11
REMARK    5  A    between atoms: C_20  and  C_21
REMARK    6  A    between atoms: C_22  and  C_23
REMARK    7  A    between atoms: C_23  and  C_24
REMARK                            x       y       z     vdW  Elec       q    Type
REMARK                         _______ _______ _______ _____ _____    ______ ____
ROOT
ATOM      1  C   LIG A   1      -6.223   3.543 123.878  0.00  0.00    +0.166 A 
ATOM      2  C   LIG A   1      -6.876   2.839 122.851  0.00  0.00    +0.162 A 
ATOM      3  C   LIG A   1      -7.241   1.507 123.049  0.00  0.00    +0.061 A 
ATOM      4  C   LIG A   1      -6.950   0.898 124.283  0.00  0.00    +0.028 A 
ATOM      5  C   LIG A   1      -6.289   1.632 125.257  0.00  0.00    +0.143 A 
ATOM      6  O   LIG A   1      -6.105   0.856 126.362  0.00  0.00    -0.454 OA
ATOM      7  C   LIG A   1      -6.659  -0.372 126.116  0.00  0.00    +0.139 A 
ATOM      8  C   LIG A   1      -7.192  -0.398 124.835  0.00  0.00    +0.003 A 
ATOM      9  C   LIG A   1      -7.881  -1.513 124.134  0.00  0.00    +0.048 C 
ATOM     10  C   LIG A   1      -5.892   2.970 125.121  0.00  0.00    +0.044 A 
ENDROOT
BRANCH   7  11
ATOM     11  C   LIG A   1      -6.576  -1.323 127.222  0.00  0.00    +0.021 A 
ATOM     12  C   LIG A   1      -5.328  -1.797 127.662  0.00  0.00    +0.061 A 
ATOM     13  C   LIG A   1      -5.297  -2.695 128.709  0.00  0.00    +0.167 A 
ATOM     14  C   LIG A   1      -6.446  -3.132 129.324  0.00  0.00    +0.166 A 
ATOM     15  C   LIG A   1      -7.689  -2.695 128.927  0.00  0.00    +0.050 A 
ATOM     16  C   LIG A   1      -7.748  -1.781 127.870  0.00  0.00    +0.015 A 
ATOM     17  O   LIG A   1      -6.197  -4.007 130.333  0.00  0.00    -0.453 OA
ATOM     18  C   LIG A   1      -4.756  -4.073 130.284  0.00  0.00    +0.466 C 
ATOM     19  O   LIG A   1      -4.179  -3.244 129.253  0.00  0.00    -0.453 OA
ENDBRANCH   7  11
BRANCH   1  20
ATOM     20  O   LIG A   1      -5.927   4.872 123.673  0.00  0.00    -0.503 OA
ATOM     21  H   LIG A   1      -6.667   5.364 124.077  0.00  0.00    +0.292 HD
ENDBRANCH   1  20
BRANCH   2  22
ATOM     22  O   LIG A   1      -7.122   3.559 121.706  0.00  0.00    -0.491 OA
ATOM     23  C   LIG A   1      -8.471   3.564 121.245  0.00  0.00    +0.277 C 
ENDBRANCH   2  22
BRANCH  10  24
ATOM     24  C   LIG A   1      -5.195   3.744 126.209  0.00  0.00    +0.069 C 
BRANCH  24  25
ATOM     25  C   LIG A   1      -3.696   3.743 126.073  0.00  0.00    -0.030 C 
ATOM     26  C   LIG A   1      -2.877   3.013 126.833  0.00  0.00    +0.004 C 
ENDBRANCH  24  25
ENDBRANCH  10  24
TORSDOF 5
ENDMDL
MODEL 7
REMARK VINA RESULT:      -7.0      1.789      4.000
REMARK  Name = NuBBE_1832
REMARK  7 active torsions:
REMARK  status: ('A' for Active; 'I' for Inactive)
REMARK    1  A    between atoms: O_1  and  C_2
REMARK    2  A    between atoms: C_3  and  O_4
REMARK    3  A    between atoms: O_4  and  C_5
REMARK    4  A    between atoms: C_10  and  C_11
REMARK    5  A    between atoms: C_20  and  C_21
REMARK    6  A    between atoms: C_22  and  C_23
REMARK    7  A    between atoms: C_23  and  C_24
REMARK                            x       y       z     vdW  Elec       q    Type
REMARK                         _______ _______ _______ _____ _____    ______ ____
ROOT
ATOM      1  C   LIG A   1      -8.478  -2.128 126.647  0.00  0.00    +0.166 A 
ATOM      2  C   LIG A   1      -8.895  -1.760 125.356  0.00  0.00    +0.162 A 
ATOM      3  C   LIG A   1      -8.385  -0.600 124.770  0.00  0.00    +0.061 A 
ATOM      4  C   LIG A   1      -7.457   0.175 125.488  0.00  0.00    +0.028 A 
ATOM      5  C   LIG A   1      -7.093  -0.225 126.766  0.00  0.00    +0.143 A 
ATOM      6  O   LIG A   1      -6.194   0.662 127.278  0.00  0.00    -0.454 OA
ATOM      7  C   LIG A   1      -5.960   1.624 126.333  0.00  0.00    +0.139 A 
ATOM      8  C   LIG A   1      -6.726   1.370 125.204  0.00  0.00    +0.003 A 
ATOM      9  C   LIG A   1      -6.807   2.143 123.938  0.00  0.00    +0.048 C 
ATOM     10  C   LIG A   1      -7.569  -1.375 127.412  0.00  0.00    +0.044 A 
ENDROOT
BRANCH   7  11
ATOM     11  C   LIG A   1      -4.986   2.644 126.714  0.00  0.00    +0.021 A 
ATOM     12  C   LIG A   1      -5.414   3.904 127.168  0.00  0.00    +0.061 A 
ATOM     13  C   LIG A   1      -4.458   4.837 127.516  0.00  0.00    +0.167 A 
ATOM     14  C   LIG A   1      -3.115   4.566 127.429  0.00  0.00    +0.166 A 
ATOM     15  C   LIG A   1      -2.649   3.348 126.990  0.00  0.00    +0.050 A 
ATOM     16  C   LIG A   1      -3.597   2.382 126.636  0.00  0.00    +0.015 A 
ATOM     17  O   LIG A   1      -2.345   5.615 127.822  0.00  0.00    -0.453 OA
ATOM     18  C   LIG A   1      -3.360   6.581 128.167  0.00  0.00    +0.466 C 
ATOM     19  O   LIG A   1      -4.704   6.094 127.973  0.00  0.00    -0.453 OA
ENDBRANCH   7  11
BRANCH   1  20
ATOM     20  O   LIG A   1      -8.955  -3.307 127.174  0.00  0.00    -0.503 OA
ATOM     21  H   LIG A   1      -8.325  -3.993 126.880  0.00  0.00    +0.292 HD
ENDBRANCH   1  20
BRANCH   2  22
ATOM     22  O   LIG A   1      -9.787  -2.616 124.755  0.00  0.00    -0.491 OA
ATOM     23  C   LIG A   1      -9.352  -3.225 123.542  0.00  0.00    +0.277 C 
ENDBRANCH   2  22
BRANCH  10  24
ATOM     24  C   LIG A   1      -7.134  -1.791 128.793  0.00  0.00    +0.069 C 
BRANCH  24  25
ATOM     25  C   LIG A   1      -5.954  -2.726 128.789  0.00  0.00    -0.030 C 
ATOM     26  C   LIG A   1      -4.683  -2.327 128.696  0.00  0.00    +0.004 C 
ENDBRANCH  24  25
ENDBRANCH  10  24
TORSDOF 5
ENDMDL
MODEL 8
REMARK VINA RESULT:      -6.9      8.293     10.158
REMARK  Name = NuBBE_1832
REMARK  7 active torsions:
REMARK  status: ('A' for Active; 'I' for Inactive)
REMARK    1  A    between atoms: O_1  and  C_2
REMARK    2  A    between atoms: C_3  and  O_4
REMARK    3  A    between atoms: O_4  and  C_5
REMARK    4  A    between atoms: C_10  and  C_11
REMARK    5  A    between atoms: C_20  and  C_21
REMARK    6  A    between atoms: C_22  and  C_23
REMARK    7  A    between atoms: C_23  and  C_24
REMARK                            x       y       z     vdW  Elec       q    Type
REMARK                         _______ _______ _______ _____ _____    ______ ____
ROOT
ATOM      1  C   LIG A   1      -8.956   5.497 132.763  0.00  0.00    +0.166 A 
ATOM      2  C   LIG A   1      -8.996   6.064 131.477  0.00  0.00    +0.162 A 
ATOM      3  C   LIG A   1      -7.834   6.602 130.922  0.00  0.00    +0.061 A 
ATOM      4  C   LIG A   1      -6.641   6.560 131.666  0.00  0.00    +0.028 A 
ATOM      5  C   LIG A   1      -6.661   6.004 132.937  0.00  0.00    +0.143 A 
ATOM      6  O   LIG A   1      -5.411   6.068 133.477  0.00  0.00    -0.454 OA
ATOM      7  C   LIG A   1      -4.579   6.645 132.556  0.00  0.00    +0.139 A 
ATOM      8  C   LIG A   1      -5.297   6.975 131.415  0.00  0.00    +0.003 A 
ATOM      9  C   LIG A   1      -4.818   7.623 130.167  0.00  0.00    +0.048 C 
ATOM     10  C   LIG A   1      -7.792   5.450 133.553  0.00  0.00    +0.044 A 
ENDROOT
BRANCH   7  11
ATOM     11  C   LIG A   1      -3.181   6.760 132.969  0.00  0.00    +0.021 A 
ATOM     12  C   LIG A   1      -2.840   7.451 134.144  0.00  0.00    +0.061 A 
ATOM     13  C   LIG A   1      -1.508   7.536 134.494  0.00  0.00    +0.167 A 
ATOM     14  C   LIG A   1      -0.520   6.967 133.729  0.00  0.00    +0.166 A 
ATOM     15  C   LIG A   1      -0.806   6.281 132.571  0.00  0.00    +0.050 A 
ATOM     16  C   LIG A   1      -2.150   6.177 132.195  0.00  0.00    +0.015 A 
ATOM     17  O   LIG A   1       0.720   7.160 134.250  0.00  0.00    -0.453 OA
ATOM     18  C   LIG A   1       0.399   7.918 135.435  0.00  0.00    +0.466 C 
ATOM     19  O   LIG A   1      -1.014   8.162 135.595  0.00  0.00    -0.453 OA
ENDBRANCH   7  11
BRANCH   1  20
ATOM     20  O   LIG A   1     -10.105   4.923 133.259  0.00  0.00    -0.503 OA
ATOM     21  H   LIG A   1      -9.839   4.504 134.100  0.00  0.00    +0.292 HD
ENDBRANCH   1  20
BRANCH   2  22
ATOM     22  O   LIG A   1     -10.219   6.019 130.850  0.00  0.00    -0.491 OA
ATOM     23  C   LIG A   1     -10.576   7.171 130.089  0.00  0.00    +0.277 C 
ENDBRANCH   2  22
BRANCH  10  24
ATOM     24  C   LIG A   1      -7.771   4.834 134.928  0.00  0.00    +0.069 C 
BRANCH  24  25
ATOM     25  C   LIG A   1      -7.698   5.852 136.034  0.00  0.00    -0.030 C 
ATOM     26  C   LIG A   1      -6.639   6.017 136.830  0.00  0.00    +0.004 C 
ENDBRANCH  24  25
ENDBRANCH  10  24
TORSDOF 5
ENDMDL
MODEL 9
REMARK VINA RESULT:      -6.7      4.383      8.189
REMARK  Name = NuBBE_1832
REMARK  7 active torsions:
REMARK  status: ('A' for Active; 'I' for Inactive)
REMARK    1  A    between atoms: O_1  and  C_2
REMARK    2  A    between atoms: C_3  and  O_4
REMARK    3  A    between atoms: O_4  and  C_5
REMARK    4  A    between atoms: C_10  and  C_11
REMARK    5  A    between atoms: C_20  and  C_21
REMARK    6  A    between atoms: C_22  and  C_23
REMARK    7  A    between atoms: C_23  and  C_24
REMARK                            x       y       z     vdW  Elec       q    Type
REMARK                         _______ _______ _______ _____ _____    ______ ____
ROOT
ATOM      1  C   LIG A   1      -5.200  -2.160 131.053  0.00  0.00    +0.166 A 
ATOM      2  C   LIG A   1      -6.033  -3.208 131.481  0.00  0.00    +0.162 A 
ATOM      3  C   LIG A   1      -7.089  -3.627 130.671  0.00  0.00    +0.061 A 
ATOM      4  C   LIG A   1      -7.292  -2.991 129.433  0.00  0.00    +0.028 A 
ATOM      5  C   LIG A   1      -6.451  -1.950 129.066  0.00  0.00    +0.143 A 
ATOM      6  O   LIG A   1      -6.824  -1.478 127.843  0.00  0.00    -0.454 OA
ATOM      7  C   LIG A   1      -7.891  -2.218 127.409  0.00  0.00    +0.139 A 
ATOM      8  C   LIG A   1      -8.224  -3.167 128.365  0.00  0.00    +0.003 A 
ATOM      9  C   LIG A   1      -9.311  -4.181 128.333  0.00  0.00    +0.048 C 
ATOM     10  C   LIG A   1      -5.376  -1.479 129.833  0.00  0.00    +0.044 A 
ENDROOT
BRANCH   7  11
ATOM     11  C   LIG A   1      -8.398  -1.858 126.086  0.00  0.00    +0.021 A 
ATOM     12  C   LIG A   1      -8.801  -0.540 125.812  0.00  0.00    +0.061 A 
ATOM     13  C   LIG A   1      -9.274  -0.246 124.550  0.00  0.00    +0.167 A 
ATOM     14  C   LIG A   1      -9.361  -1.201 123.567  0.00  0.00    +0.166 A 
ATOM     15  C   LIG A   1      -8.979  -2.504 123.790  0.00  0.00    +0.050 A 
ATOM     16  C   LIG A   1      -8.491  -2.829 125.060  0.00  0.00    +0.015 A 
ATOM     17  O   LIG A   1      -9.847  -0.705 122.399  0.00  0.00    -0.453 OA
ATOM     18  C   LIG A   1     -10.058   0.676 122.759  0.00  0.00    +0.466 C 
ATOM     19  O   LIG A   1      -9.698   0.974 124.124  0.00  0.00    -0.453 OA
ENDBRANCH   7  11
BRANCH   1  20
ATOM     20  O   LIG A   1      -4.133  -1.807 131.848  0.00  0.00    -0.503 OA
ATOM     21  H   LIG A   1      -3.524  -1.322 131.259  0.00  0.00    +0.292 HD
ENDBRANCH   1  20
BRANCH   2  22
ATOM     22  O   LIG A   1      -5.710  -3.759 132.699  0.00  0.00    -0.491 OA
ATOM     23  C   LIG A   1      -5.200  -5.090 132.670  0.00  0.00    +0.277 C 
ENDBRANCH   2  22
BRANCH  10  24
ATOM     24  C   LIG A   1      -4.469  -0.361 129.392  0.00  0.00    +0.069 C 
BRANCH  24  25
ATOM     25  C   LIG A   1      -4.932   0.997 129.850  0.00  0.00    -0.030 C 
ATOM     26  C   LIG A   1      -4.369   2.146 129.470  0.00  0.00    +0.004 C 
ENDBRANCH  24  25
ENDBRANCH  10  24
TORSDOF 5
ENDMDL
