MODEL 1
REMARK VINA RESULT:      -7.7      0.000      0.000
REMARK  Name = NuBBE_1600
REMARK  17 active torsions:
REMARK  status: ('A' for Active; 'I' for Inactive)
REMARK    1  A    between atoms: C_1  and  C_2
REMARK    2  A    between atoms: C_5  and  C_6
REMARK    3  A    between atoms: C_8  and  O_11
REMARK    4  A    between atoms: C_12  and  C_13
REMARK    5  A    between atoms: C_12  and  C_17
REMARK    6  A    between atoms: C_13  and  O_15
REMARK    7  A    between atoms: O_15  and  C_16
REMARK    8  A    between atoms: C_22  and  O_24
REMARK    9  A    between atoms: O_24  and  C_25
REMARK   10  A    between atoms: C_25  and  C_27
REMARK   11  A    between atoms: C_28  and  O_42
REMARK   12  A    between atoms: C_30  and  C_41
REMARK   13  A    between atoms: C_34  and  C_36
REMARK   14  A    between atoms: O_42  and  C_43
REMARK   15  A    between atoms: C_43  and  C_45
REMARK   16  A    between atoms: C_45  and  C_46
REMARK   17  A    between atoms: C_45  and  C_47
REMARK                            x       y       z     vdW  Elec       q    Type
REMARK                         _______ _______ _______ _____ _____    ______ ____
ROOT
ATOM      1  C   LIG A   1      -6.713   2.506 132.527  0.00  0.00    +0.024 C 
ATOM      2  C   LIG A   1      -7.747   2.581 131.350  0.00  0.00    +0.063 C 
ATOM      3  C   LIG A   1      -7.341   1.987 129.950  0.00  0.00    +0.065 C 
ATOM      4  C   LIG A   1      -6.344   0.750 130.101  0.00  0.00    +0.020 C 
ATOM      5  C   LIG A   1      -5.988   0.124 128.736  0.00  0.00    +0.021 C 
ATOM      6  C   LIG A   1      -7.059  -0.294 131.043  0.00  0.00    +0.009 C 
ATOM      7  C   LIG A   1      -8.234   0.019 131.657  0.00  0.00    +0.162 C 
ATOM      8  C   LIG A   1      -8.763   1.472 131.747  0.00  0.00    +0.207 C 
ATOM      9  O   LIG A   1      -9.907   1.656 132.154  0.00  0.00    -0.288 OA
ATOM     10  C   LIG A   1      -6.264  -1.627 131.278  0.00  0.00    +0.152 C 
ATOM     11  C   LIG A   1      -6.662  -2.385 132.573  0.00  0.00    +0.036 C 
ATOM     12  C   LIG A   1      -4.764  -1.274 131.509  0.00  0.00    +0.176 C 
ATOM     13  O   LIG A   1      -3.921  -2.096 131.876  0.00  0.00    -0.291 OA
ATOM     14  C   LIG A   1      -4.268   0.126 131.328  0.00  0.00    +0.044 C 
ATOM     15  C   LIG A   1      -4.986   1.057 130.681  0.00  0.00    -0.012 C 
ATOM     16  C   LIG A   1      -7.243   2.943 128.731  0.00  0.00    +0.223 C 
ATOM     17  C   LIG A   1      -7.035   4.452 129.016  0.00  0.00    +0.228 C 
ATOM     18  C   LIG A   1      -7.929   5.035 130.159  0.00  0.00    +0.037 C 
ATOM     19  C   LIG A   1      -8.180   4.060 131.323  0.00  0.00    -0.050 C 
ATOM     20  C   LIG A   1      -8.519   4.776 132.419  0.00  0.00    -0.025 C 
ATOM     21  C   LIG A   1      -8.389   6.259 132.228  0.00  0.00    +0.036 C 
ATOM     22  C   LIG A   1      -7.509   6.352 130.947  0.00  0.00    +0.039 C 
ATOM     23  C   LIG A   1      -9.310   5.433 129.501  0.00  0.00    +0.020 C 
ENDROOT
BRANCH  22  24
ATOM     24  C   LIG A   1      -6.053   6.602 131.272  0.00  0.00    -0.005 A 
ATOM     25  C   LIG A   1      -5.270   6.122 132.365  0.00  0.00    +0.045 A 
ATOM     26  C   LIG A   1      -4.016   6.672 132.239  0.00  0.00    +0.195 A 
ATOM     27  O   LIG A   1      -3.976   7.500 131.168  0.00  0.00    -0.471 OA
ATOM     28  C   LIG A   1      -5.215   7.484 130.616  0.00  0.00    +0.198 A 
ENDBRANCH  22  24
BRANCH   7  29
ATOM     29  O   LIG A   1      -9.021  -0.931 132.274  0.00  0.00    -0.503 OA
ATOM     30  H   LIG A   1      -9.767  -1.096 131.657  0.00  0.00    +0.292 HD
ENDBRANCH   7  29
BRANCH  10  31
ATOM     31  C   LIG A   1      -6.403  -2.678 130.151  0.00  0.00    +0.325 C 
ATOM     32  O   LIG A   1      -5.479  -3.082 129.450  0.00  0.00    -0.249 OA
BRANCH  31  33
ATOM     33  O   LIG A   1      -7.678  -3.139 130.021  0.00  0.00    -0.467 OA
ATOM     34  C   LIG A   1      -8.193  -3.141 128.684  0.00  0.00    +0.280 C 
ENDBRANCH  31  33
ENDBRANCH  10  31
BRANCH  16  35
ATOM     35  O   LIG A   1      -8.475   2.821 127.924  0.00  0.00    -0.457 OA
BRANCH  35  36
ATOM     36  C   LIG A   1      -8.416   2.042 126.796  0.00  0.00    +0.304 C 
ATOM     37  O   LIG A   1      -9.246   1.255 126.430  0.00  0.00    -0.251 OA
ATOM     38  C   LIG A   1      -7.147   2.272 126.023  0.00  0.00    +0.136 C 
ENDBRANCH  35  36
ENDBRANCH  16  35
BRANCH  17  39
ATOM     39  O   LIG A   1      -5.626   4.708 129.144  0.00  0.00    -0.457 OA
BRANCH  39  40
ATOM     40  C   LIG A   1      -4.982   4.748 127.924  0.00  0.00    +0.310 C 
ATOM     41  O   LIG A   1      -5.433   5.249 126.914  0.00  0.00    -0.251 OA
BRANCH  40  42
ATOM     42  C   LIG A   1      -3.605   4.131 128.016  0.00  0.00    +0.092 C 
ATOM     43  C   LIG A   1      -3.105   4.193 129.444  0.00  0.00    +0.019 C 
ATOM     44  C   LIG A   1      -3.626   2.717 127.435  0.00  0.00    +0.019 C 
ENDBRANCH  40  42
ENDBRANCH  39  40
ENDBRANCH  17  39
TORSDOF 9
ENDMDL
MODEL 2
REMARK VINA RESULT:      -7.6      1.791      7.262
REMARK  Name = NuBBE_1600
REMARK  17 active torsions:
REMARK  status: ('A' for Active; 'I' for Inactive)
REMARK    1  A    between atoms: C_1  and  C_2
REMARK    2  A    between atoms: C_5  and  C_6
REMARK    3  A    between atoms: C_8  and  O_11
REMARK    4  A    between atoms: C_12  and  C_13
REMARK    5  A    between atoms: C_12  and  C_17
REMARK    6  A    between atoms: C_13  and  O_15
REMARK    7  A    between atoms: O_15  and  C_16
REMARK    8  A    between atoms: C_22  and  O_24
REMARK    9  A    between atoms: O_24  and  C_25
REMARK   10  A    between atoms: C_25  and  C_27
REMARK   11  A    between atoms: C_28  and  O_42
REMARK   12  A    between atoms: C_30  and  C_41
REMARK   13  A    between atoms: C_34  and  C_36
REMARK   14  A    between atoms: O_42  and  C_43
REMARK   15  A    between atoms: C_43  and  C_45
REMARK   16  A    between atoms: C_45  and  C_46
REMARK   17  A    between atoms: C_45  and  C_47
REMARK                            x       y       z     vdW  Elec       q    Type
REMARK                         _______ _______ _______ _____ _____    ______ ____
ROOT
ATOM      1  C   LIG A   1      -4.270   1.979 128.684  0.00  0.00    +0.024 C 
ATOM      2  C   LIG A   1      -5.605   2.670 128.237  0.00  0.00    +0.063 C 
ATOM      3  C   LIG A   1      -6.384   3.553 129.281  0.00  0.00    +0.065 C 
ATOM      4  C   LIG A   1      -5.392   4.255 130.317  0.00  0.00    +0.020 C 
ATOM      5  C   LIG A   1      -6.144   5.170 131.307  0.00  0.00    +0.021 C 
ATOM      6  C   LIG A   1      -4.349   5.070 129.460  0.00  0.00    +0.009 C 
ATOM      7  C   LIG A   1      -4.333   4.965 128.102  0.00  0.00    +0.162 C 
ATOM      8  C   LIG A   1      -5.079   3.835 127.348  0.00  0.00    +0.207 C 
ATOM      9  O   LIG A   1      -5.169   3.905 126.126  0.00  0.00    -0.288 OA
ATOM     10  C   LIG A   1      -3.305   5.893 130.297  0.00  0.00    +0.152 C 
ATOM     11  C   LIG A   1      -1.997   6.227 129.529  0.00  0.00    +0.036 C 
ATOM     12  C   LIG A   1      -2.814   5.008 131.483  0.00  0.00    +0.176 C 
ATOM     13  O   LIG A   1      -1.878   5.321 132.221  0.00  0.00    -0.291 OA
ATOM     14  C   LIG A   1      -3.451   3.684 131.767  0.00  0.00    +0.044 C 
ATOM     15  C   LIG A   1      -4.633   3.335 131.238  0.00  0.00    -0.012 C 
ATOM     16  C   LIG A   1      -7.809   3.117 129.715  0.00  0.00    +0.223 C 
ATOM     17  C   LIG A   1      -8.192   1.627 129.530  0.00  0.00    +0.228 C 
ATOM     18  C   LIG A   1      -7.771   1.005 128.158  0.00  0.00    +0.037 C 
ATOM     19  C   LIG A   1      -6.430   1.528 127.613  0.00  0.00    -0.050 C 
ATOM     20  C   LIG A   1      -5.940   0.624 126.735  0.00  0.00    -0.025 C 
ATOM     21  C   LIG A   1      -6.734  -0.650 126.682  0.00  0.00    +0.036 C 
ATOM     22  C   LIG A   1      -7.581  -0.565 127.986  0.00  0.00    +0.039 C 
ATOM     23  C   LIG A   1      -8.924   1.344 127.130  0.00  0.00    +0.020 C 
ENDROOT
BRANCH  22  24
ATOM     24  C   LIG A   1      -6.978  -1.378 129.110  0.00  0.00    -0.005 A 
ATOM     25  C   LIG A   1      -5.624  -1.450 129.557  0.00  0.00    +0.045 A 
ATOM     26  C   LIG A   1      -5.581  -2.369 130.579  0.00  0.00    +0.195 A 
ATOM     27  O   LIG A   1      -6.808  -2.910 130.770  0.00  0.00    -0.471 OA
ATOM     28  C   LIG A   1      -7.634  -2.339 129.858  0.00  0.00    +0.198 A 
ENDBRANCH  22  24
BRANCH   7  29
ATOM     29  O   LIG A   1      -3.626   5.836 127.302  0.00  0.00    -0.503 OA
ATOM     30  H   LIG A   1      -3.198   5.278 126.617  0.00  0.00    +0.292 HD
ENDBRANCH   7  29
BRANCH  10  31
ATOM     31  C   LIG A   1      -3.814   7.258 130.817  0.00  0.00    +0.325 C 
ATOM     32  O   LIG A   1      -3.613   7.698 131.945  0.00  0.00    -0.249 OA
BRANCH  31  33
ATOM     33  O   LIG A   1      -4.509   7.950 129.872  0.00  0.00    -0.467 OA
ATOM     34  C   LIG A   1      -4.013   9.264 129.589  0.00  0.00    +0.280 C 
ENDBRANCH  31  33
ENDBRANCH  10  31
BRANCH  16  35
ATOM     35  O   LIG A   1      -8.805   3.915 128.970  0.00  0.00    -0.457 OA
BRANCH  35  36
ATOM     36  C   LIG A   1      -9.302   5.036 129.584  0.00  0.00    +0.304 C 
ATOM     37  O   LIG A   1      -9.176   6.170 129.206  0.00  0.00    -0.251 OA
ATOM     38  C   LIG A   1     -10.055   4.700 130.841  0.00  0.00    +0.136 C 
ENDBRANCH  35  36
ENDBRANCH  16  35
BRANCH  17  39
ATOM     39  O   LIG A   1      -7.772   0.894 130.694  0.00  0.00    -0.457 OA
BRANCH  39  40
ATOM     40  C   LIG A   1      -8.561   1.153 131.796  0.00  0.00    +0.310 C 
ATOM     41  O   LIG A   1      -9.773   1.221 131.785  0.00  0.00    -0.251 OA
BRANCH  40  42
ATOM     42  C   LIG A   1      -7.720   1.292 133.046  0.00  0.00    +0.092 C 
ATOM     43  C   LIG A   1      -6.344   0.706 132.810  0.00  0.00    +0.019 C 
ATOM     44  C   LIG A   1      -7.695   2.752 133.499  0.00  0.00    +0.019 C 
ENDBRANCH  40  42
ENDBRANCH  39  40
ENDBRANCH  17  39
TORSDOF 9
ENDMDL
MODEL 3
REMARK VINA RESULT:      -7.3      2.084      4.935
REMARK  Name = NuBBE_1600
REMARK  17 active torsions:
REMARK  status: ('A' for Active; 'I' for Inactive)
REMARK    1  A    between atoms: C_1  and  C_2
REMARK    2  A    between atoms: C_5  and  C_6
REMARK    3  A    between atoms: C_8  and  O_11
REMARK    4  A    between atoms: C_12  and  C_13
REMARK    5  A    between atoms: C_12  and  C_17
REMARK    6  A    between atoms: C_13  and  O_15
REMARK    7  A    between atoms: O_15  and  C_16
REMARK    8  A    between atoms: C_22  and  O_24
REMARK    9  A    between atoms: O_24  and  C_25
REMARK   10  A    between atoms: C_25  and  C_27
REMARK   11  A    between atoms: C_28  and  O_42
REMARK   12  A    between atoms: C_30  and  C_41
REMARK   13  A    between atoms: C_34  and  C_36
REMARK   14  A    between atoms: O_42  and  C_43
REMARK   15  A    between atoms: C_43  and  C_45
REMARK   16  A    between atoms: C_45  and  C_46
REMARK   17  A    between atoms: C_45  and  C_47
REMARK                            x       y       z     vdW  Elec       q    Type
REMARK                         _______ _______ _______ _____ _____    ______ ____
ROOT
ATOM      1  C   LIG A   1      -4.503   1.901 127.856  0.00  0.00    +0.024 C 
ATOM      2  C   LIG A   1      -5.481   1.485 129.010  0.00  0.00    +0.063 C 
ATOM      3  C   LIG A   1      -7.031   1.536 128.740  0.00  0.00    +0.065 C 
ATOM      4  C   LIG A   1      -7.375   1.232 127.211  0.00  0.00    +0.020 C 
ATOM      5  C   LIG A   1      -8.896   1.222 126.951  0.00  0.00    +0.021 C 
ATOM      6  C   LIG A   1      -6.725  -0.164 126.872  0.00  0.00    +0.009 C 
ATOM      7  C   LIG A   1      -5.919  -0.791 127.774  0.00  0.00    +0.162 C 
ATOM      8  C   LIG A   1      -5.333  -0.064 129.010  0.00  0.00    +0.207 C 
ATOM      9  O   LIG A   1      -4.767  -0.733 129.871  0.00  0.00    -0.288 OA
ATOM     10  C   LIG A   1      -6.996  -0.684 125.415  0.00  0.00    +0.152 C 
ATOM     11  C   LIG A   1      -5.958  -1.720 124.907  0.00  0.00    +0.036 C 
ATOM     12  C   LIG A   1      -6.833   0.510 124.426  0.00  0.00    +0.176 C 
ATOM     13  O   LIG A   1      -6.829   0.380 123.200  0.00  0.00    -0.291 OA
ATOM     14  C   LIG A   1      -6.631   1.903 124.931  0.00  0.00    +0.044 C 
ATOM     15  C   LIG A   1      -6.880   2.241 126.205  0.00  0.00    -0.012 C 
ATOM     16  C   LIG A   1      -7.904   2.514 129.571  0.00  0.00    +0.223 C 
ATOM     17  C   LIG A   1      -7.196   3.726 130.230  0.00  0.00    +0.228 C 
ATOM     18  C   LIG A   1      -5.839   3.394 130.933  0.00  0.00    +0.037 C 
ATOM     19  C   LIG A   1      -5.008   2.312 130.221  0.00  0.00    -0.050 C 
ATOM     20  C   LIG A   1      -3.716   2.445 130.596  0.00  0.00    -0.025 C 
ATOM     21  C   LIG A   1      -3.458   3.666 131.430  0.00  0.00    +0.036 C 
ATOM     22  C   LIG A   1      -4.738   4.516 131.177  0.00  0.00    +0.039 C 
ATOM     23  C   LIG A   1      -6.190   2.909 132.396  0.00  0.00    +0.020 C 
ENDROOT
BRANCH  22  24
ATOM     24  C   LIG A   1      -4.513   5.588 130.134  0.00  0.00    -0.005 A 
ATOM     25  C   LIG A   1      -3.956   5.480 128.823  0.00  0.00    +0.045 A 
ATOM     26  C   LIG A   1      -3.921   6.747 128.291  0.00  0.00    +0.195 A 
ATOM     27  O   LIG A   1      -4.375   7.646 129.197  0.00  0.00    -0.471 OA
ATOM     28  C   LIG A   1      -4.691   6.947 130.316  0.00  0.00    +0.198 A 
ENDBRANCH  22  24
BRANCH   7  29
ATOM     29  O   LIG A   1      -5.541  -2.110 127.635  0.00  0.00    -0.503 OA
ATOM     30  H   LIG A   1      -4.655  -2.087 127.211  0.00  0.00    +0.292 HD
ENDBRANCH   7  29
BRANCH  10  31
ATOM     31  C   LIG A   1      -8.368  -1.369 125.211  0.00  0.00    +0.325 C 
ATOM     32  O   LIG A   1      -9.387  -0.800 124.833  0.00  0.00    -0.249 OA
BRANCH  31  33
ATOM     33  O   LIG A   1      -8.329  -2.704 125.480  0.00  0.00    -0.467 OA
ATOM     34  C   LIG A   1      -8.999  -3.105 126.681  0.00  0.00    +0.280 C 
ENDBRANCH  31  33
ENDBRANCH  10  31
BRANCH  16  35
ATOM     35  O   LIG A   1      -8.570   1.762 130.655  0.00  0.00    -0.457 OA
BRANCH  35  36
ATOM     36  C   LIG A   1      -9.671   2.338 131.238  0.00  0.00    +0.304 C 
ATOM     37  O   LIG A   1     -10.617   2.806 130.664  0.00  0.00    -0.251 OA
ATOM     38  C   LIG A   1      -9.578   2.333 132.738  0.00  0.00    +0.136 C 
ENDBRANCH  35  36
ENDBRANCH  16  35
BRANCH  17  39
ATOM     39  O   LIG A   1      -7.151   4.806 129.281  0.00  0.00    -0.457 OA
BRANCH  39  40
ATOM     40  C   LIG A   1      -8.388   5.381 129.073  0.00  0.00    +0.310 C 
ATOM     41  O   LIG A   1      -8.959   5.440 128.004  0.00  0.00    -0.251 OA
BRANCH  40  42
ATOM     42  C   LIG A   1      -8.975   5.889 130.371  0.00  0.00    +0.092 C 
ATOM     43  C   LIG A   1      -8.127   7.018 130.915  0.00  0.00    +0.019 C 
ATOM     44  C   LIG A   1     -10.442   6.269 130.166  0.00  0.00    +0.019 C 
ENDBRANCH  40  42
ENDBRANCH  39  40
ENDBRANCH  17  39
TORSDOF 9
ENDMDL
MODEL 4
REMARK VINA RESULT:      -7.2      1.852      3.143
REMARK  Name = NuBBE_1600
REMARK  17 active torsions:
REMARK  status: ('A' for Active; 'I' for Inactive)
REMARK    1  A    between atoms: C_1  and  C_2
REMARK    2  A    between atoms: C_5  and  C_6
REMARK    3  A    between atoms: C_8  and  O_11
REMARK    4  A    between atoms: C_12  and  C_13
REMARK    5  A    between atoms: C_12  and  C_17
REMARK    6  A    between atoms: C_13  and  O_15
REMARK    7  A    between atoms: O_15  and  C_16
REMARK    8  A    between atoms: C_22  and  O_24
REMARK    9  A    between atoms: O_24  and  C_25
REMARK   10  A    between atoms: C_25  and  C_27
REMARK   11  A    between atoms: C_28  and  O_42
REMARK   12  A    between atoms: C_30  and  C_41
REMARK   13  A    between atoms: C_34  and  C_36
REMARK   14  A    between atoms: O_42  and  C_43
REMARK   15  A    between atoms: C_43  and  C_45
REMARK   16  A    between atoms: C_45  and  C_46
REMARK   17  A    between atoms: C_45  and  C_47
REMARK                            x       y       z     vdW  Elec       q    Type
REMARK                         _______ _______ _______ _____ _____    ______ ____
ROOT
ATOM      1  C   LIG A   1      -4.062   2.765 132.243  0.00  0.00    +0.024 C 
ATOM      2  C   LIG A   1      -5.538   3.250 132.454  0.00  0.00    +0.063 C 
ATOM      3  C   LIG A   1      -6.682   2.574 131.611  0.00  0.00    +0.065 C 
ATOM      4  C   LIG A   1      -6.349   1.048 131.282  0.00  0.00    +0.020 C 
ATOM      5  C   LIG A   1      -7.493   0.360 130.507  0.00  0.00    +0.021 C 
ATOM      6  C   LIG A   1      -6.083   0.336 132.664  0.00  0.00    +0.009 C 
ATOM      7  C   LIG A   1      -6.029   1.059 133.817  0.00  0.00    +0.162 C 
ATOM      8  C   LIG A   1      -5.894   2.603 133.824  0.00  0.00    +0.207 C 
ATOM      9  O   LIG A   1      -6.031   3.199 134.888  0.00  0.00    -0.288 OA
ATOM     10  C   LIG A   1      -5.791  -1.204 132.569  0.00  0.00    +0.152 C 
ATOM     11  C   LIG A   1      -5.013  -1.779 133.784  0.00  0.00    +0.036 C 
ATOM     12  C   LIG A   1      -4.826  -1.452 131.370  0.00  0.00    +0.176 C 
ATOM     13  O   LIG A   1      -4.293  -2.539 131.141  0.00  0.00    -0.291 OA
ATOM     14  C   LIG A   1      -4.464  -0.342 130.435  0.00  0.00    +0.044 C 
ATOM     15  C   LIG A   1      -5.160   0.805 130.388  0.00  0.00    -0.012 C 
ATOM     16  C   LIG A   1      -7.491   3.444 130.612  0.00  0.00    +0.223 C 
ATOM     17  C   LIG A   1      -6.837   4.756 130.109  0.00  0.00    +0.228 C 
ATOM     18  C   LIG A   1      -6.141   5.612 131.217  0.00  0.00    +0.037 C 
ATOM     19  C   LIG A   1      -5.454   4.782 132.317  0.00  0.00    -0.050 C 
ATOM     20  C   LIG A   1      -4.516   5.552 132.914  0.00  0.00    -0.025 C 
ATOM     21  C   LIG A   1      -4.313   6.879 132.241  0.00  0.00    +0.036 C 
ATOM     22  C   LIG A   1      -4.995   6.655 130.858  0.00  0.00    +0.039 C 
ATOM     23  C   LIG A   1      -7.263   6.518 131.866  0.00  0.00    +0.020 C 
ENDROOT
BRANCH  22  24
ATOM     24  C   LIG A   1      -3.991   6.327 129.775  0.00  0.00    -0.005 A 
ATOM     25  C   LIG A   1      -3.000   5.300 129.734  0.00  0.00    +0.045 A 
ATOM     26  C   LIG A   1      -2.308   5.451 128.555  0.00  0.00    +0.195 A 
ATOM     27  O   LIG A   1      -2.769   6.529 127.879  0.00  0.00    -0.471 OA
ATOM     28  C   LIG A   1      -3.753   7.075 128.636  0.00  0.00    +0.198 A 
ENDBRANCH  22  24
BRANCH   7  29
ATOM     29  O   LIG A   1      -6.057   0.467 135.062  0.00  0.00    -0.503 OA
ATOM     30  H   LIG A   1      -6.453  -0.420 134.924  0.00  0.00    +0.292 HD
ENDBRANCH   7  29
BRANCH  10  31
ATOM     31  C   LIG A   1      -7.045  -2.101 132.447  0.00  0.00    +0.325 C 
ATOM     32  O   LIG A   1      -7.234  -2.926 131.557  0.00  0.00    -0.249 OA
BRANCH  31  33
ATOM     33  O   LIG A   1      -7.935  -1.895 133.457  0.00  0.00    -0.467 OA
ATOM     34  C   LIG A   1      -8.357  -3.077 134.150  0.00  0.00    +0.280 C 
ENDBRANCH  31  33
ENDBRANCH  10  31
BRANCH  16  35
ATOM     35  O   LIG A   1      -8.781   3.815 131.232  0.00  0.00    -0.457 OA
BRANCH  35  36
ATOM     36  C   LIG A   1      -9.860   3.970 130.399  0.00  0.00    +0.304 C 
ATOM     37  O   LIG A   1     -10.186   3.227 129.512  0.00  0.00    -0.251 OA
ATOM     38  C   LIG A   1     -10.632   5.221 130.709  0.00  0.00    +0.136 C 
ENDBRANCH  35  36
ENDBRANCH  16  35
BRANCH  17  39
ATOM     39  O   LIG A   1      -6.024   4.455 128.961  0.00  0.00    -0.457 OA
BRANCH  39  40
ATOM     40  C   LIG A   1      -6.770   4.037 127.878  0.00  0.00    +0.310 C 
ATOM     41  O   LIG A   1      -7.730   4.627 127.424  0.00  0.00    -0.251 OA
BRANCH  40  42
ATOM     42  C   LIG A   1      -6.206   2.766 127.286  0.00  0.00    +0.092 C 
ATOM     43  C   LIG A   1      -6.719   2.581 125.874  0.00  0.00    +0.019 C 
ATOM     44  C   LIG A   1      -4.680   2.776 127.387  0.00  0.00    +0.019 C 
ENDBRANCH  40  42
ENDBRANCH  39  40
ENDBRANCH  17  39
TORSDOF 9
ENDMDL
MODEL 5
REMARK VINA RESULT:      -7.2      2.292      6.596
REMARK  Name = NuBBE_1600
REMARK  17 active torsions:
REMARK  status: ('A' for Active; 'I' for Inactive)
REMARK    1  A    between atoms: C_1  and  C_2
REMARK    2  A    between atoms: C_5  and  C_6
REMARK    3  A    between atoms: C_8  and  O_11
REMARK    4  A    between atoms: C_12  and  C_13
REMARK    5  A    between atoms: C_12  and  C_17
REMARK    6  A    between atoms: C_13  and  O_15
REMARK    7  A    between atoms: O_15  and  C_16
REMARK    8  A    between atoms: C_22  and  O_24
REMARK    9  A    between atoms: O_24  and  C_25
REMARK   10  A    between atoms: C_25  and  C_27
REMARK   11  A    between atoms: C_28  and  O_42
REMARK   12  A    between atoms: C_30  and  C_41
REMARK   13  A    between atoms: C_34  and  C_36
REMARK   14  A    between atoms: O_42  and  C_43
REMARK   15  A    between atoms: C_43  and  C_45
REMARK   16  A    between atoms: C_45  and  C_46
REMARK   17  A    between atoms: C_45  and  C_47
REMARK                            x       y       z     vdW  Elec       q    Type
REMARK                         _______ _______ _______ _____ _____    ______ ____
ROOT
ATOM      1  C   LIG A   1      -8.633   1.907 128.142  0.00  0.00    +0.024 C 
ATOM      2  C   LIG A   1      -7.757   3.116 128.624  0.00  0.00    +0.063 C 
ATOM      3  C   LIG A   1      -6.266   3.212 128.129  0.00  0.00    +0.065 C 
ATOM      4  C   LIG A   1      -6.086   2.586 126.671  0.00  0.00    +0.020 C 
ATOM      5  C   LIG A   1      -4.639   2.730 126.154  0.00  0.00    +0.021 C 
ATOM      6  C   LIG A   1      -7.109   3.332 125.731  0.00  0.00    +0.009 C 
ATOM      7  C   LIG A   1      -8.015   4.208 126.248  0.00  0.00    +0.162 C 
ATOM      8  C   LIG A   1      -8.325   4.283 127.765  0.00  0.00    +0.207 C 
ATOM      9  O   LIG A   1      -9.015   5.211 128.178  0.00  0.00    -0.288 OA
ATOM     10  C   LIG A   1      -7.055   2.903 124.221  0.00  0.00    +0.152 C 
ATOM     11  C   LIG A   1      -8.359   3.194 123.431  0.00  0.00    +0.036 C 
ATOM     12  C   LIG A   1      -6.927   1.351 124.153  0.00  0.00    +0.176 C 
ATOM     13  O   LIG A   1      -7.020   0.707 123.106  0.00  0.00    -0.291 OA
ATOM     14  C   LIG A   1      -6.716   0.543 125.395  0.00  0.00    +0.044 C 
ATOM     15  C   LIG A   1      -6.328   1.103 126.551  0.00  0.00    -0.012 C 
ATOM     16  C   LIG A   1      -5.123   3.130 129.176  0.00  0.00    +0.223 C 
ATOM     17  C   LIG A   1      -5.441   2.458 130.535  0.00  0.00    +0.228 C 
ATOM     18  C   LIG A   1      -6.805   2.878 131.175  0.00  0.00    +0.037 C 
ATOM     19  C   LIG A   1      -7.932   3.121 130.154  0.00  0.00    -0.050 C 
ATOM     20  C   LIG A   1      -9.120   2.997 130.787  0.00  0.00    -0.025 C 
ATOM     21  C   LIG A   1      -8.996   2.510 132.203  0.00  0.00    +0.036 C 
ATOM     22  C   LIG A   1      -7.544   1.948 132.232  0.00  0.00    +0.039 C 
ATOM     23  C   LIG A   1      -6.538   4.208 131.988  0.00  0.00    +0.020 C 
ENDROOT
BRANCH  22  24
ATOM     24  C   LIG A   1      -7.511   0.445 132.064  0.00  0.00    -0.005 A 
ATOM     25  C   LIG A   1      -8.100  -0.370 131.050  0.00  0.00    +0.045 A 
ATOM     26  C   LIG A   1      -7.826  -1.679 131.371  0.00  0.00    +0.195 A 
ATOM     27  O   LIG A   1      -7.146  -1.739 132.541  0.00  0.00    -0.471 OA
ATOM     28  C   LIG A   1      -6.996  -0.462 132.972  0.00  0.00    +0.198 A 
ENDBRANCH  22  24
BRANCH   7  29
ATOM     29  O   LIG A   1      -8.747   5.067 125.457  0.00  0.00    -0.503 OA
ATOM     30  H   LIG A   1      -9.687   4.821 125.598  0.00  0.00    +0.292 HD
ENDBRANCH   7  29
BRANCH  10  31
ATOM     31  C   LIG A   1      -5.934   3.573 123.391  0.00  0.00    +0.325 C 
ATOM     32  O   LIG A   1      -5.153   4.417 123.819  0.00  0.00    -0.249 OA
BRANCH  31  33
ATOM     33  O   LIG A   1      -5.885   3.110 122.111  0.00  0.00    -0.467 OA
ATOM     34  C   LIG A   1      -5.452   4.063 121.133  0.00  0.00    +0.280 C 
ENDBRANCH  31  33
ENDBRANCH  10  31
BRANCH  16  35
ATOM     35  O   LIG A   1      -4.642   4.496 129.472  0.00  0.00    -0.457 OA
BRANCH  35  36
ATOM     36  C   LIG A   1      -3.290   4.669 129.626  0.00  0.00    +0.304 C 
ATOM     37  O   LIG A   1      -2.676   4.593 130.656  0.00  0.00    -0.251 OA
ATOM     38  C   LIG A   1      -2.613   4.984 128.321  0.00  0.00    +0.136 C 
ENDBRANCH  35  36
ENDBRANCH  16  35
BRANCH  17  39
ATOM     39  O   LIG A   1      -5.230   1.041 130.410  0.00  0.00    -0.457 OA
BRANCH  39  40
ATOM     40  C   LIG A   1      -4.141   0.602 131.135  0.00  0.00    +0.310 C 
ATOM     41  O   LIG A   1      -3.613   1.215 132.040  0.00  0.00    -0.251 OA
BRANCH  40  42
ATOM     42  C   LIG A   1      -3.714  -0.780 130.692  0.00  0.00    +0.092 C 
ATOM     43  C   LIG A   1      -3.631  -1.703 131.889  0.00  0.00    +0.019 C 
ATOM     44  C   LIG A   1      -4.646  -1.286 129.591  0.00  0.00    +0.019 C 
ENDBRANCH  40  42
ENDBRANCH  39  40
ENDBRANCH  17  39
TORSDOF 9
ENDMDL
MODEL 6
REMARK VINA RESULT:      -7.1      2.145      5.615
REMARK  Name = NuBBE_1600
REMARK  17 active torsions:
REMARK  status: ('A' for Active; 'I' for Inactive)
REMARK    1  A    between atoms: C_1  and  C_2
REMARK    2  A    between atoms: C_5  and  C_6
REMARK    3  A    between atoms: C_8  and  O_11
REMARK    4  A    between atoms: C_12  and  C_13
REMARK    5  A    between atoms: C_12  and  C_17
REMARK    6  A    between atoms: C_13  and  O_15
REMARK    7  A    between atoms: O_15  and  C_16
REMARK    8  A    between atoms: C_22  and  O_24
REMARK    9  A    between atoms: O_24  and  C_25
REMARK   10  A    between atoms: C_25  and  C_27
REMARK   11  A    between atoms: C_28  and  O_42
REMARK   12  A    between atoms: C_30  and  C_41
REMARK   13  A    between atoms: C_34  and  C_36
REMARK   14  A    between atoms: O_42  and  C_43
REMARK   15  A    between atoms: C_43  and  C_45
REMARK   16  A    between atoms: C_45  and  C_46
REMARK   17  A    between atoms: C_45  and  C_47
REMARK                            x       y       z     vdW  Elec       q    Type
REMARK                         _______ _______ _______ _____ _____    ______ ____
ROOT
ATOM      1  C   LIG A   1      -6.827   4.445 128.303  0.00  0.00    +0.024 C 
ATOM      2  C   LIG A   1      -5.618   3.776 129.044  0.00  0.00    +0.063 C 
ATOM      3  C   LIG A   1      -5.747   2.274 129.496  0.00  0.00    +0.065 C 
ATOM      4  C   LIG A   1      -6.679   1.437 128.505  0.00  0.00    +0.020 C 
ATOM      5  C   LIG A   1      -6.763  -0.050 128.908  0.00  0.00    +0.021 C 
ATOM      6  C   LIG A   1      -6.068   1.608 127.061  0.00  0.00    +0.009 C 
ATOM      7  C   LIG A   1      -5.034   2.467 126.843  0.00  0.00    +0.162 C 
ATOM      8  C   LIG A   1      -4.616   3.544 127.876  0.00  0.00    +0.207 C 
ATOM      9  O   LIG A   1      -3.570   4.160 127.692  0.00  0.00    -0.288 OA
ATOM     10  C   LIG A   1      -6.809   0.808 125.931  0.00  0.00    +0.152 C 
ATOM     11  C   LIG A   1      -6.588   1.375 124.503  0.00  0.00    +0.036 C 
ATOM     12  C   LIG A   1      -8.346   0.956 126.147  0.00  0.00    +0.176 C 
ATOM     13  O   LIG A   1      -9.187   0.571 125.331  0.00  0.00    -0.291 OA
ATOM     14  C   LIG A   1      -8.888   1.622 127.372  0.00  0.00    +0.044 C 
ATOM     15  C   LIG A   1      -8.130   1.843 128.457  0.00  0.00    -0.012 C 
ATOM     16  C   LIG A   1      -5.698   1.941 131.011  0.00  0.00    +0.223 C 
ATOM     17  C   LIG A   1      -6.041   3.076 132.008  0.00  0.00    +0.228 C 
ATOM     18  C   LIG A   1      -5.388   4.459 131.681  0.00  0.00    +0.037 C 
ATOM     19  C   LIG A   1      -5.277   4.764 130.176  0.00  0.00    -0.050 C 
ATOM     20  C   LIG A   1      -5.170   6.102 130.015  0.00  0.00    -0.025 C 
ATOM     21  C   LIG A   1      -5.356   6.875 131.289  0.00  0.00    +0.036 C 
ATOM     22  C   LIG A   1      -6.013   5.818 132.224  0.00  0.00    +0.039 C 
ATOM     23  C   LIG A   1      -3.943   4.445 132.322  0.00  0.00    +0.020 C 
ENDROOT
BRANCH  22  24
ATOM     24  C   LIG A   1      -7.515   5.978 132.298  0.00  0.00    -0.005 A 
ATOM     25  C   LIG A   1      -8.443   6.345 131.276  0.00  0.00    +0.045 A 
ATOM     26  C   LIG A   1      -9.687   6.400 131.858  0.00  0.00    +0.195 A 
ATOM     27  O   LIG A   1      -9.594   6.138 133.183  0.00  0.00    -0.471 OA
ATOM     28  C   LIG A   1      -8.281   5.925 133.448  0.00  0.00    +0.198 A 
ENDBRANCH  22  24
BRANCH   7  29
ATOM     29  O   LIG A   1      -4.305   2.463 125.673  0.00  0.00    -0.503 OA
ATOM     30  H   LIG A   1      -3.410   2.145 125.920  0.00  0.00    +0.292 HD
ENDBRANCH   7  29
BRANCH  10  31
ATOM     31  C   LIG A   1      -6.421  -0.686 125.825  0.00  0.00    +0.325 C 
ATOM     32  O   LIG A   1      -5.277  -1.121 125.919  0.00  0.00    -0.249 OA
BRANCH  31  33
ATOM     33  O   LIG A   1      -7.500  -1.493 125.632  0.00  0.00    -0.467 OA
ATOM     34  C   LIG A   1      -7.533  -2.674 126.443  0.00  0.00    +0.280 C 
ENDBRANCH  31  33
ENDBRANCH  10  31
BRANCH  16  35
ATOM     35  O   LIG A   1      -4.343   1.459 131.355  0.00  0.00    -0.457 OA
BRANCH  35  36
ATOM     36  C   LIG A   1      -4.229   0.602 132.419  0.00  0.00    +0.304 C 
ATOM     37  O   LIG A   1      -3.564   0.775 133.405  0.00  0.00    -0.251 OA
ATOM     38  C   LIG A   1      -5.051  -0.642 132.227  0.00  0.00    +0.136 C 
ENDBRANCH  35  36
ENDBRANCH  16  35
BRANCH  17  39
ATOM     39  O   LIG A   1      -7.465   3.099 132.210  0.00  0.00    -0.457 OA
BRANCH  39  40
ATOM     40  C   LIG A   1      -7.920   1.995 132.901  0.00  0.00    +0.310 C 
ATOM     41  O   LIG A   1      -7.354   1.482 133.845  0.00  0.00    -0.251 OA
BRANCH  40  42
ATOM     42  C   LIG A   1      -9.255   1.530 132.366  0.00  0.00    +0.092 C 
ATOM     43  C   LIG A   1      -9.859   2.602 131.483  0.00  0.00    +0.019 C 
ATOM     44  C   LIG A   1      -9.096   0.180 131.667  0.00  0.00    +0.019 C 
ENDBRANCH  40  42
ENDBRANCH  39  40
ENDBRANCH  17  39
TORSDOF 9
ENDMDL
MODEL 7
REMARK VINA RESULT:      -7.0      2.284      6.381
REMARK  Name = NuBBE_1600
REMARK  17 active torsions:
REMARK  status: ('A' for Active; 'I' for Inactive)
REMARK    1  A    between atoms: C_1  and  C_2
REMARK    2  A    between atoms: C_5  and  C_6
REMARK    3  A    between atoms: C_8  and  O_11
REMARK    4  A    between atoms: C_12  and  C_13
REMARK    5  A    between atoms: C_12  and  C_17
REMARK    6  A    between atoms: C_13  and  O_15
REMARK    7  A    between atoms: O_15  and  C_16
REMARK    8  A    between atoms: C_22  and  O_24
REMARK    9  A    between atoms: O_24  and  C_25
REMARK   10  A    between atoms: C_25  and  C_27
REMARK   11  A    between atoms: C_28  and  O_42
REMARK   12  A    between atoms: C_30  and  C_41
REMARK   13  A    between atoms: C_34  and  C_36
REMARK   14  A    between atoms: O_42  and  C_43
REMARK   15  A    between atoms: C_43  and  C_45
REMARK   16  A    between atoms: C_45  and  C_46
REMARK   17  A    between atoms: C_45  and  C_47
REMARK                            x       y       z     vdW  Elec       q    Type
REMARK                         _______ _______ _______ _____ _____    ______ ____
ROOT
ATOM      1  C   LIG A   1      -5.137   4.885 129.722  0.00  0.00    +0.024 C 
ATOM      2  C   LIG A   1      -4.751   3.367 129.643  0.00  0.00    +0.063 C 
ATOM      3  C   LIG A   1      -5.873   2.320 129.292  0.00  0.00    +0.065 C 
ATOM      4  C   LIG A   1      -6.983   2.945 128.329  0.00  0.00    +0.020 C 
ATOM      5  C   LIG A   1      -8.054   1.908 127.932  0.00  0.00    +0.021 C 
ATOM      6  C   LIG A   1      -6.222   3.499 127.063  0.00  0.00    +0.009 C 
ATOM      7  C   LIG A   1      -4.860   3.508 127.022  0.00  0.00    +0.162 C 
ATOM      8  C   LIG A   1      -3.990   3.301 128.287  0.00  0.00    +0.207 C 
ATOM      9  O   LIG A   1      -2.780   3.144 128.148  0.00  0.00    -0.288 OA
ATOM     10  C   LIG A   1      -7.146   4.111 125.951  0.00  0.00    +0.152 C 
ATOM     11  C   LIG A   1      -6.427   5.113 125.009  0.00  0.00    +0.036 C 
ATOM     12  C   LIG A   1      -8.240   4.980 126.641  0.00  0.00    +0.176 C 
ATOM     13  O   LIG A   1      -9.015   5.714 126.023  0.00  0.00    -0.291 OA
ATOM     14  C   LIG A   1      -8.383   4.994 128.130  0.00  0.00    +0.044 C 
ATOM     15  C   LIG A   1      -7.812   4.063 128.909  0.00  0.00    -0.012 C 
ATOM     16  C   LIG A   1      -6.249   1.244 130.345  0.00  0.00    +0.223 C 
ATOM     17  C   LIG A   1      -5.910   1.541 131.828  0.00  0.00    +0.228 C 
ATOM     18  C   LIG A   1      -4.485   2.139 132.070  0.00  0.00    +0.037 C 
ATOM     19  C   LIG A   1      -4.008   3.098 130.965  0.00  0.00    -0.050 C 
ATOM     20  C   LIG A   1      -3.046   3.900 131.477  0.00  0.00    -0.025 C 
ATOM     21  C   LIG A   1      -2.858   3.738 132.958  0.00  0.00    +0.036 C 
ATOM     22  C   LIG A   1      -4.156   2.987 133.376  0.00  0.00    +0.039 C 
ATOM     23  C   LIG A   1      -3.488   0.917 132.173  0.00  0.00    +0.020 C 
ENDROOT
BRANCH  22  24
ATOM     24  C   LIG A   1      -5.198   3.923 133.947  0.00  0.00    -0.005 A 
ATOM     25  C   LIG A   1      -5.656   5.183 133.455  0.00  0.00    +0.045 A 
ATOM     26  C   LIG A   1      -6.575   5.662 134.359  0.00  0.00    +0.195 A 
ATOM     27  O   LIG A   1      -6.687   4.810 135.405  0.00  0.00    -0.471 OA
ATOM     28  C   LIG A   1      -5.827   3.788 135.171  0.00  0.00    +0.198 A 
ENDBRANCH  22  24
BRANCH   7  29
ATOM     29  O   LIG A   1      -4.158   3.736 125.857  0.00  0.00    -0.503 OA
ATOM     30  H   LIG A   1      -4.056   4.711 125.797  0.00  0.00    +0.292 HD
ENDBRANCH   7  29
BRANCH  10  31
ATOM     31  C   LIG A   1      -7.798   3.078 125.001  0.00  0.00    +0.325 C 
ATOM     32  O   LIG A   1      -9.002   2.992 124.777  0.00  0.00    -0.249 OA
BRANCH  31  33
ATOM     33  O   LIG A   1      -6.881   2.264 124.408  0.00  0.00    -0.467 OA
ATOM     34  C   LIG A   1      -7.365   1.516 123.285  0.00  0.00    +0.280 C 
ENDBRANCH  31  33
ENDBRANCH  10  31
BRANCH  16  35
ATOM     35  O   LIG A   1      -5.580  -0.027 129.995  0.00  0.00    -0.457 OA
BRANCH  35  36
ATOM     36  C   LIG A   1      -6.165  -1.189 130.429  0.00  0.00    +0.304 C 
ATOM     37  O   LIG A   1      -5.636  -2.055 131.071  0.00  0.00    -0.251 OA
ATOM     38  C   LIG A   1      -7.603  -1.285 130.001  0.00  0.00    +0.136 C 
ENDBRANCH  35  36
ENDBRANCH  16  35
BRANCH  17  39
ATOM     39  O   LIG A   1      -6.997   2.280 132.411  0.00  0.00    -0.457 OA
BRANCH  39  40
ATOM     40  C   LIG A   1      -8.043   1.467 132.797  0.00  0.00    +0.310 C 
ATOM     41  O   LIG A   1      -7.930   0.319 133.177  0.00  0.00    -0.251 OA
BRANCH  40  42
ATOM     42  C   LIG A   1      -9.359   2.210 132.740  0.00  0.00    +0.092 C 
ATOM     43  C   LIG A   1      -9.263   3.493 133.538  0.00  0.00    +0.019 C 
ATOM     44  C   LIG A   1      -9.774   2.424 131.284  0.00  0.00    +0.019 C 
ENDBRANCH  40  42
ENDBRANCH  39  40
ENDBRANCH  17  39
TORSDOF 9
ENDMDL
MODEL 8
REMARK VINA RESULT:      -7.0      2.293      7.094
REMARK  Name = NuBBE_1600
REMARK  17 active torsions:
REMARK  status: ('A' for Active; 'I' for Inactive)
REMARK    1  A    between atoms: C_1  and  C_2
REMARK    2  A    between atoms: C_5  and  C_6
REMARK    3  A    between atoms: C_8  and  O_11
REMARK    4  A    between atoms: C_12  and  C_13
REMARK    5  A    between atoms: C_12  and  C_17
REMARK    6  A    between atoms: C_13  and  O_15
REMARK    7  A    between atoms: O_15  and  C_16
REMARK    8  A    between atoms: C_22  and  O_24
REMARK    9  A    between atoms: O_24  and  C_25
REMARK   10  A    between atoms: C_25  and  C_27
REMARK   11  A    between atoms: C_28  and  O_42
REMARK   12  A    between atoms: C_30  and  C_41
REMARK   13  A    between atoms: C_34  and  C_36
REMARK   14  A    between atoms: O_42  and  C_43
REMARK   15  A    between atoms: C_43  and  C_45
REMARK   16  A    between atoms: C_45  and  C_46
REMARK   17  A    between atoms: C_45  and  C_47
REMARK                            x       y       z     vdW  Elec       q    Type
REMARK                         _______ _______ _______ _____ _____    ______ ____
ROOT
ATOM      1  C   LIG A   1      -6.764  -0.031 130.669  0.00  0.00    +0.024 C 
ATOM      2  C   LIG A   1      -6.100   0.883 129.580  0.00  0.00    +0.063 C 
ATOM      3  C   LIG A   1      -6.925   2.095 129.008  0.00  0.00    +0.065 C 
ATOM      4  C   LIG A   1      -7.924   2.696 130.098  0.00  0.00    +0.020 C 
ATOM      5  C   LIG A   1      -8.693   3.923 129.563  0.00  0.00    +0.021 C 
ATOM      6  C   LIG A   1      -7.049   3.070 131.355  0.00  0.00    +0.009 C 
ATOM      7  C   LIG A   1      -5.730   2.734 131.406  0.00  0.00    +0.162 C 
ATOM      8  C   LIG A   1      -5.094   1.712 130.430  0.00  0.00    +0.207 C 
ATOM      9  O   LIG A   1      -3.872   1.594 130.417  0.00  0.00    -0.288 OA
ATOM     10  C   LIG A   1      -7.839   3.739 132.536  0.00  0.00    +0.152 C 
ATOM     11  C   LIG A   1      -7.147   3.604 133.920  0.00  0.00    +0.036 C 
ATOM     12  C   LIG A   1      -9.184   2.975 132.726  0.00  0.00    +0.176 C 
ATOM     13  O   LIG A   1      -9.946   3.168 133.676  0.00  0.00    -0.291 OA
ATOM     14  C   LIG A   1      -9.610   1.918 131.757  0.00  0.00    +0.044 C 
ATOM     15  C   LIG A   1      -9.039   1.786 130.550  0.00  0.00    -0.012 C 
ATOM     16  C   LIG A   1      -7.293   2.105 127.500  0.00  0.00    +0.223 C 
ATOM     17  C   LIG A   1      -7.304   0.746 126.754  0.00  0.00    +0.228 C 
ATOM     18  C   LIG A   1      -6.086  -0.184 127.063  0.00  0.00    +0.037 C 
ATOM     19  C   LIG A   1      -5.588  -0.109 128.518  0.00  0.00    -0.050 C 
ATOM     20  C   LIG A   1      -4.904  -1.242 128.798  0.00  0.00    -0.025 C 
ATOM     21  C   LIG A   1      -4.977  -2.270 127.706  0.00  0.00    +0.036 C 
ATOM     22  C   LIG A   1      -6.173  -1.758 126.850  0.00  0.00    +0.039 C 
ATOM     23  C   LIG A   1      -4.921   0.249 126.086  0.00  0.00    +0.020 C 
ENDROOT
BRANCH  22  24
ATOM     24  C   LIG A   1      -7.457  -2.491 127.169  0.00  0.00    -0.005 A 
ATOM     25  C   LIG A   1      -7.983  -2.897 128.433  0.00  0.00    +0.045 A 
ATOM     26  C   LIG A   1      -9.154  -3.574 128.187  0.00  0.00    +0.195 A 
ATOM     27  O   LIG A   1      -9.373  -3.658 126.853  0.00  0.00    -0.471 OA
ATOM     28  C   LIG A   1      -8.328  -3.041 126.246  0.00  0.00    +0.198 A 
ENDBRANCH  22  24
BRANCH   7  29
ATOM     29  O   LIG A   1      -4.871   3.255 132.350  0.00  0.00    -0.503 OA
ATOM     30  H   LIG A   1      -5.209   2.941 133.217  0.00  0.00    +0.292 HD
ENDBRANCH   7  29
BRANCH  10  31
ATOM     31  C   LIG A   1      -8.098   5.255 132.373  0.00  0.00    +0.325 C 
ATOM     32  O   LIG A   1      -9.207   5.780 132.359  0.00  0.00    -0.249 OA
BRANCH  31  33
ATOM     33  O   LIG A   1      -6.945   5.972 132.262  0.00  0.00    -0.467 OA
ATOM     34  C   LIG A   1      -6.899   6.890 131.162  0.00  0.00    +0.280 C 
ENDBRANCH  31  33
ENDBRANCH  10  31
BRANCH  16  35
ATOM     35  O   LIG A   1      -6.350   2.986 126.779  0.00  0.00    -0.457 OA
BRANCH  35  36
ATOM     36  C   LIG A   1      -6.881   3.894 125.899  0.00  0.00    +0.304 C 
ATOM     37  O   LIG A   1      -7.898   4.517 126.047  0.00  0.00    -0.251 OA
ATOM     38  C   LIG A   1      -6.034   4.041 124.667  0.00  0.00    +0.136 C 
ENDBRANCH  35  36
ENDBRANCH  16  35
BRANCH  17  39
ATOM     39  O   LIG A   1      -8.599   0.142 126.916  0.00  0.00    -0.457 OA
BRANCH  39  40
ATOM     40  C   LIG A   1      -9.405   0.311 125.809  0.00  0.00    +0.310 C 
ATOM     41  O   LIG A   1     -10.610   0.167 125.796  0.00  0.00    -0.251 OA
BRANCH  40  42
ATOM     42  C   LIG A   1      -8.597   0.756 124.611  0.00  0.00    +0.092 C 
ATOM     43  C   LIG A   1      -8.360  -0.416 123.683  0.00  0.00    +0.019 C 
ATOM     44  C   LIG A   1      -9.278   1.946 123.934  0.00  0.00    +0.019 C 
ENDBRANCH  40  42
ENDBRANCH  39  40
ENDBRANCH  17  39
TORSDOF 9
ENDMDL
MODEL 9
REMARK VINA RESULT:      -7.0      2.487      5.218
REMARK  Name = NuBBE_1600
REMARK  17 active torsions:
REMARK  status: ('A' for Active; 'I' for Inactive)
REMARK    1  A    between atoms: C_1  and  C_2
REMARK    2  A    between atoms: C_5  and  C_6
REMARK    3  A    between atoms: C_8  and  O_11
REMARK    4  A    between atoms: C_12  and  C_13
REMARK    5  A    between atoms: C_12  and  C_17
REMARK    6  A    between atoms: C_13  and  O_15
REMARK    7  A    between atoms: O_15  and  C_16
REMARK    8  A    between atoms: C_22  and  O_24
REMARK    9  A    between atoms: O_24  and  C_25
REMARK   10  A    between atoms: C_25  and  C_27
REMARK   11  A    between atoms: C_28  and  O_42
REMARK   12  A    between atoms: C_30  and  C_41
REMARK   13  A    between atoms: C_34  and  C_36
REMARK   14  A    between atoms: O_42  and  C_43
REMARK   15  A    between atoms: C_43  and  C_45
REMARK   16  A    between atoms: C_45  and  C_46
REMARK   17  A    between atoms: C_45  and  C_47
REMARK                            x       y       z     vdW  Elec       q    Type
REMARK                         _______ _______ _______ _____ _____    ______ ____
ROOT
ATOM      1  C   LIG A   1      -8.633   2.992 129.045  0.00  0.00    +0.024 C 
ATOM      2  C   LIG A   1      -7.532   3.951 128.474  0.00  0.00    +0.063 C 
ATOM      3  C   LIG A   1      -6.216   3.322 127.881  0.00  0.00    +0.065 C 
ATOM      4  C   LIG A   1      -6.489   1.891 127.229  0.00  0.00    +0.020 C 
ATOM      5  C   LIG A   1      -5.216   1.294 126.592  0.00  0.00    +0.021 C 
ATOM      6  C   LIG A   1      -7.627   2.094 126.156  0.00  0.00    +0.009 C 
ATOM      7  C   LIG A   1      -8.264   3.293 126.039  0.00  0.00    +0.162 C 
ATOM      8  C   LIG A   1      -8.164   4.395 127.123  0.00  0.00    +0.207 C 
ATOM      9  O   LIG A   1      -8.614   5.509 126.871  0.00  0.00    -0.288 OA
ATOM     10  C   LIG A   1      -8.011   0.804 125.346  0.00  0.00    +0.152 C 
ATOM     11  C   LIG A   1      -9.432   0.846 124.722  0.00  0.00    +0.036 C 
ATOM     12  C   LIG A   1      -8.083  -0.397 126.336  0.00  0.00    +0.176 C 
ATOM     13  O   LIG A   1      -8.514  -1.510 126.024  0.00  0.00    -0.291 OA
ATOM     14  C   LIG A   1      -7.653  -0.245 127.761  0.00  0.00    +0.044 C 
ATOM     15  C   LIG A   1      -6.921   0.800 128.176  0.00  0.00    -0.012 C 
ATOM     16  C   LIG A   1      -4.860   3.638 128.567  0.00  0.00    +0.223 C 
ATOM     17  C   LIG A   1      -4.894   4.100 130.046  0.00  0.00    +0.228 C 
ATOM     18  C   LIG A   1      -5.991   5.164 130.379  0.00  0.00    +0.037 C 
ATOM     19  C   LIG A   1      -7.306   4.977 129.601  0.00  0.00    -0.050 C 
ATOM     20  C   LIG A   1      -8.298   5.597 130.279  0.00  0.00    -0.025 C 
ATOM     21  C   LIG A   1      -7.872   6.116 131.623  0.00  0.00    +0.036 C 
ATOM     22  C   LIG A   1      -6.535   5.354 131.861  0.00  0.00    +0.039 C 
ATOM     23  C   LIG A   1      -5.374   6.579 130.036  0.00  0.00    +0.020 C 
ENDROOT
BRANCH  22  24
ATOM     24  C   LIG A   1      -6.718   4.148 132.756  0.00  0.00    -0.005 A 
ATOM     25  C   LIG A   1      -7.557   3.006 132.583  0.00  0.00    +0.045 A 
ATOM     26  C   LIG A   1      -7.402   2.215 133.698  0.00  0.00    +0.195 A 
ATOM     27  O   LIG A   1      -6.559   2.808 134.576  0.00  0.00    -0.471 OA
ATOM     28  C   LIG A   1      -6.183   3.988 134.021  0.00  0.00    +0.198 A 
ENDBRANCH  22  24
BRANCH   7  29
ATOM     29  O   LIG A   1      -9.072   3.598 124.964  0.00  0.00    -0.503 OA
ATOM     30  H   LIG A   1      -9.857   3.015 125.049  0.00  0.00    +0.292 HD
ENDBRANCH   7  29
BRANCH  10  31
ATOM     31  C   LIG A   1      -7.072   0.472 124.162  0.00  0.00    +0.325 C 
ATOM     32  O   LIG A   1      -6.842   1.222 123.217  0.00  0.00    -0.249 OA
BRANCH  31  33
ATOM     33  O   LIG A   1      -6.495  -0.756 124.282  0.00  0.00    -0.467 OA
ATOM     34  C   LIG A   1      -6.485  -1.545 123.086  0.00  0.00    +0.280 C 
ENDBRANCH  31  33
ENDBRANCH  10  31
BRANCH  16  35
ATOM     35  O   LIG A   1      -4.167   4.694 127.800  0.00  0.00    -0.457 OA
BRANCH  35  36
ATOM     36  C   LIG A   1      -2.798   4.736 127.879  0.00  0.00    +0.304 C 
ATOM     37  O   LIG A   1      -2.140   5.611 128.373  0.00  0.00    -0.251 OA
ATOM     38  C   LIG A   1      -2.164   3.525 127.254  0.00  0.00    +0.136 C 
ENDBRANCH  35  36
ENDBRANCH  16  35
BRANCH  17  39
ATOM     39  O   LIG A   1      -4.884   2.938 130.893  0.00  0.00    -0.457 OA
BRANCH  39  40
ATOM     40  C   LIG A   1      -3.736   2.846 131.654  0.00  0.00    +0.310 C 
ATOM     41  O   LIG A   1      -2.976   3.765 131.882  0.00  0.00    -0.251 OA
BRANCH  40  42
ATOM     42  C   LIG A   1      -3.569   1.454 132.220  0.00  0.00    +0.092 C 
ATOM     43  C   LIG A   1      -3.398   1.525 133.723  0.00  0.00    +0.019 C 
ATOM     44  C   LIG A   1      -4.733   0.567 131.777  0.00  0.00    +0.019 C 
ENDBRANCH  40  42
ENDBRANCH  39  40
ENDBRANCH  17  39
TORSDOF 9
ENDMDL
