MODEL 1
REMARK VINA RESULT:      -6.6      0.000      0.000
REMARK  Name = NuBBE_1931
REMARK  5 active torsions:
REMARK  status: ('A' for Active; 'I' for Inactive)
REMARK    1  A    between atoms: C_1  and  C_2
REMARK    2  A    between atoms: C_2  and  C_3
REMARK    3  A    between atoms: C_10  and  C_20
REMARK    4  A    between atoms: C_10  and  O_21
REMARK    5  A    between atoms: C_15  and  C_17
REMARK                            x       y       z     vdW  Elec       q    Type
REMARK                         _______ _______ _______ _____ _____    ______ ____
ROOT
ATOM      1  C   LIG A   1      -7.474  -3.937 124.502  0.00  0.00    +0.011 C 
ATOM      2  C   LIG A   1      -8.749  -3.177 124.798  0.00  0.00    -0.028 C 
ATOM      3  C   LIG A   1      -9.704  -3.285 123.627  0.00  0.00    +0.011 C 
ATOM      4  C   LIG A   1      -8.727  -1.852 125.548  0.00  0.00    +0.002 C 
ATOM      5  C   LIG A   1      -9.387  -3.050 126.205  0.00  0.00    -0.001 C 
ATOM      6  C   LIG A   1      -8.924  -3.951 127.312  0.00  0.00    +0.007 C 
ATOM      7  C   LIG A   1      -8.194  -3.423 128.555  0.00  0.00    +0.035 C 
ATOM      8  C   LIG A   1      -7.361  -2.125 128.521  0.00  0.00    +0.066 C 
ATOM      9  C   LIG A   1      -6.715  -1.917 127.133  0.00  0.00    +0.024 C 
ATOM     10  C   LIG A   1      -7.584  -1.119 126.163  0.00  0.00    +0.002 C 
ATOM     11  C   LIG A   1      -6.649  -0.324 125.230  0.00  0.00    -0.010 C 
ATOM     12  C   LIG A   1      -6.860  -0.422 123.720  0.00  0.00    +0.008 C 
ATOM     13  C   LIG A   1      -5.223  -0.664 125.671  0.00  0.00    +0.004 C 
ATOM     14  C   LIG A   1      -5.324  -1.293 127.058  0.00  0.00    +0.007 C 
ATOM     15  C   LIG A   1      -8.225  -0.959 129.038  0.00  0.00    +0.041 C 
ENDROOT
BRANCH   8  16
ATOM     16  O   LIG A   1      -6.330  -2.254 129.508  0.00  0.00    -0.389 OA
ATOM     17  H   LIG A   1      -5.680  -1.521 129.366  0.00  0.00    +0.210 HD
ENDBRANCH   8  16
TORSDOF 1
ENDMDL
MODEL 2
REMARK VINA RESULT:      -6.4      2.710      4.469
REMARK  Name = NuBBE_1931
REMARK  5 active torsions:
REMARK  status: ('A' for Active; 'I' for Inactive)
REMARK    1  A    between atoms: C_1  and  C_2
REMARK    2  A    between atoms: C_2  and  C_3
REMARK    3  A    between atoms: C_10  and  C_20
REMARK    4  A    between atoms: C_10  and  O_21
REMARK    5  A    between atoms: C_15  and  C_17
REMARK                            x       y       z     vdW  Elec       q    Type
REMARK                         _______ _______ _______ _____ _____    ______ ____
ROOT
ATOM      1  C   LIG A   1      -7.589  -3.137 125.149  0.00  0.00    +0.011 C 
ATOM      2  C   LIG A   1      -6.726  -2.463 124.104  0.00  0.00    -0.028 C 
ATOM      3  C   LIG A   1      -5.483  -3.286 123.843  0.00  0.00    +0.011 C 
ATOM      4  C   LIG A   1      -6.570  -0.948 124.062  0.00  0.00    +0.002 C 
ATOM      5  C   LIG A   1      -7.277  -1.639 122.911  0.00  0.00    -0.001 C 
ATOM      6  C   LIG A   1      -8.731  -1.732 122.557  0.00  0.00    +0.007 C 
ATOM      7  C   LIG A   1      -9.691  -0.541 122.689  0.00  0.00    +0.035 C 
ATOM      8  C   LIG A   1      -9.447   0.594 123.706  0.00  0.00    +0.066 C 
ATOM      9  C   LIG A   1      -8.742   0.060 124.973  0.00  0.00    +0.024 C 
ATOM     10  C   LIG A   1      -7.217   0.105 124.895  0.00  0.00    +0.002 C 
ATOM     11  C   LIG A   1      -6.674   0.336 126.320  0.00  0.00    -0.010 C 
ATOM     12  C   LIG A   1      -5.590  -0.599 126.854  0.00  0.00    +0.008 C 
ATOM     13  C   LIG A   1      -7.902   0.430 127.229  0.00  0.00    +0.004 C 
ATOM     14  C   LIG A   1      -9.109   0.665 126.325  0.00  0.00    +0.007 C 
ATOM     15  C   LIG A   1      -8.743   1.765 122.993  0.00  0.00    +0.041 C 
ENDROOT
BRANCH   8  16
ATOM     16  O   LIG A   1     -10.727   1.128 124.065  0.00  0.00    -0.389 OA
ATOM     17  H   LIG A   1     -10.720   2.096 123.860  0.00  0.00    +0.210 HD
ENDBRANCH   8  16
TORSDOF 1
ENDMDL
MODEL 3
REMARK VINA RESULT:      -6.3      2.738      4.284
REMARK  Name = NuBBE_1931
REMARK  5 active torsions:
REMARK  status: ('A' for Active; 'I' for Inactive)
REMARK    1  A    between atoms: C_1  and  C_2
REMARK    2  A    between atoms: C_2  and  C_3
REMARK    3  A    between atoms: C_10  and  C_20
REMARK    4  A    between atoms: C_10  and  O_21
REMARK    5  A    between atoms: C_15  and  C_17
REMARK                            x       y       z     vdW  Elec       q    Type
REMARK                         _______ _______ _______ _____ _____    ______ ____
ROOT
ATOM      1  C   LIG A   1      -9.191  -1.891 125.481  0.00  0.00    +0.011 C 
ATOM      2  C   LIG A   1      -8.993  -1.900 123.980  0.00  0.00    -0.028 C 
ATOM      3  C   LIG A   1      -9.457  -3.220 123.400  0.00  0.00    +0.011 C 
ATOM      4  C   LIG A   1      -7.771  -1.257 123.337  0.00  0.00    +0.002 C 
ATOM      5  C   LIG A   1      -9.137  -0.653 123.070  0.00  0.00    -0.001 C 
ATOM      6  C   LIG A   1      -9.793   0.584 123.608  0.00  0.00    +0.007 C 
ATOM      7  C   LIG A   1      -9.032   1.902 123.809  0.00  0.00    +0.035 C 
ATOM      8  C   LIG A   1      -7.511   1.933 124.066  0.00  0.00    +0.066 C 
ATOM      9  C   LIG A   1      -7.055   0.682 124.850  0.00  0.00    +0.024 C 
ATOM     10  C   LIG A   1      -6.654  -0.491 123.959  0.00  0.00    +0.002 C 
ATOM     11  C   LIG A   1      -5.549  -1.285 124.684  0.00  0.00    -0.010 C 
ATOM     12  C   LIG A   1      -5.710  -2.796 124.840  0.00  0.00    +0.008 C 
ATOM     13  C   LIG A   1      -5.307  -0.556 126.009  0.00  0.00    +0.004 C 
ATOM     14  C   LIG A   1      -5.935   0.829 125.877  0.00  0.00    +0.007 C 
ATOM     15  C   LIG A   1      -6.781   2.189 122.733  0.00  0.00    +0.041 C 
ENDROOT
BRANCH   8  16
ATOM     16  O   LIG A   1      -7.233   3.106 124.842  0.00  0.00    -0.389 OA
ATOM     17  H   LIG A   1      -6.325   3.009 125.223  0.00  0.00    +0.210 HD
ENDBRANCH   8  16
TORSDOF 1
ENDMDL
MODEL 4
REMARK VINA RESULT:      -6.2      1.800      3.972
REMARK  Name = NuBBE_1931
REMARK  5 active torsions:
REMARK  status: ('A' for Active; 'I' for Inactive)
REMARK    1  A    between atoms: C_1  and  C_2
REMARK    2  A    between atoms: C_2  and  C_3
REMARK    3  A    between atoms: C_10  and  C_20
REMARK    4  A    between atoms: C_10  and  O_21
REMARK    5  A    between atoms: C_15  and  C_17
REMARK                            x       y       z     vdW  Elec       q    Type
REMARK                         _______ _______ _______ _____ _____    ______ ____
ROOT
ATOM      1  C   LIG A   1      -7.156  -0.372 129.176  0.00  0.00    +0.011 C 
ATOM      2  C   LIG A   1      -6.197  -1.482 128.805  0.00  0.00    -0.028 C 
ATOM      3  C   LIG A   1      -4.929  -1.373 129.625  0.00  0.00    +0.011 C 
ATOM      4  C   LIG A   1      -6.047  -1.952 127.364  0.00  0.00    +0.002 C 
ATOM      5  C   LIG A   1      -6.632  -2.910 128.384  0.00  0.00    -0.001 C 
ATOM      6  C   LIG A   1      -8.042  -3.356 128.627  0.00  0.00    +0.007 C 
ATOM      7  C   LIG A   1      -9.018  -3.669 127.484  0.00  0.00    +0.035 C 
ATOM      8  C   LIG A   1      -8.883  -3.012 126.095  0.00  0.00    +0.066 C 
ATOM      9  C   LIG A   1      -8.305  -1.583 126.212  0.00  0.00    +0.024 C 
ATOM     10  C   LIG A   1      -6.781  -1.527 126.137  0.00  0.00    +0.002 C 
ATOM     11  C   LIG A   1      -6.384  -0.189 125.483  0.00  0.00    -0.010 C 
ATOM     12  C   LIG A   1      -5.353   0.694 126.183  0.00  0.00    +0.008 C 
ATOM     13  C   LIG A   1      -7.698   0.534 125.172  0.00  0.00    +0.004 C 
ATOM     14  C   LIG A   1      -8.810  -0.508 125.252  0.00  0.00    +0.007 C 
ATOM     15  C   LIG A   1      -8.120  -3.967 125.158  0.00  0.00    +0.041 C 
ENDROOT
BRANCH   8  16
ATOM     16  O   LIG A   1     -10.197  -2.946 125.525  0.00  0.00    -0.389 OA
ATOM     17  H   LIG A   1     -10.373  -2.004 125.276  0.00  0.00    +0.210 HD
ENDBRANCH   8  16
TORSDOF 1
ENDMDL
MODEL 5
REMARK VINA RESULT:      -6.2      7.734      9.975
REMARK  Name = NuBBE_1931
REMARK  5 active torsions:
REMARK  status: ('A' for Active; 'I' for Inactive)
REMARK    1  A    between atoms: C_1  and  C_2
REMARK    2  A    between atoms: C_2  and  C_3
REMARK    3  A    between atoms: C_10  and  C_20
REMARK    4  A    between atoms: C_10  and  O_21
REMARK    5  A    between atoms: C_15  and  C_17
REMARK                            x       y       z     vdW  Elec       q    Type
REMARK                         _______ _______ _______ _____ _____    ______ ____
ROOT
ATOM      1  C   LIG A   1      -6.719   4.739 130.545  0.00  0.00    +0.011 C 
ATOM      2  C   LIG A   1      -7.063   5.693 131.667  0.00  0.00    -0.028 C 
ATOM      3  C   LIG A   1      -5.825   6.012 132.479  0.00  0.00    +0.011 C 
ATOM      4  C   LIG A   1      -8.376   5.581 132.431  0.00  0.00    +0.002 C 
ATOM      5  C   LIG A   1      -8.137   6.808 131.572  0.00  0.00    -0.001 C 
ATOM      6  C   LIG A   1      -8.681   7.198 130.230  0.00  0.00    +0.007 C 
ATOM      7  C   LIG A   1     -10.146   6.965 129.834  0.00  0.00    +0.035 C 
ATOM      8  C   LIG A   1     -10.990   5.835 130.460  0.00  0.00    +0.066 C 
ATOM      9  C   LIG A   1     -10.109   4.614 130.810  0.00  0.00    +0.024 C 
ATOM     10  C   LIG A   1      -9.528   4.658 132.222  0.00  0.00    +0.002 C 
ATOM     11  C   LIG A   1      -9.395   3.207 132.727  0.00  0.00    -0.010 C 
ATOM     12  C   LIG A   1      -8.055   2.749 133.302  0.00  0.00    +0.008 C 
ATOM     13  C   LIG A   1      -9.910   2.316 131.593  0.00  0.00    +0.004 C 
ATOM     14  C   LIG A   1     -10.697   3.215 130.642  0.00  0.00    +0.007 C 
ATOM     15  C   LIG A   1     -11.822   6.413 131.621  0.00  0.00    +0.041 C 
ENDROOT
BRANCH   8  16
ATOM     16  O   LIG A   1     -11.972   5.448 129.490  0.00  0.00    -0.389 OA
ATOM     17  H   LIG A   1     -12.728   6.084 129.554  0.00  0.00    +0.210 HD
ENDBRANCH   8  16
TORSDOF 1
ENDMDL
MODEL 6
REMARK VINA RESULT:      -6.1      2.631      4.907
REMARK  Name = NuBBE_1931
REMARK  5 active torsions:
REMARK  status: ('A' for Active; 'I' for Inactive)
REMARK    1  A    between atoms: C_1  and  C_2
REMARK    2  A    between atoms: C_2  and  C_3
REMARK    3  A    between atoms: C_10  and  C_20
REMARK    4  A    between atoms: C_10  and  O_21
REMARK    5  A    between atoms: C_15  and  C_17
REMARK                            x       y       z     vdW  Elec       q    Type
REMARK                         _______ _______ _______ _____ _____    ______ ____
ROOT
ATOM      1  C   LIG A   1      -5.469  -1.912 124.715  0.00  0.00    +0.011 C 
ATOM      2  C   LIG A   1      -6.109  -1.445 126.005  0.00  0.00    -0.028 C 
ATOM      3  C   LIG A   1      -5.390  -2.050 127.193  0.00  0.00    +0.011 C 
ATOM      4  C   LIG A   1      -7.618  -1.276 126.126  0.00  0.00    +0.002 C 
ATOM      5  C   LIG A   1      -6.738  -0.043 126.213  0.00  0.00    -0.001 C 
ATOM      6  C   LIG A   1      -6.461   1.047 125.221  0.00  0.00    +0.007 C 
ATOM      7  C   LIG A   1      -7.557   1.651 124.332  0.00  0.00    +0.035 C 
ATOM      8  C   LIG A   1      -8.815   0.852 123.931  0.00  0.00    +0.066 C 
ATOM      9  C   LIG A   1      -8.495  -0.655 123.801  0.00  0.00    +0.024 C 
ATOM     10  C   LIG A   1      -8.684  -1.439 125.097  0.00  0.00    +0.002 C 
ATOM     11  C   LIG A   1      -9.122  -2.871 124.729  0.00  0.00    -0.010 C 
ATOM     12  C   LIG A   1      -8.365  -4.050 125.336  0.00  0.00    +0.008 C 
ATOM     13  C   LIG A   1      -9.190  -2.911 123.200  0.00  0.00    +0.004 C 
ATOM     14  C   LIG A   1      -9.204  -1.462 122.717  0.00  0.00    +0.007 C 
ATOM     15  C   LIG A   1      -9.966   1.210 124.890  0.00  0.00    +0.041 C 
ENDROOT
BRANCH   8  16
ATOM     16  O   LIG A   1      -9.253   1.354 122.663  0.00  0.00    -0.389 OA
ATOM     17  H   LIG A   1      -8.572   1.995 122.338  0.00  0.00    +0.210 HD
ENDBRANCH   8  16
TORSDOF 1
ENDMDL
MODEL 7
REMARK VINA RESULT:      -6.0      2.351      3.429
REMARK  Name = NuBBE_1931
REMARK  5 active torsions:
REMARK  status: ('A' for Active; 'I' for Inactive)
REMARK    1  A    between atoms: C_1  and  C_2
REMARK    2  A    between atoms: C_2  and  C_3
REMARK    3  A    between atoms: C_10  and  C_20
REMARK    4  A    between atoms: C_10  and  O_21
REMARK    5  A    between atoms: C_15  and  C_17
REMARK                            x       y       z     vdW  Elec       q    Type
REMARK                         _______ _______ _______ _____ _____    ______ ____
ROOT
ATOM      1  C   LIG A   1      -7.557  -1.931 122.559  0.00  0.00    +0.011 C 
ATOM      2  C   LIG A   1      -8.395  -2.194 123.791  0.00  0.00    -0.028 C 
ATOM      3  C   LIG A   1      -9.437  -3.254 123.498  0.00  0.00    +0.011 C 
ATOM      4  C   LIG A   1      -8.808  -1.064 124.725  0.00  0.00    +0.002 C 
ATOM      5  C   LIG A   1      -7.860  -2.129 125.245  0.00  0.00    -0.001 C 
ATOM      6  C   LIG A   1      -6.381  -2.103 125.488  0.00  0.00    +0.007 C 
ATOM      7  C   LIG A   1      -5.666  -0.889 126.101  0.00  0.00    +0.035 C 
ATOM      8  C   LIG A   1      -6.223   0.542 125.958  0.00  0.00    +0.066 C 
ATOM      9  C   LIG A   1      -6.968   0.715 124.614  0.00  0.00    +0.024 C 
ATOM     10  C   LIG A   1      -8.457   0.385 124.689  0.00  0.00    +0.002 C 
ATOM     11  C   LIG A   1      -9.195   1.283 123.677  0.00  0.00    -0.010 C 
ATOM     12  C   LIG A   1     -10.155   0.634 122.681  0.00  0.00    +0.008 C 
ATOM     13  C   LIG A   1      -8.118   2.146 123.014  0.00  0.00    +0.004 C 
ATOM     14  C   LIG A   1      -6.873   2.057 123.893  0.00  0.00    +0.007 C 
ATOM     15  C   LIG A   1      -7.031   0.896 127.221  0.00  0.00    +0.041 C 
ENDROOT
BRANCH   8  16
ATOM     16  O   LIG A   1      -5.107   1.440 125.999  0.00  0.00    -0.389 OA
ATOM     17  H   LIG A   1      -4.573   1.223 126.804  0.00  0.00    +0.210 HD
ENDBRANCH   8  16
TORSDOF 1
ENDMDL
MODEL 8
REMARK VINA RESULT:      -5.9      1.980      4.942
REMARK  Name = NuBBE_1931
REMARK  5 active torsions:
REMARK  status: ('A' for Active; 'I' for Inactive)
REMARK    1  A    between atoms: C_1  and  C_2
REMARK    2  A    between atoms: C_2  and  C_3
REMARK    3  A    between atoms: C_10  and  C_20
REMARK    4  A    between atoms: C_10  and  O_21
REMARK    5  A    between atoms: C_15  and  C_17
REMARK                            x       y       z     vdW  Elec       q    Type
REMARK                         _______ _______ _______ _____ _____    ______ ____
ROOT
ATOM      1  C   LIG A   1      -4.735  -2.877 128.225  0.00  0.00    +0.011 C 
ATOM      2  C   LIG A   1      -5.124  -1.481 128.662  0.00  0.00    -0.028 C 
ATOM      3  C   LIG A   1      -4.287  -1.054 129.850  0.00  0.00    +0.011 C 
ATOM      4  C   LIG A   1      -6.575  -1.018 128.640  0.00  0.00    +0.002 C 
ATOM      5  C   LIG A   1      -5.586  -0.358 127.698  0.00  0.00    -0.001 C 
ATOM      6  C   LIG A   1      -5.370  -0.515 126.222  0.00  0.00    +0.007 C 
ATOM      7  C   LIG A   1      -6.532  -0.644 125.227  0.00  0.00    +0.035 C 
ATOM      8  C   LIG A   1      -7.902  -1.217 125.644  0.00  0.00    +0.066 C 
ATOM      9  C   LIG A   1      -7.742  -2.288 126.746  0.00  0.00    +0.024 C 
ATOM     10  C   LIG A   1      -7.798  -1.726 128.165  0.00  0.00    +0.002 C 
ATOM     11  C   LIG A   1      -8.413  -2.802 129.081  0.00  0.00    -0.010 C 
ATOM     12  C   LIG A   1      -7.679  -3.180 130.367  0.00  0.00    +0.008 C 
ATOM     13  C   LIG A   1      -8.721  -3.999 128.178  0.00  0.00    +0.004 C 
ATOM     14  C   LIG A   1      -8.680  -3.493 126.738  0.00  0.00    +0.007 C 
ATOM     15  C   LIG A   1      -8.855  -0.053 125.976  0.00  0.00    +0.041 C 
ENDROOT
BRANCH   8  16
ATOM     16  O   LIG A   1      -8.485  -1.818 124.481  0.00  0.00    -0.389 OA
ATOM     17  H   LIG A   1      -9.314  -2.280 124.761  0.00  0.00    +0.210 HD
ENDBRANCH   8  16
TORSDOF 1
ENDMDL
MODEL 9
REMARK VINA RESULT:      -5.9      2.661      4.644
REMARK  Name = NuBBE_1931
REMARK  5 active torsions:
REMARK  status: ('A' for Active; 'I' for Inactive)
REMARK    1  A    between atoms: C_1  and  C_2
REMARK    2  A    between atoms: C_2  and  C_3
REMARK    3  A    between atoms: C_10  and  C_20
REMARK    4  A    between atoms: C_10  and  O_21
REMARK    5  A    between atoms: C_15  and  C_17
REMARK                            x       y       z     vdW  Elec       q    Type
REMARK                         _______ _______ _______ _____ _____    ______ ____
ROOT
ATOM      1  C   LIG A   1      -6.987   1.436 125.837  0.00  0.00    +0.011 C 
ATOM      2  C   LIG A   1      -8.221   0.783 126.419  0.00  0.00    -0.028 C 
ATOM      3  C   LIG A   1      -8.595   1.447 127.728  0.00  0.00    +0.011 C 
ATOM      4  C   LIG A   1      -8.443  -0.721 126.323  0.00  0.00    +0.002 C 
ATOM      5  C   LIG A   1      -9.386   0.203 125.576  0.00  0.00    -0.001 C 
ATOM      6  C   LIG A   1      -9.488   0.547 124.120  0.00  0.00    +0.007 C 
ATOM      7  C   LIG A   1      -9.324  -0.502 123.011  0.00  0.00    +0.035 C 
ATOM      8  C   LIG A   1      -8.482  -1.779 123.215  0.00  0.00    +0.066 C 
ATOM      9  C   LIG A   1      -7.298  -1.515 124.172  0.00  0.00    +0.024 C 
ATOM     10  C   LIG A   1      -7.627  -1.767 125.642  0.00  0.00    +0.002 C 
ATOM     11  C   LIG A   1      -6.341  -2.251 126.342  0.00  0.00    -0.010 C 
ATOM     12  C   LIG A   1      -5.898  -1.555 127.628  0.00  0.00    +0.008 C 
ATOM     13  C   LIG A   1      -5.258  -2.282 125.260  0.00  0.00    +0.004 C 
ATOM     14  C   LIG A   1      -5.973  -2.227 123.912  0.00  0.00    +0.007 C 
ATOM     15  C   LIG A   1      -9.416  -2.939 123.610  0.00  0.00    +0.041 C 
ENDROOT
BRANCH   8  16
ATOM     16  O   LIG A   1      -7.976  -2.165 121.931  0.00  0.00    -0.389 OA
ATOM     17  H   LIG A   1      -8.748  -2.274 121.321  0.00  0.00    +0.210 HD
ENDBRANCH   8  16
TORSDOF 1
ENDMDL
