MODEL 1
REMARK VINA RESULT:      -7.7      0.000      0.000
REMARK  Name = NuBBE_1654
REMARK  6 active torsions:
REMARK  status: ('A' for Active; 'I' for Inactive)
REMARK    1  A    between atoms: O_1  and  C_2
REMARK    2  A    between atoms: O_1  and  C_7
REMARK    3  A    between atoms: C_2  and  C_4
REMARK    4  A    between atoms: C_4  and  C_6
REMARK    5  A    between atoms: C_11  and  C_20
REMARK    6  A    between atoms: C_17  and  C_19
REMARK                            x       y       z     vdW  Elec       q    Type
REMARK                         _______ _______ _______ _____ _____    ______ ____
ROOT
ATOM      1  C   LIG A   1      -7.774   1.186 123.449  0.00  0.00    +0.211 C 
ATOM      2  C   LIG A   1      -8.153   1.528 124.931  0.00  0.00    +0.111 C 
ATOM      3  C   LIG A   1      -8.252   0.428 126.032  0.00  0.00    +0.192 C 
ATOM      4  C   LIG A   1      -6.957  -0.225 126.648  0.00  0.00    +0.101 C 
ATOM      5  C   LIG A   1      -6.619  -1.724 126.405  0.00  0.00    +0.172 C 
ATOM      6  O   LIG A   1      -6.219  -1.902 125.038  0.00  0.00    -0.478 OA
ATOM      7  C   LIG A   1      -7.407  -2.255 124.396  0.00  0.00    +0.128 C 
ATOM      8  C   LIG A   1      -8.265  -2.990 125.109  0.00  0.00    +0.096 C 
ATOM      9  C   LIG A   1      -7.775  -2.695 126.464  0.00  0.00    +0.203 C 
ATOM     10  O   LIG A   1      -8.334  -3.103 127.469  0.00  0.00    -0.288 OA
ATOM     11  C   LIG A   1      -7.818  -1.309 123.357  0.00  0.00    -0.009 C 
ATOM     12  C   LIG A   1      -7.111  -0.152 123.337  0.00  0.00    +0.024 C 
ATOM     13  C   LIG A   1      -9.220  -1.436 122.812  0.00  0.00    +0.047 C 
ATOM     14  C   LIG A   1      -5.466  -2.185 127.290  0.00  0.00    +0.064 C 
ATOM     15  O   LIG A   1      -8.790   1.230 127.132  0.00  0.00    -0.457 OA
ATOM     16  C   LIG A   1      -8.238   2.480 127.090  0.00  0.00    +0.335 C 
ATOM     17  O   LIG A   1      -8.315   3.328 127.961  0.00  0.00    -0.245 OA
ATOM     18  C   LIG A   1      -7.536   2.596 125.780  0.00  0.00    +0.040 C 
ATOM     19  C   LIG A   1      -6.533   3.466 125.624  0.00  0.00    +0.020 C 
ENDROOT
BRANCH   1  20
ATOM     20  O   LIG A   1      -6.890   2.139 122.849  0.00  0.00    -0.453 OA
BRANCH  20  21
ATOM     21  C   LIG A   1      -7.469   3.101 122.086  0.00  0.00    +0.335 C 
ATOM     22  O   LIG A   1      -8.661   3.364 122.053  0.00  0.00    -0.245 OA
BRANCH  21  23
ATOM     23  C   LIG A   1      -6.425   3.858 121.337  0.00  0.00    +0.026 C 
ATOM     24  C   LIG A   1      -5.274   4.223 121.928  0.00  0.00    +0.019 C 
ATOM     25  C   LIG A   1      -6.732   4.174 119.906  0.00  0.00    +0.051 C 
ENDBRANCH  21  23
ENDBRANCH  20  21
ENDBRANCH   1  20
TORSDOF 3
ENDMDL
MODEL 2
REMARK VINA RESULT:      -7.6      2.145      6.486
REMARK  Name = NuBBE_1654
REMARK  6 active torsions:
REMARK  status: ('A' for Active; 'I' for Inactive)
REMARK    1  A    between atoms: O_1  and  C_2
REMARK    2  A    between atoms: O_1  and  C_7
REMARK    3  A    between atoms: C_2  and  C_4
REMARK    4  A    between atoms: C_4  and  C_6
REMARK    5  A    between atoms: C_11  and  C_20
REMARK    6  A    between atoms: C_17  and  C_19
REMARK                            x       y       z     vdW  Elec       q    Type
REMARK                         _______ _______ _______ _____ _____    ______ ____
ROOT
ATOM      1  C   LIG A   1      -7.994  -0.351 126.626  0.00  0.00    +0.211 C 
ATOM      2  C   LIG A   1      -8.921   0.197 125.487  0.00  0.00    +0.111 C 
ATOM      3  C   LIG A   1      -9.066   1.724 125.203  0.00  0.00    +0.192 C 
ATOM      4  C   LIG A   1      -7.918   2.530 124.484  0.00  0.00    +0.101 C 
ATOM      5  C   LIG A   1      -7.114   3.628 125.235  0.00  0.00    +0.172 C 
ATOM      6  O   LIG A   1      -6.252   3.005 126.199  0.00  0.00    -0.478 OA
ATOM      7  C   LIG A   1      -7.011   3.019 127.370  0.00  0.00    +0.128 C 
ATOM      8  C   LIG A   1      -7.815   4.073 127.538  0.00  0.00    +0.096 C 
ATOM      9  C   LIG A   1      -7.903   4.540 126.146  0.00  0.00    +0.203 C 
ATOM     10  O   LIG A   1      -8.625   5.463 125.806  0.00  0.00    -0.288 OA
ATOM     11  C   LIG A   1      -7.304   1.685 127.897  0.00  0.00    -0.009 C 
ATOM     12  C   LIG A   1      -6.984   0.666 127.061  0.00  0.00    +0.024 C 
ATOM     13  C   LIG A   1      -8.352   1.575 128.978  0.00  0.00    +0.047 C 
ATOM     14  C   LIG A   1      -6.237   4.429 124.278  0.00  0.00    +0.064 C 
ATOM     15  O   LIG A   1     -10.139   1.688 124.208  0.00  0.00    -0.457 OA
ATOM     16  C   LIG A   1      -9.977   0.589 123.412  0.00  0.00    +0.335 C 
ATOM     17  O   LIG A   1     -10.572   0.362 122.373  0.00  0.00    -0.245 OA
ATOM     18  C   LIG A   1      -8.945  -0.267 124.063  0.00  0.00    +0.040 C 
ATOM     19  C   LIG A   1      -8.233  -1.137 123.340  0.00  0.00    +0.020 C 
ENDROOT
BRANCH   1  20
ATOM     20  O   LIG A   1      -7.267  -1.526 126.257  0.00  0.00    -0.453 OA
BRANCH  20  21
ATOM     21  C   LIG A   1      -6.824  -2.307 127.276  0.00  0.00    +0.335 C 
ATOM     22  O   LIG A   1      -5.662  -2.431 127.626  0.00  0.00    -0.245 OA
BRANCH  21  23
ATOM     23  C   LIG A   1      -7.980  -2.943 127.973  0.00  0.00    +0.026 C 
ATOM     24  C   LIG A   1      -8.126  -2.847 129.305  0.00  0.00    +0.019 C 
ATOM     25  C   LIG A   1      -8.955  -3.677 127.105  0.00  0.00    +0.051 C 
ENDBRANCH  21  23
ENDBRANCH  20  21
ENDBRANCH   1  20
TORSDOF 3
ENDMDL
MODEL 3
REMARK VINA RESULT:      -7.4      3.122      6.205
REMARK  Name = NuBBE_1654
REMARK  6 active torsions:
REMARK  status: ('A' for Active; 'I' for Inactive)
REMARK    1  A    between atoms: O_1  and  C_2
REMARK    2  A    between atoms: O_1  and  C_7
REMARK    3  A    between atoms: C_2  and  C_4
REMARK    4  A    between atoms: C_4  and  C_6
REMARK    5  A    between atoms: C_11  and  C_20
REMARK    6  A    between atoms: C_17  and  C_19
REMARK                            x       y       z     vdW  Elec       q    Type
REMARK                         _______ _______ _______ _____ _____    ______ ____
ROOT
ATOM      1  C   LIG A   1      -7.739  -0.791 126.708  0.00  0.00    +0.211 C 
ATOM      2  C   LIG A   1      -7.120  -1.619 127.886  0.00  0.00    +0.111 C 
ATOM      3  C   LIG A   1      -6.760  -0.965 129.254  0.00  0.00    +0.192 C 
ATOM      4  C   LIG A   1      -7.882  -0.572 130.289  0.00  0.00    +0.101 C 
ATOM      5  C   LIG A   1      -8.169   0.917 130.637  0.00  0.00    +0.172 C 
ATOM      6  O   LIG A   1      -8.797   1.551 129.514  0.00  0.00    -0.478 OA
ATOM      7  C   LIG A   1      -7.726   2.112 128.817  0.00  0.00    +0.128 C 
ATOM      8  C   LIG A   1      -6.711   2.562 129.560  0.00  0.00    +0.096 C 
ATOM      9  C   LIG A   1      -6.966   1.816 130.802  0.00  0.00    +0.203 C 
ATOM     10  O   LIG A   1      -6.211   1.856 131.760  0.00  0.00    -0.288 OA
ATOM     11  C   LIG A   1      -7.565   1.583 127.461  0.00  0.00    -0.009 C 
ATOM     12  C   LIG A   1      -8.332   0.500 127.184  0.00  0.00    +0.024 C 
ATOM     13  C   LIG A   1      -6.279   1.899 126.736  0.00  0.00    +0.047 C 
ATOM     14  C   LIG A   1      -9.114   1.038 131.827  0.00  0.00    +0.064 C 
ATOM     15  O   LIG A   1      -6.081  -2.093 129.894  0.00  0.00    -0.457 OA
ATOM     16  C   LIG A   1      -6.705  -3.256 129.537  0.00  0.00    +0.335 C 
ATOM     17  O   LIG A   1      -6.523  -4.352 130.036  0.00  0.00    -0.245 OA
ATOM     18  C   LIG A   1      -7.637  -2.919 128.423  0.00  0.00    +0.040 C 
ATOM     19  C   LIG A   1      -8.702  -3.688 128.174  0.00  0.00    +0.020 C 
ENDROOT
BRANCH   1  20
ATOM     20  O   LIG A   1      -8.771  -1.485 126.000  0.00  0.00    -0.453 OA
BRANCH  20  21
ATOM     21  C   LIG A   1      -8.654  -1.523 124.647  0.00  0.00    +0.335 C 
ATOM     22  O   LIG A   1      -8.495  -0.557 123.918  0.00  0.00    -0.245 OA
BRANCH  21  23
ATOM     23  C   LIG A   1      -8.666  -2.937 124.172  0.00  0.00    +0.026 C 
ATOM     24  C   LIG A   1      -9.674  -3.406 123.415  0.00  0.00    +0.019 C 
ATOM     25  C   LIG A   1      -7.500  -3.784 124.578  0.00  0.00    +0.051 C 
ENDBRANCH  21  23
ENDBRANCH  20  21
ENDBRANCH   1  20
TORSDOF 3
ENDMDL
MODEL 4
REMARK VINA RESULT:      -7.3      2.417      5.005
REMARK  Name = NuBBE_1654
REMARK  6 active torsions:
REMARK  status: ('A' for Active; 'I' for Inactive)
REMARK    1  A    between atoms: O_1  and  C_2
REMARK    2  A    between atoms: O_1  and  C_7
REMARK    3  A    between atoms: C_2  and  C_4
REMARK    4  A    between atoms: C_4  and  C_6
REMARK    5  A    between atoms: C_11  and  C_20
REMARK    6  A    between atoms: C_17  and  C_19
REMARK                            x       y       z     vdW  Elec       q    Type
REMARK                         _______ _______ _______ _____ _____    ______ ____
ROOT
ATOM      1  C   LIG A   1      -7.477  -1.809 126.188  0.00  0.00    +0.211 C 
ATOM      2  C   LIG A   1      -8.113  -0.378 126.252  0.00  0.00    +0.111 C 
ATOM      3  C   LIG A   1      -8.255   0.403 127.594  0.00  0.00    +0.192 C 
ATOM      4  C   LIG A   1      -7.004   1.066 128.287  0.00  0.00    +0.101 C 
ATOM      5  C   LIG A   1      -6.469   0.544 129.650  0.00  0.00    +0.172 C 
ATOM      6  O   LIG A   1      -5.849  -0.735 129.455  0.00  0.00    -0.478 OA
ATOM      7  C   LIG A   1      -6.877  -1.639 129.722  0.00  0.00    +0.128 C 
ATOM      8  C   LIG A   1      -7.747  -1.278 130.669  0.00  0.00    +0.096 C 
ATOM      9  C   LIG A   1      -7.505   0.172 130.686  0.00  0.00    +0.203 C 
ATOM     10  O   LIG A   1      -8.162   0.941 131.368  0.00  0.00    -0.288 OA
ATOM     11  C   LIG A   1      -7.228  -2.485 128.579  0.00  0.00    -0.009 C 
ATOM     12  C   LIG A   1      -6.659  -2.112 127.406  0.00  0.00    +0.024 C 
ATOM     13  C   LIG A   1      -8.508  -3.281 128.666  0.00  0.00    +0.047 C 
ATOM     14  C   LIG A   1      -5.420   1.485 130.233  0.00  0.00    +0.064 C 
ATOM     15  O   LIG A   1      -9.040   1.548 127.131  0.00  0.00    -0.457 OA
ATOM     16  C   LIG A   1      -8.631   1.895 125.874  0.00  0.00    +0.335 C 
ATOM     17  O   LIG A   1      -8.933   2.912 125.275  0.00  0.00    -0.245 OA
ATOM     18  C   LIG A   1      -7.755   0.791 125.386  0.00  0.00    +0.040 C 
ATOM     19  C   LIG A   1      -6.843   1.019 124.437  0.00  0.00    +0.020 C 
ENDROOT
BRANCH   1  20
ATOM     20  O   LIG A   1      -6.624  -2.006 125.056  0.00  0.00    -0.453 OA
BRANCH  20  21
ATOM     21  C   LIG A   1      -6.924  -3.059 124.251  0.00  0.00    +0.335 C 
ATOM     22  O   LIG A   1      -6.256  -4.073 124.126  0.00  0.00    -0.245 OA
BRANCH  21  23
ATOM     23  C   LIG A   1      -8.242  -2.838 123.589  0.00  0.00    +0.026 C 
ATOM     24  C   LIG A   1      -9.335  -3.519 123.973  0.00  0.00    +0.019 C 
ATOM     25  C   LIG A   1      -8.270  -1.819 122.492  0.00  0.00    +0.051 C 
ENDBRANCH  21  23
ENDBRANCH  20  21
ENDBRANCH   1  20
TORSDOF 3
ENDMDL
MODEL 5
REMARK VINA RESULT:      -7.3      2.060      6.646
REMARK  Name = NuBBE_1654
REMARK  6 active torsions:
REMARK  status: ('A' for Active; 'I' for Inactive)
REMARK    1  A    between atoms: O_1  and  C_2
REMARK    2  A    between atoms: O_1  and  C_7
REMARK    3  A    between atoms: C_2  and  C_4
REMARK    4  A    between atoms: C_4  and  C_6
REMARK    5  A    between atoms: C_11  and  C_20
REMARK    6  A    between atoms: C_17  and  C_19
REMARK                            x       y       z     vdW  Elec       q    Type
REMARK                         _______ _______ _______ _____ _____    ______ ____
ROOT
ATOM      1  C   LIG A   1      -7.492  -1.133 126.843  0.00  0.00    +0.211 C 
ATOM      2  C   LIG A   1      -8.351  -1.470 125.576  0.00  0.00    +0.111 C 
ATOM      3  C   LIG A   1      -8.743  -0.381 124.532  0.00  0.00    +0.192 C 
ATOM      4  C   LIG A   1      -7.686   0.183 123.509  0.00  0.00    +0.101 C 
ATOM      5  C   LIG A   1      -7.207   1.662 123.580  0.00  0.00    +0.172 C 
ATOM      6  O   LIG A   1      -6.375   1.832 124.737  0.00  0.00    -0.478 OA
ATOM      7  C   LIG A   1      -7.268   2.266 125.717  0.00  0.00    +0.128 C 
ATOM      8  C   LIG A   1      -8.271   3.043 125.298  0.00  0.00    +0.096 C 
ATOM      9  C   LIG A   1      -8.265   2.701 123.868  0.00  0.00    +0.203 C 
ATOM     10  O   LIG A   1      -9.098   3.129 123.086  0.00  0.00    -0.288 OA
ATOM     11  C   LIG A   1      -7.369   1.361 126.864  0.00  0.00    -0.009 C 
ATOM     12  C   LIG A   1      -6.757   0.163 126.691  0.00  0.00    +0.024 C 
ATOM     13  C   LIG A   1      -8.508   1.581 127.829  0.00  0.00    +0.047 C 
ATOM     14  C   LIG A   1      -6.381   2.039 122.355  0.00  0.00    +0.064 C 
ATOM     15  O   LIG A   1      -9.653  -1.163 123.692  0.00  0.00    -0.457 OA
ATOM     16  C   LIG A   1      -9.185  -2.443 123.593  0.00  0.00    +0.335 C 
ATOM     17  O   LIG A   1      -9.587  -3.297 122.822  0.00  0.00    -0.245 OA
ATOM     18  C   LIG A   1      -8.103  -2.586 124.608  0.00  0.00    +0.040 C 
ATOM     19  C   LIG A   1      -7.151  -3.513 124.459  0.00  0.00    +0.020 C 
ENDROOT
BRANCH   1  20
ATOM     20  O   LIG A   1      -6.514  -2.130 127.155  0.00  0.00    -0.453 OA
BRANCH  20  21
ATOM     21  C   LIG A   1      -6.310  -2.384 128.473  0.00  0.00    +0.335 C 
ATOM     22  O   LIG A   1      -5.233  -2.354 129.047  0.00  0.00    -0.245 OA
BRANCH  21  23
ATOM     23  C   LIG A   1      -7.614  -2.632 129.155  0.00  0.00    +0.026 C 
ATOM     24  C   LIG A   1      -7.997  -1.894 130.211  0.00  0.00    +0.019 C 
ATOM     25  C   LIG A   1      -8.458  -3.734 128.591  0.00  0.00    +0.051 C 
ENDBRANCH  21  23
ENDBRANCH  20  21
ENDBRANCH   1  20
TORSDOF 3
ENDMDL
MODEL 6
REMARK VINA RESULT:      -7.2      5.259      9.102
REMARK  Name = NuBBE_1654
REMARK  6 active torsions:
REMARK  status: ('A' for Active; 'I' for Inactive)
REMARK    1  A    between atoms: O_1  and  C_2
REMARK    2  A    between atoms: O_1  and  C_7
REMARK    3  A    between atoms: C_2  and  C_4
REMARK    4  A    between atoms: C_4  and  C_6
REMARK    5  A    between atoms: C_11  and  C_20
REMARK    6  A    between atoms: C_17  and  C_19
REMARK                            x       y       z     vdW  Elec       q    Type
REMARK                         _______ _______ _______ _____ _____    ______ ____
ROOT
ATOM      1  C   LIG A   1      -6.534   5.309 130.924  0.00  0.00    +0.211 C 
ATOM      2  C   LIG A   1      -7.098   4.322 129.845  0.00  0.00    +0.111 C 
ATOM      3  C   LIG A   1      -8.577   4.392 129.355  0.00  0.00    +0.192 C 
ATOM      4  C   LIG A   1      -9.058   5.532 128.381  0.00  0.00    +0.101 C 
ATOM      5  C   LIG A   1     -10.073   6.614 128.848  0.00  0.00    +0.172 C 
ATOM      6  O   LIG A   1      -9.427   7.498 129.775  0.00  0.00    -0.478 OA
ATOM      7  C   LIG A   1      -9.728   6.941 131.018  0.00  0.00    +0.128 C 
ATOM      8  C   LIG A   1     -10.926   6.360 131.128  0.00  0.00    +0.096 C 
ATOM      9  C   LIG A   1     -11.223   6.138 129.705  0.00  0.00    +0.203 C 
ATOM     10  O   LIG A   1     -12.214   5.535 129.326  0.00  0.00    -0.288 OA
ATOM     11  C   LIG A   1      -8.548   6.515 131.774  0.00  0.00    -0.009 C 
ATOM     12  C   LIG A   1      -7.391   6.529 131.067  0.00  0.00    +0.024 C 
ATOM     13  C   LIG A   1      -8.772   5.643 132.985  0.00  0.00    +0.047 C 
ATOM     14  C   LIG A   1     -10.571   7.454 127.676  0.00  0.00    +0.064 C 
ATOM     15  O   LIG A   1      -8.617   3.187 128.524  0.00  0.00    -0.457 OA
ATOM     16  C   LIG A   1      -7.417   3.039 127.888  0.00  0.00    +0.335 C 
ATOM     17  O   LIG A   1      -7.175   2.262 126.982  0.00  0.00    -0.245 OA
ATOM     18  C   LIG A   1      -6.472   4.003 128.522  0.00  0.00    +0.040 C 
ATOM     19  C   LIG A   1      -5.400   4.441 127.854  0.00  0.00    +0.020 C 
ENDROOT
BRANCH   1  20
ATOM     20  O   LIG A   1      -5.207   5.765 130.646  0.00  0.00    -0.453 OA
BRANCH  20  21
ATOM     21  C   LIG A   1      -4.520   6.296 131.690  0.00  0.00    +0.335 C 
ATOM     22  O   LIG A   1      -4.447   5.819 132.811  0.00  0.00    -0.245 OA
BRANCH  21  23
ATOM     23  C   LIG A   1      -3.790   7.522 131.253  0.00  0.00    +0.026 C 
ATOM     24  C   LIG A   1      -2.843   8.079 132.027  0.00  0.00    +0.019 C 
ATOM     25  C   LIG A   1      -4.170   8.079 129.916  0.00  0.00    +0.051 C 
ENDBRANCH  21  23
ENDBRANCH  20  21
ENDBRANCH   1  20
TORSDOF 3
ENDMDL
MODEL 7
REMARK VINA RESULT:      -7.1      2.116      5.691
REMARK  Name = NuBBE_1654
REMARK  6 active torsions:
REMARK  status: ('A' for Active; 'I' for Inactive)
REMARK    1  A    between atoms: O_1  and  C_2
REMARK    2  A    between atoms: O_1  and  C_7
REMARK    3  A    between atoms: C_2  and  C_4
REMARK    4  A    between atoms: C_4  and  C_6
REMARK    5  A    between atoms: C_11  and  C_20
REMARK    6  A    between atoms: C_17  and  C_19
REMARK                            x       y       z     vdW  Elec       q    Type
REMARK                         _______ _______ _______ _____ _____    ______ ____
ROOT
ATOM      1  C   LIG A   1      -7.902  -0.097 126.464  0.00  0.00    +0.211 C 
ATOM      2  C   LIG A   1      -8.159   1.197 125.619  0.00  0.00    +0.111 C 
ATOM      3  C   LIG A   1      -7.546   2.576 126.013  0.00  0.00    +0.192 C 
ATOM      4  C   LIG A   1      -6.017   2.882 125.782  0.00  0.00    +0.101 C 
ATOM      5  C   LIG A   1      -5.048   3.086 126.982  0.00  0.00    +0.172 C 
ATOM      6  O   LIG A   1      -4.833   1.826 127.633  0.00  0.00    -0.478 OA
ATOM      7  C   LIG A   1      -5.792   1.817 128.647  0.00  0.00    +0.128 C 
ATOM      8  C   LIG A   1      -6.071   2.999 129.204  0.00  0.00    +0.096 C 
ATOM      9  C   LIG A   1      -5.574   3.892 128.146  0.00  0.00    +0.203 C 
ATOM     10  O   LIG A   1      -5.705   5.104 128.194  0.00  0.00    -0.288 OA
ATOM     11  C   LIG A   1      -6.763   0.727 128.529  0.00  0.00    -0.009 C 
ATOM     12  C   LIG A   1      -6.707   0.047 127.356  0.00  0.00    +0.024 C 
ATOM     13  C   LIG A   1      -8.000   0.797 129.390  0.00  0.00    +0.047 C 
ATOM     14  C   LIG A   1      -3.692   3.607 126.519  0.00  0.00    +0.064 C 
ATOM     15  O   LIG A   1      -8.220   3.433 125.036  0.00  0.00    -0.457 OA
ATOM     16  C   LIG A   1      -8.346   2.756 123.855  0.00  0.00    +0.335 C 
ATOM     17  O   LIG A   1      -8.681   3.234 122.786  0.00  0.00    -0.245 OA
ATOM     18  C   LIG A   1      -8.002   1.333 124.135  0.00  0.00    +0.040 C 
ATOM     19  C   LIG A   1      -7.574   0.533 123.153  0.00  0.00    +0.020 C 
ENDROOT
BRANCH   1  20
ATOM     20  O   LIG A   1      -7.687  -1.267 125.670  0.00  0.00    -0.453 OA
BRANCH  20  21
ATOM     21  C   LIG A   1      -8.786  -2.010 125.381  0.00  0.00    +0.335 C 
ATOM     22  O   LIG A   1      -9.903  -1.840 125.843  0.00  0.00    -0.245 OA
BRANCH  21  23
ATOM     23  C   LIG A   1      -8.457  -3.031 124.344  0.00  0.00    +0.026 C 
ATOM     24  C   LIG A   1      -7.267  -3.656 124.338  0.00  0.00    +0.019 C 
ATOM     25  C   LIG A   1      -9.523  -3.316 123.331  0.00  0.00    +0.051 C 
ENDBRANCH  21  23
ENDBRANCH  20  21
ENDBRANCH   1  20
TORSDOF 3
ENDMDL
MODEL 8
REMARK VINA RESULT:      -7.0      2.853      4.703
REMARK  Name = NuBBE_1654
REMARK  6 active torsions:
REMARK  status: ('A' for Active; 'I' for Inactive)
REMARK    1  A    between atoms: O_1  and  C_2
REMARK    2  A    between atoms: O_1  and  C_7
REMARK    3  A    between atoms: C_2  and  C_4
REMARK    4  A    between atoms: C_4  and  C_6
REMARK    5  A    between atoms: C_11  and  C_20
REMARK    6  A    between atoms: C_17  and  C_19
REMARK                            x       y       z     vdW  Elec       q    Type
REMARK                         _______ _______ _______ _____ _____    ______ ____
ROOT
ATOM      1  C   LIG A   1      -8.128  -1.135 126.684  0.00  0.00    +0.211 C 
ATOM      2  C   LIG A   1      -8.327   0.135 127.579  0.00  0.00    +0.111 C 
ATOM      3  C   LIG A   1      -7.823   0.193 129.053  0.00  0.00    +0.192 C 
ATOM      4  C   LIG A   1      -6.290   0.356 129.383  0.00  0.00    +0.101 C 
ATOM      5  C   LIG A   1      -5.489  -0.787 130.068  0.00  0.00    +0.172 C 
ATOM      6  O   LIG A   1      -5.309  -1.862 129.133  0.00  0.00    -0.478 OA
ATOM      7  C   LIG A   1      -6.386  -2.707 129.399  0.00  0.00    +0.128 C 
ATOM      8  C   LIG A   1      -6.779  -2.777 130.674  0.00  0.00    +0.096 C 
ATOM      9  C   LIG A   1      -6.189  -1.530 131.182  0.00  0.00    +0.203 C 
ATOM     10  O   LIG A   1      -6.371  -1.132 132.321  0.00  0.00    -0.288 OA
ATOM     11  C   LIG A   1      -7.292  -2.881 128.261  0.00  0.00    -0.009 C 
ATOM     12  C   LIG A   1      -7.062  -2.038 127.224  0.00  0.00    +0.024 C 
ATOM     13  C   LIG A   1      -8.630  -3.528 128.525  0.00  0.00    +0.047 C 
ATOM     14  C   LIG A   1      -4.106  -0.315 130.504  0.00  0.00    +0.064 C 
ATOM     15  O   LIG A   1      -8.402   1.475 129.461  0.00  0.00    -0.457 OA
ATOM     16  C   LIG A   1      -8.351   2.346 128.410  0.00  0.00    +0.335 C 
ATOM     17  O   LIG A   1      -8.566   3.544 128.459  0.00  0.00    -0.245 OA
ATOM     18  C   LIG A   1      -7.990   1.546 127.205  0.00  0.00    +0.040 C 
ATOM     19  C   LIG A   1      -7.411   2.131 126.151  0.00  0.00    +0.020 C 
ENDROOT
BRANCH   1  20
ATOM     20  O   LIG A   1      -7.770  -0.833 125.332  0.00  0.00    -0.453 OA
BRANCH  20  21
ATOM     21  C   LIG A   1      -8.703  -1.108 124.384  0.00  0.00    +0.335 C 
ATOM     22  O   LIG A   1      -9.583  -0.349 124.009  0.00  0.00    -0.245 OA
BRANCH  21  23
ATOM     23  C   LIG A   1      -8.457  -2.457 123.798  0.00  0.00    +0.026 C 
ATOM     24  C   LIG A   1      -9.477  -3.276 123.489  0.00  0.00    +0.019 C 
ATOM     25  C   LIG A   1      -7.024  -2.832 123.575  0.00  0.00    +0.051 C 
ENDBRANCH  21  23
ENDBRANCH  20  21
ENDBRANCH   1  20
TORSDOF 3
ENDMDL
MODEL 9
REMARK VINA RESULT:      -6.9      3.212      5.559
REMARK  Name = NuBBE_1654
REMARK  6 active torsions:
REMARK  status: ('A' for Active; 'I' for Inactive)
REMARK    1  A    between atoms: O_1  and  C_2
REMARK    2  A    between atoms: O_1  and  C_7
REMARK    3  A    between atoms: C_2  and  C_4
REMARK    4  A    between atoms: C_4  and  C_6
REMARK    5  A    between atoms: C_11  and  C_20
REMARK    6  A    between atoms: C_17  and  C_19
REMARK                            x       y       z     vdW  Elec       q    Type
REMARK                         _______ _______ _______ _____ _____    ______ ____
ROOT
ATOM      1  C   LIG A   1      -5.017   3.690 127.209  0.00  0.00    +0.211 C 
ATOM      2  C   LIG A   1      -6.377   3.787 127.980  0.00  0.00    +0.111 C 
ATOM      3  C   LIG A   1      -7.719   3.303 127.351  0.00  0.00    +0.192 C 
ATOM      4  C   LIG A   1      -8.049   1.768 127.219  0.00  0.00    +0.101 C 
ATOM      5  C   LIG A   1      -8.153   1.084 125.826  0.00  0.00    +0.172 C 
ATOM      6  O   LIG A   1      -6.842   0.987 125.249  0.00  0.00    -0.478 OA
ATOM      7  C   LIG A   1      -6.744   2.142 124.471  0.00  0.00    +0.128 C 
ATOM      8  C   LIG A   1      -7.873   2.560 123.893  0.00  0.00    +0.096 C 
ATOM      9  C   LIG A   1      -8.855   1.866 124.740  0.00  0.00    +0.203 C 
ATOM     10  O   LIG A   1     -10.058   2.030 124.622  0.00  0.00    -0.288 OA
ATOM     11  C   LIG A   1      -5.665   3.041 124.887  0.00  0.00    -0.009 C 
ATOM     12  C   LIG A   1      -5.088   2.719 126.071  0.00  0.00    +0.024 C 
ATOM     13  C   LIG A   1      -5.658   4.436 124.310  0.00  0.00    +0.047 C 
ATOM     14  C   LIG A   1      -8.716  -0.329 125.939  0.00  0.00    +0.064 C 
ATOM     15  O   LIG A   1      -8.654   3.769 128.376  0.00  0.00    -0.457 OA
ATOM     16  C   LIG A   1      -8.080   3.623 129.608  0.00  0.00    +0.335 C 
ATOM     17  O   LIG A   1      -8.647   3.730 130.681  0.00  0.00    -0.245 OA
ATOM     18  C   LIG A   1      -6.639   3.317 129.378  0.00  0.00    +0.040 C 
ATOM     19  C   LIG A   1      -5.928   2.670 130.307  0.00  0.00    +0.020 C 
ENDROOT
BRANCH   1  20
ATOM     20  O   LIG A   1      -3.919   3.284 128.032  0.00  0.00    -0.453 OA
BRANCH  20  21
ATOM     21  C   LIG A   1      -2.745   3.939 127.838  0.00  0.00    +0.335 C 
ATOM     22  O   LIG A   1      -1.883   3.632 127.030  0.00  0.00    -0.245 OA
BRANCH  21  23
ATOM     23  C   LIG A   1      -2.684   5.150 128.706  0.00  0.00    +0.026 C 
ATOM     24  C   LIG A   1      -2.400   6.359 128.192  0.00  0.00    +0.019 C 
ATOM     25  C   LIG A   1      -2.965   4.938 130.162  0.00  0.00    +0.051 C 
ENDBRANCH  21  23
ENDBRANCH  20  21
ENDBRANCH   1  20
TORSDOF 3
ENDMDL
