MODEL 1
REMARK VINA RESULT:      -6.0      0.000      0.000
REMARK  Name = NuBBE_1342
REMARK  10 active torsions:
REMARK  status: ('A' for Active; 'I' for Inactive)
REMARK    1  A    between atoms: O_1  and  C_2
REMARK    2  A    between atoms: C_3  and  C_9
REMARK    3  A    between atoms: C_5  and  C_6
REMARK    4  A    between atoms: C_9  and  C_10
REMARK    5  A    between atoms: C_9  and  C_13
REMARK    6  A    between atoms: C_10  and  C_11
REMARK    7  A    between atoms: C_10  and  C_12
REMARK    8  A    between atoms: C_13  and  C_14
REMARK    9  A    between atoms: C_14  and  C_15
REMARK   10  A    between atoms: C_15  and  C_16
REMARK                            x       y       z     vdW  Elec       q    Type
REMARK                         _______ _______ _______ _____ _____    ______ ____
ROOT
ATOM      1  C   LIG A   1     -10.266   6.827 128.120  0.00  0.00    +0.120 A 
ATOM      2  C   LIG A   1     -10.406   6.779 129.516  0.00  0.00    -0.002 A 
ATOM      3  C   LIG A   1     -11.343   7.648 130.109  0.00  0.00    +0.010 A 
ATOM      4  C   LIG A   1     -12.094   8.553 129.340  0.00  0.00    -0.050 A 
ATOM      5  C   LIG A   1     -13.085   9.483 129.976  0.00  0.00    +0.044 C 
ATOM      6  C   LIG A   1     -11.902   8.595 127.957  0.00  0.00    +0.007 A 
ATOM      7  C   LIG A   1     -10.997   7.729 127.346  0.00  0.00    +0.046 A 
ENDROOT
BRANCH   1   8
ATOM      8  O   LIG A   1      -9.400   5.968 127.505  0.00  0.00    -0.506 OA
ATOM      9  H   LIG A   1      -8.540   6.019 127.955  0.00  0.00    +0.292 HD
ENDBRANCH   1   8
BRANCH   2  10
ATOM     10  C   LIG A   1      -9.568   5.821 130.372  0.00  0.00    +0.026 C 
BRANCH  10  11
ATOM     11  C   LIG A   1      -8.744   6.592 131.466  0.00  0.00    -0.010 C 
ATOM     12  C   LIG A   1      -8.763   5.897 132.837  0.00  0.00    +0.008 C 
ATOM     13  C   LIG A   1      -7.271   6.781 131.067  0.00  0.00    +0.008 C 
ENDBRANCH  10  11
BRANCH  10  14
ATOM     14  C   LIG A   1     -10.462   4.706 130.983  0.00  0.00    +0.016 C 
BRANCH  14  15
ATOM     15  C   LIG A   1     -10.254   3.327 130.345  0.00  0.00    +0.075 C 
BRANCH  15  16
ATOM     16  C   LIG A   1      -8.865   3.220 129.733  0.00  0.00    +0.130 C 
ATOM     17  C   LIG A   1      -7.723   2.882 130.662  0.00  0.00    +0.086 C 
ATOM     18  O   LIG A   1      -8.680   3.354 128.526  0.00  0.00    -0.298 OA
ENDBRANCH  15  16
ENDBRANCH  14  15
ENDBRANCH  10  14
ENDBRANCH   2  10
TORSDOF 6
ENDMDL
MODEL 2
REMARK VINA RESULT:      -5.8      8.047      9.694
REMARK  Name = NuBBE_1342
REMARK  10 active torsions:
REMARK  status: ('A' for Active; 'I' for Inactive)
REMARK    1  A    between atoms: O_1  and  C_2
REMARK    2  A    between atoms: C_3  and  C_9
REMARK    3  A    between atoms: C_5  and  C_6
REMARK    4  A    between atoms: C_9  and  C_10
REMARK    5  A    between atoms: C_9  and  C_13
REMARK    6  A    between atoms: C_10  and  C_11
REMARK    7  A    between atoms: C_10  and  C_12
REMARK    8  A    between atoms: C_13  and  C_14
REMARK    9  A    between atoms: C_14  and  C_15
REMARK   10  A    between atoms: C_15  and  C_16
REMARK                            x       y       z     vdW  Elec       q    Type
REMARK                         _______ _______ _______ _____ _____    ______ ____
ROOT
ATOM      1  C   LIG A   1      -9.106  -0.697 123.329  0.00  0.00    +0.120 A 
ATOM      2  C   LIG A   1      -7.835  -0.662 123.922  0.00  0.00    -0.002 A 
ATOM      3  C   LIG A   1      -7.209   0.593 124.055  0.00  0.00    +0.010 A 
ATOM      4  C   LIG A   1      -7.819   1.770 123.588  0.00  0.00    -0.050 A 
ATOM      5  C   LIG A   1      -7.147   3.105 123.725  0.00  0.00    +0.044 C 
ATOM      6  C   LIG A   1      -9.071   1.690 122.972  0.00  0.00    +0.007 A 
ATOM      7  C   LIG A   1      -9.718   0.463 122.849  0.00  0.00    +0.046 A 
ENDROOT
BRANCH   1   8
ATOM      8  O   LIG A   1      -9.763  -1.891 123.223  0.00  0.00    -0.506 OA
ATOM      9  H   LIG A   1      -9.616  -2.248 122.331  0.00  0.00    +0.292 HD
ENDBRANCH   1   8
BRANCH   2  10
ATOM     10  C   LIG A   1      -7.142  -1.942 124.405  0.00  0.00    +0.026 C 
BRANCH  10  11
ATOM     11  C   LIG A   1      -5.804  -2.209 123.623  0.00  0.00    -0.010 C 
ATOM     12  C   LIG A   1      -5.165  -3.563 123.964  0.00  0.00    +0.008 C 
ATOM     13  C   LIG A   1      -5.998  -2.163 122.098  0.00  0.00    +0.008 C 
ENDBRANCH  10  11
BRANCH  10  14
ATOM     14  C   LIG A   1      -6.927  -1.903 125.945  0.00  0.00    +0.016 C 
BRANCH  14  15
ATOM     15  C   LIG A   1      -8.220  -1.710 126.745  0.00  0.00    +0.075 C 
BRANCH  15  16
ATOM     16  C   LIG A   1      -9.096  -2.953 126.663  0.00  0.00    +0.130 C 
ATOM     17  C   LIG A   1      -8.895  -4.012 127.722  0.00  0.00    +0.086 C 
ATOM     18  O   LIG A   1      -9.964  -3.075 125.804  0.00  0.00    -0.298 OA
ENDBRANCH  15  16
ENDBRANCH  14  15
ENDBRANCH  10  14
ENDBRANCH   2  10
TORSDOF 6
ENDMDL
MODEL 3
REMARK VINA RESULT:      -5.8      6.399      9.707
REMARK  Name = NuBBE_1342
REMARK  10 active torsions:
REMARK  status: ('A' for Active; 'I' for Inactive)
REMARK    1  A    between atoms: O_1  and  C_2
REMARK    2  A    between atoms: C_3  and  C_9
REMARK    3  A    between atoms: C_5  and  C_6
REMARK    4  A    between atoms: C_9  and  C_10
REMARK    5  A    between atoms: C_9  and  C_13
REMARK    6  A    between atoms: C_10  and  C_11
REMARK    7  A    between atoms: C_10  and  C_12
REMARK    8  A    between atoms: C_13  and  C_14
REMARK    9  A    between atoms: C_14  and  C_15
REMARK   10  A    between atoms: C_15  and  C_16
REMARK                            x       y       z     vdW  Elec       q    Type
REMARK                         _______ _______ _______ _____ _____    ______ ____
ROOT
ATOM      1  C   LIG A   1      -8.590  -1.610 125.010  0.00  0.00    +0.120 A 
ATOM      2  C   LIG A   1      -7.616  -1.925 125.969  0.00  0.00    -0.002 A 
ATOM      3  C   LIG A   1      -6.391  -2.450 125.510  0.00  0.00    +0.010 A 
ATOM      4  C   LIG A   1      -6.157  -2.676 124.143  0.00  0.00    -0.050 A 
ATOM      5  C   LIG A   1      -4.855  -3.242 123.657  0.00  0.00    +0.044 C 
ATOM      6  C   LIG A   1      -7.164  -2.381 123.221  0.00  0.00    +0.007 A 
ATOM      7  C   LIG A   1      -8.375  -1.841 123.650  0.00  0.00    +0.046 A 
ENDROOT
BRANCH   1   8
ATOM      8  O   LIG A   1      -9.773  -1.058 125.414  0.00  0.00    -0.506 OA
ATOM      9  H   LIG A   1      -9.624  -0.120 125.618  0.00  0.00    +0.292 HD
ENDBRANCH   1   8
BRANCH   2  10
ATOM     10  C   LIG A   1      -7.870  -1.716 127.467  0.00  0.00    +0.026 C 
BRANCH  10  11
ATOM     11  C   LIG A   1      -7.836  -3.075 128.257  0.00  0.00    -0.010 C 
ATOM     12  C   LIG A   1      -7.910  -2.889 129.780  0.00  0.00    +0.008 C 
ATOM     13  C   LIG A   1      -8.981  -4.018 127.852  0.00  0.00    +0.008 C 
ENDBRANCH  10  11
BRANCH  10  14
ATOM     14  C   LIG A   1      -6.880  -0.669 128.051  0.00  0.00    +0.016 C 
BRANCH  14  15
ATOM     15  C   LIG A   1      -6.981   0.712 127.394  0.00  0.00    +0.075 C 
BRANCH  15  16
ATOM     16  C   LIG A   1      -8.329   1.354 127.693  0.00  0.00    +0.130 C 
ATOM     17  C   LIG A   1      -8.562   1.853 129.099  0.00  0.00    +0.086 C 
ATOM     18  O   LIG A   1      -9.178   1.506 126.819  0.00  0.00    -0.298 OA
ENDBRANCH  15  16
ENDBRANCH  14  15
ENDBRANCH  10  14
ENDBRANCH   2  10
TORSDOF 6
ENDMDL
MODEL 4
REMARK VINA RESULT:      -5.7      6.919      9.951
REMARK  Name = NuBBE_1342
REMARK  10 active torsions:
REMARK  status: ('A' for Active; 'I' for Inactive)
REMARK    1  A    between atoms: O_1  and  C_2
REMARK    2  A    between atoms: C_3  and  C_9
REMARK    3  A    between atoms: C_5  and  C_6
REMARK    4  A    between atoms: C_9  and  C_10
REMARK    5  A    between atoms: C_9  and  C_13
REMARK    6  A    between atoms: C_10  and  C_11
REMARK    7  A    between atoms: C_10  and  C_12
REMARK    8  A    between atoms: C_13  and  C_14
REMARK    9  A    between atoms: C_14  and  C_15
REMARK   10  A    between atoms: C_15  and  C_16
REMARK                            x       y       z     vdW  Elec       q    Type
REMARK                         _______ _______ _______ _____ _____    ______ ____
ROOT
ATOM      1  C   LIG A   1      -8.456  -1.852 125.051  0.00  0.00    +0.120 A 
ATOM      2  C   LIG A   1      -7.428  -0.928 124.805  0.00  0.00    -0.002 A 
ATOM      3  C   LIG A   1      -6.220  -1.420 124.272  0.00  0.00    +0.010 A 
ATOM      4  C   LIG A   1      -6.035  -2.790 124.018  0.00  0.00    -0.050 A 
ATOM      5  C   LIG A   1      -4.745  -3.312 123.456  0.00  0.00    +0.044 C 
ATOM      6  C   LIG A   1      -7.070  -3.683 124.307  0.00  0.00    +0.007 A 
ATOM      7  C   LIG A   1      -8.281  -3.216 124.814  0.00  0.00    +0.046 A 
ENDROOT
BRANCH   1   8
ATOM      8  O   LIG A   1      -9.657  -1.406 125.526  0.00  0.00    -0.506 OA
ATOM      9  H   LIG A   1      -9.523  -0.539 125.945  0.00  0.00    +0.292 HD
ENDBRANCH   1   8
BRANCH   2  10
ATOM     10  C   LIG A   1      -7.604   0.565 125.110  0.00  0.00    +0.026 C 
BRANCH  10  11
ATOM     11  C   LIG A   1      -6.538   1.074 126.147  0.00  0.00    -0.010 C 
ATOM     12  C   LIG A   1      -5.662   2.213 125.603  0.00  0.00    +0.008 C 
ATOM     13  C   LIG A   1      -7.181   1.572 127.453  0.00  0.00    +0.008 C 
ENDBRANCH  10  11
BRANCH  10  14
ATOM     14  C   LIG A   1      -7.595   1.398 123.797  0.00  0.00    +0.016 C 
BRANCH  14  15
ATOM     15  C   LIG A   1      -8.895   2.172 123.547  0.00  0.00    +0.075 C 
BRANCH  15  16
ATOM     16  C   LIG A   1     -10.081   1.221 123.460  0.00  0.00    +0.130 C 
ATOM     17  C   LIG A   1     -10.096   0.238 122.313  0.00  0.00    +0.086 C 
ATOM     18  O   LIG A   1     -10.967   1.215 124.310  0.00  0.00    -0.298 OA
ENDBRANCH  15  16
ENDBRANCH  14  15
ENDBRANCH  10  14
ENDBRANCH   2  10
TORSDOF 6
ENDMDL
MODEL 5
REMARK VINA RESULT:      -5.6      2.048      3.684
REMARK  Name = NuBBE_1342
REMARK  10 active torsions:
REMARK  status: ('A' for Active; 'I' for Inactive)
REMARK    1  A    between atoms: O_1  and  C_2
REMARK    2  A    between atoms: C_3  and  C_9
REMARK    3  A    between atoms: C_5  and  C_6
REMARK    4  A    between atoms: C_9  and  C_10
REMARK    5  A    between atoms: C_9  and  C_13
REMARK    6  A    between atoms: C_10  and  C_11
REMARK    7  A    between atoms: C_10  and  C_12
REMARK    8  A    between atoms: C_13  and  C_14
REMARK    9  A    between atoms: C_14  and  C_15
REMARK   10  A    between atoms: C_15  and  C_16
REMARK                            x       y       z     vdW  Elec       q    Type
REMARK                         _______ _______ _______ _____ _____    ______ ____
ROOT
ATOM      1  C   LIG A   1     -11.734   6.471 130.923  0.00  0.00    +0.120 A 
ATOM      2  C   LIG A   1     -10.582   6.030 130.252  0.00  0.00    -0.002 A 
ATOM      3  C   LIG A   1     -10.328   6.562 128.972  0.00  0.00    +0.010 A 
ATOM      4  C   LIG A   1     -11.206   7.479 128.371  0.00  0.00    -0.050 A 
ATOM      5  C   LIG A   1     -10.936   8.038 127.004  0.00  0.00    +0.044 C 
ATOM      6  C   LIG A   1     -12.360   7.868 129.056  0.00  0.00    +0.007 A 
ATOM      7  C   LIG A   1     -12.620   7.373 130.332  0.00  0.00    +0.046 A 
ENDROOT
BRANCH   1   8
ATOM      8  O   LIG A   1     -11.990   6.012 132.184  0.00  0.00    -0.506 OA
ATOM      9  H   LIG A   1     -12.332   5.104 132.120  0.00  0.00    +0.292 HD
ENDBRANCH   1   8
BRANCH   2  10
ATOM     10  C   LIG A   1      -9.633   5.002 130.880  0.00  0.00    +0.026 C 
BRANCH  10  11
ATOM     11  C   LIG A   1      -9.947   3.544 130.384  0.00  0.00    -0.010 C 
ATOM     12  C   LIG A   1      -8.888   2.996 129.416  0.00  0.00    +0.008 C 
ATOM     13  C   LIG A   1     -10.071   2.543 131.545  0.00  0.00    +0.008 C 
ENDBRANCH  10  11
BRANCH  10  14
ATOM     14  C   LIG A   1      -8.151   5.403 130.637  0.00  0.00    +0.016 C 
BRANCH  14  15
ATOM     15  C   LIG A   1      -7.680   6.582 131.495  0.00  0.00    +0.075 C 
BRANCH  15  16
ATOM     16  C   LIG A   1      -6.220   6.909 131.208  0.00  0.00    +0.130 C 
ATOM     17  C   LIG A   1      -5.181   6.276 132.103  0.00  0.00    +0.086 C 
ATOM     18  O   LIG A   1      -5.893   7.619 130.262  0.00  0.00    -0.298 OA
ENDBRANCH  15  16
ENDBRANCH  14  15
ENDBRANCH  10  14
ENDBRANCH   2  10
TORSDOF 6
ENDMDL
MODEL 6
REMARK VINA RESULT:      -5.6      7.257     10.160
REMARK  Name = NuBBE_1342
REMARK  10 active torsions:
REMARK  status: ('A' for Active; 'I' for Inactive)
REMARK    1  A    between atoms: O_1  and  C_2
REMARK    2  A    between atoms: C_3  and  C_9
REMARK    3  A    between atoms: C_5  and  C_6
REMARK    4  A    between atoms: C_9  and  C_10
REMARK    5  A    between atoms: C_9  and  C_13
REMARK    6  A    between atoms: C_10  and  C_11
REMARK    7  A    between atoms: C_10  and  C_12
REMARK    8  A    between atoms: C_13  and  C_14
REMARK    9  A    between atoms: C_14  and  C_15
REMARK   10  A    between atoms: C_15  and  C_16
REMARK                            x       y       z     vdW  Elec       q    Type
REMARK                         _______ _______ _______ _____ _____    ______ ____
ROOT
ATOM      1  C   LIG A   1      -8.867  -2.858 126.528  0.00  0.00    +0.120 A 
ATOM      2  C   LIG A   1      -7.820  -1.953 126.761  0.00  0.00    -0.002 A 
ATOM      3  C   LIG A   1      -7.169  -2.014 128.009  0.00  0.00    +0.010 A 
ATOM      4  C   LIG A   1      -7.566  -2.929 129.000  0.00  0.00    -0.050 A 
ATOM      5  C   LIG A   1      -6.875  -2.987 130.331  0.00  0.00    +0.044 C 
ATOM      6  C   LIG A   1      -8.635  -3.791 128.742  0.00  0.00    +0.007 A 
ATOM      7  C   LIG A   1      -9.279  -3.763 127.507  0.00  0.00    +0.046 A 
ENDROOT
BRANCH   1   8
ATOM      8  O   LIG A   1      -9.493  -2.858 125.313  0.00  0.00    -0.506 OA
ATOM      9  H   LIG A   1     -10.413  -2.571 125.438  0.00  0.00    +0.292 HD
ENDBRANCH   1   8
BRANCH   2  10
ATOM     10  C   LIG A   1      -7.399  -0.926 125.703  0.00  0.00    +0.026 C 
BRANCH  10  11
ATOM     11  C   LIG A   1      -7.547   0.547 126.233  0.00  0.00    -0.010 C 
ATOM     12  C   LIG A   1      -6.933   1.592 125.289  0.00  0.00    +0.008 C 
ATOM     13  C   LIG A   1      -9.015   0.943 126.465  0.00  0.00    +0.008 C 
ENDBRANCH  10  11
BRANCH  10  14
ATOM     14  C   LIG A   1      -5.963  -1.226 125.188  0.00  0.00    +0.016 C 
BRANCH  14  15
ATOM     15  C   LIG A   1      -5.928  -1.883 123.803  0.00  0.00    +0.075 C 
BRANCH  15  16
ATOM     16  C   LIG A   1      -5.862  -3.399 123.927  0.00  0.00    +0.130 C 
ATOM     17  C   LIG A   1      -4.507  -4.048 123.772  0.00  0.00    +0.086 C 
ATOM     18  O   LIG A   1      -6.858  -4.068 124.189  0.00  0.00    -0.298 OA
ENDBRANCH  15  16
ENDBRANCH  14  15
ENDBRANCH  10  14
ENDBRANCH   2  10
TORSDOF 6
ENDMDL
MODEL 7
REMARK VINA RESULT:      -5.5      7.336     10.076
REMARK  Name = NuBBE_1342
REMARK  10 active torsions:
REMARK  status: ('A' for Active; 'I' for Inactive)
REMARK    1  A    between atoms: O_1  and  C_2
REMARK    2  A    between atoms: C_3  and  C_9
REMARK    3  A    between atoms: C_5  and  C_6
REMARK    4  A    between atoms: C_9  and  C_10
REMARK    5  A    between atoms: C_9  and  C_13
REMARK    6  A    between atoms: C_10  and  C_11
REMARK    7  A    between atoms: C_10  and  C_12
REMARK    8  A    between atoms: C_13  and  C_14
REMARK    9  A    between atoms: C_14  and  C_15
REMARK   10  A    between atoms: C_15  and  C_16
REMARK                            x       y       z     vdW  Elec       q    Type
REMARK                         _______ _______ _______ _____ _____    ______ ____
ROOT
ATOM      1  C   LIG A   1      -8.545  -1.297 124.852  0.00  0.00    +0.120 A 
ATOM      2  C   LIG A   1      -7.342  -0.629 124.577  0.00  0.00    -0.002 A 
ATOM      3  C   LIG A   1      -6.226  -1.412 124.221  0.00  0.00    +0.010 A 
ATOM      4  C   LIG A   1      -6.300  -2.814 124.169  0.00  0.00    -0.050 A 
ATOM      5  C   LIG A   1      -5.108  -3.646 123.796  0.00  0.00    +0.044 C 
ATOM      6  C   LIG A   1      -7.507  -3.445 124.482  0.00  0.00    +0.007 A 
ATOM      7  C   LIG A   1      -8.629  -2.690 124.815  0.00  0.00    +0.046 A 
ENDROOT
BRANCH   1   8
ATOM      8  O   LIG A   1      -9.660  -0.569 125.157  0.00  0.00    -0.506 OA
ATOM      9  H   LIG A   1     -10.016  -0.188 124.337  0.00  0.00    +0.292 HD
ENDBRANCH   1   8
BRANCH   2  10
ATOM     10  C   LIG A   1      -7.236   0.898 124.665  0.00  0.00    +0.026 C 
BRANCH  10  11
ATOM     11  C   LIG A   1      -6.038   1.345 125.579  0.00  0.00    -0.010 C 
ATOM     12  C   LIG A   1      -5.666   2.826 125.405  0.00  0.00    +0.008 C 
ATOM     13  C   LIG A   1      -6.322   1.115 127.073  0.00  0.00    +0.008 C 
ENDBRANCH  10  11
BRANCH  10  14
ATOM     14  C   LIG A   1      -7.161   1.526 123.245  0.00  0.00    +0.016 C 
BRANCH  14  15
ATOM     15  C   LIG A   1      -8.338   2.451 122.914  0.00  0.00    +0.075 C 
BRANCH  15  16
ATOM     16  C   LIG A   1      -8.024   3.311 121.697  0.00  0.00    +0.130 C 
ATOM     17  C   LIG A   1      -6.569   3.603 121.414  0.00  0.00    +0.086 C 
ATOM     18  O   LIG A   1      -8.908   3.713 120.946  0.00  0.00    -0.298 OA
ENDBRANCH  15  16
ENDBRANCH  14  15
ENDBRANCH  10  14
ENDBRANCH   2  10
TORSDOF 6
ENDMDL
MODEL 8
REMARK VINA RESULT:      -5.4      7.237     10.250
REMARK  Name = NuBBE_1342
REMARK  10 active torsions:
REMARK  status: ('A' for Active; 'I' for Inactive)
REMARK    1  A    between atoms: O_1  and  C_2
REMARK    2  A    between atoms: C_3  and  C_9
REMARK    3  A    between atoms: C_5  and  C_6
REMARK    4  A    between atoms: C_9  and  C_10
REMARK    5  A    between atoms: C_9  and  C_13
REMARK    6  A    between atoms: C_10  and  C_11
REMARK    7  A    between atoms: C_10  and  C_12
REMARK    8  A    between atoms: C_13  and  C_14
REMARK    9  A    between atoms: C_14  and  C_15
REMARK   10  A    between atoms: C_15  and  C_16
REMARK                            x       y       z     vdW  Elec       q    Type
REMARK                         _______ _______ _______ _____ _____    ______ ____
ROOT
ATOM      1  C   LIG A   1      -5.998  -1.425 127.324  0.00  0.00    +0.120 A 
ATOM      2  C   LIG A   1      -6.818  -1.774 126.239  0.00  0.00    -0.002 A 
ATOM      3  C   LIG A   1      -7.897  -2.644 126.488  0.00  0.00    +0.010 A 
ATOM      4  C   LIG A   1      -8.134  -3.171 127.769  0.00  0.00    -0.050 A 
ATOM      5  C   LIG A   1      -9.280  -4.104 128.030  0.00  0.00    +0.044 C 
ATOM      6  C   LIG A   1      -7.276  -2.827 128.817  0.00  0.00    +0.007 A 
ATOM      7  C   LIG A   1      -6.216  -1.950 128.599  0.00  0.00    +0.046 A 
ENDROOT
BRANCH   1   8
ATOM      8  O   LIG A   1      -4.969  -0.548 127.130  0.00  0.00    -0.506 OA
ATOM      9  H   LIG A   1      -4.277  -0.730 127.788  0.00  0.00    +0.292 HD
ENDBRANCH   1   8
BRANCH   2  10
ATOM     10  C   LIG A   1      -6.550  -1.235 124.828  0.00  0.00    +0.026 C 
BRANCH  10  11
ATOM     11  C   LIG A   1      -6.326  -2.399 123.795  0.00  0.00    -0.010 C 
ATOM     12  C   LIG A   1      -6.353  -1.923 122.335  0.00  0.00    +0.008 C 
ATOM     13  C   LIG A   1      -4.992  -3.131 124.017  0.00  0.00    +0.008 C 
ENDBRANCH  10  11
BRANCH  10  14
ATOM     14  C   LIG A   1      -7.682  -0.264 124.387  0.00  0.00    +0.016 C 
BRANCH  14  15
ATOM     15  C   LIG A   1      -7.561   1.141 124.989  0.00  0.00    +0.075 C 
BRANCH  15  16
ATOM     16  C   LIG A   1      -8.731   2.015 124.558  0.00  0.00    +0.130 C 
ATOM     17  C   LIG A   1      -9.555   1.539 123.385  0.00  0.00    +0.086 C 
ATOM     18  O   LIG A   1      -9.027   3.040 125.165  0.00  0.00    -0.298 OA
ENDBRANCH  15  16
ENDBRANCH  14  15
ENDBRANCH  10  14
ENDBRANCH   2  10
TORSDOF 6
ENDMDL
MODEL 9
REMARK VINA RESULT:      -5.3      7.017     10.269
REMARK  Name = NuBBE_1342
REMARK  10 active torsions:
REMARK  status: ('A' for Active; 'I' for Inactive)
REMARK    1  A    between atoms: O_1  and  C_2
REMARK    2  A    between atoms: C_3  and  C_9
REMARK    3  A    between atoms: C_5  and  C_6
REMARK    4  A    between atoms: C_9  and  C_10
REMARK    5  A    between atoms: C_9  and  C_13
REMARK    6  A    between atoms: C_10  and  C_11
REMARK    7  A    between atoms: C_10  and  C_12
REMARK    8  A    between atoms: C_13  and  C_14
REMARK    9  A    between atoms: C_14  and  C_15
REMARK   10  A    between atoms: C_15  and  C_16
REMARK                            x       y       z     vdW  Elec       q    Type
REMARK                         _______ _______ _______ _____ _____    ______ ____
ROOT
ATOM      1  C   LIG A   1      -9.076  -3.045 126.516  0.00  0.00    +0.120 A 
ATOM      2  C   LIG A   1      -7.961  -2.217 126.314  0.00  0.00    -0.002 A 
ATOM      3  C   LIG A   1      -6.990  -2.167 127.334  0.00  0.00    +0.010 A 
ATOM      4  C   LIG A   1      -7.141  -2.895 128.526  0.00  0.00    -0.050 A 
ATOM      5  C   LIG A   1      -6.109  -2.834 129.614  0.00  0.00    +0.044 C 
ATOM      6  C   LIG A   1      -8.281  -3.682 128.705  0.00  0.00    +0.007 A 
ATOM      7  C   LIG A   1      -9.244  -3.764 127.701  0.00  0.00    +0.046 A 
ENDROOT
BRANCH   1   8
ATOM      8  O   LIG A   1     -10.017  -3.154 125.531  0.00  0.00    -0.506 OA
ATOM      9  H   LIG A   1     -10.872  -2.855 125.883  0.00  0.00    +0.292 HD
ENDBRANCH   1   8
BRANCH   2  10
ATOM     10  C   LIG A   1      -7.801  -1.389 125.032  0.00  0.00    +0.026 C 
BRANCH  10  11
ATOM     11  C   LIG A   1      -7.505  -2.300 123.786  0.00  0.00    -0.010 C 
ATOM     12  C   LIG A   1      -8.427  -2.007 122.592  0.00  0.00    +0.008 C 
ATOM     13  C   LIG A   1      -6.055  -2.167 123.292  0.00  0.00    +0.008 C 
ENDBRANCH  10  11
BRANCH  10  14
ATOM     14  C   LIG A   1      -9.037  -0.472 124.813  0.00  0.00    +0.016 C 
BRANCH  14  15
ATOM     15  C   LIG A   1      -8.993   0.829 125.624  0.00  0.00    +0.075 C 
BRANCH  15  16
ATOM     16  C   LIG A   1      -9.105   2.040 124.708  0.00  0.00    +0.130 C 
ATOM     17  C   LIG A   1      -9.410   1.780 123.251  0.00  0.00    +0.086 C 
ATOM     18  O   LIG A   1      -9.000   3.185 125.138  0.00  0.00    -0.298 OA
ENDBRANCH  15  16
ENDBRANCH  14  15
ENDBRANCH  10  14
ENDBRANCH   2  10
TORSDOF 6
ENDMDL
