MODEL 1
REMARK VINA RESULT:      -8.0      0.000      0.000
REMARK  Name = NuBBE_2498
REMARK  6 active torsions:
REMARK  status: ('A' for Active; 'I' for Inactive)
REMARK    1  A    between atoms: C_1  and  C_2
REMARK    2  A    between atoms: C_2  and  C_3
REMARK    3  A    between atoms: C_4  and  C_5
REMARK    4  A    between atoms: C_14  and  C_15
REMARK    5  A    between atoms: C_14  and  C_16
REMARK    6  A    between atoms: C_20  and  C_21
REMARK                            x       y       z     vdW  Elec       q    Type
REMARK                         _______ _______ _______ _____ _____    ______ ____
ROOT
ATOM      1  C   LIG A   1      -7.603  -2.577 124.698  0.00  0.00    -0.041 A 
ATOM      2  C   LIG A   1      -8.929  -3.071 124.638  0.00  0.00    -0.047 A 
ATOM      3  C   LIG A   1      -9.644  -3.322 123.336  0.00  0.00    +0.044 C 
ATOM      4  C   LIG A   1      -9.601  -3.369 125.825  0.00  0.00    +0.004 A 
ATOM      5  C   LIG A   1      -8.986  -3.186 127.060  0.00  0.00    +0.005 A 
ATOM      6  C   LIG A   1      -7.668  -2.707 127.162  0.00  0.00    -0.037 A 
ATOM      7  C   LIG A   1      -6.979  -2.375 125.969  0.00  0.00    -0.040 A 
ATOM      8  C   LIG A   1      -5.549  -1.874 126.022  0.00  0.00    +0.036 C 
ATOM      9  C   LIG A   1      -5.060  -1.425 127.392  0.00  0.00    +0.010 C 
ATOM     10  C   LIG A   1      -5.477  -2.440 128.457  0.00  0.00    +0.009 C 
ATOM     11  C   LIG A   1      -4.712  -2.285 129.823  0.00  0.00    -0.013 C 
ATOM     12  C   LIG A   1      -3.299  -2.902 129.672  0.00  0.00    +0.015 C 
ATOM     13  C   LIG A   1      -4.515  -0.822 130.271  0.00  0.00    +0.015 C 
ATOM     14  C   LIG A   1      -5.406  -3.056 130.931  0.00  0.00    -0.025 C 
ATOM     15  C   LIG A   1      -6.570  -3.703 130.787  0.00  0.00    -0.030 C 
ATOM     16  C   LIG A   1      -7.376  -3.692 129.519  0.00  0.00    +0.038 C 
ATOM     17  C   LIG A   1      -7.040  -2.504 128.564  0.00  0.00    +0.000 C 
ATOM     18  C   LIG A   1      -7.683  -1.215 129.139  0.00  0.00    +0.016 C 
ENDROOT
BRANCH   1  20
ATOM     19  C   LIG A   1      -6.955  -0.767 123.052  0.00  0.00    +0.009 C 
ATOM     20  C   LIG A   1      -6.870  -2.247 123.407  0.00  0.00    +0.032 C 
ENDBRANCH   1  20
TORSDOF 1
ENDMDL
MODEL 2
REMARK VINA RESULT:      -7.9      1.034      5.688
REMARK  Name = NuBBE_2498
REMARK  6 active torsions:
REMARK  status: ('A' for Active; 'I' for Inactive)
REMARK    1  A    between atoms: C_1  and  C_2
REMARK    2  A    between atoms: C_2  and  C_3
REMARK    3  A    between atoms: C_4  and  C_5
REMARK    4  A    between atoms: C_14  and  C_15
REMARK    5  A    between atoms: C_14  and  C_16
REMARK    6  A    between atoms: C_20  and  C_21
REMARK                            x       y       z     vdW  Elec       q    Type
REMARK                         _______ _______ _______ _____ _____    ______ ____
ROOT
ATOM      1  C   LIG A   1      -6.539  -2.236 128.931  0.00  0.00    -0.041 A 
ATOM      2  C   LIG A   1      -7.496  -2.992 129.649  0.00  0.00    -0.047 A 
ATOM      3  C   LIG A   1      -7.487  -3.098 131.151  0.00  0.00    +0.044 C 
ATOM      4  C   LIG A   1      -8.512  -3.648 128.950  0.00  0.00    +0.004 A 
ATOM      5  C   LIG A   1      -8.593  -3.566 127.564  0.00  0.00    +0.005 A 
ATOM      6  C   LIG A   1      -7.668  -2.817 126.814  0.00  0.00    -0.037 A 
ATOM      7  C   LIG A   1      -6.615  -2.166 127.505  0.00  0.00    -0.040 A 
ATOM      8  C   LIG A   1      -5.603  -1.329 126.747  0.00  0.00    +0.036 C 
ATOM      9  C   LIG A   1      -5.581  -1.530 125.238  0.00  0.00    +0.010 C 
ATOM     10  C   LIG A   1      -7.010  -1.551 124.690  0.00  0.00    +0.009 C 
ATOM     11  C   LIG A   1      -7.099  -1.367 123.130  0.00  0.00    -0.013 C 
ATOM     12  C   LIG A   1      -6.908   0.133 122.796  0.00  0.00    +0.015 C 
ATOM     13  C   LIG A   1      -6.022  -2.141 122.343  0.00  0.00    +0.015 C 
ATOM     14  C   LIG A   1      -8.472  -1.755 122.610  0.00  0.00    -0.025 C 
ATOM     15  C   LIG A   1      -9.446  -2.278 123.367  0.00  0.00    -0.030 C 
ATOM     16  C   LIG A   1      -9.281  -2.612 124.822  0.00  0.00    +0.038 C 
ATOM     17  C   LIG A   1      -7.796  -2.778 125.271  0.00  0.00    +0.000 C 
ATOM     18  C   LIG A   1      -7.280  -4.150 124.763  0.00  0.00    +0.016 C 
ENDROOT
BRANCH   1  20
ATOM     19  C   LIG A   1      -4.171  -2.376 129.811  0.00  0.00    +0.009 C 
ATOM     20  C   LIG A   1      -5.428  -1.524 129.688  0.00  0.00    +0.032 C 
ENDBRANCH   1  20
TORSDOF 1
ENDMDL
MODEL 3
REMARK VINA RESULT:      -7.6      1.992      5.911
REMARK  Name = NuBBE_2498
REMARK  6 active torsions:
REMARK  status: ('A' for Active; 'I' for Inactive)
REMARK    1  A    between atoms: C_1  and  C_2
REMARK    2  A    between atoms: C_2  and  C_3
REMARK    3  A    between atoms: C_4  and  C_5
REMARK    4  A    between atoms: C_14  and  C_15
REMARK    5  A    between atoms: C_14  and  C_16
REMARK    6  A    between atoms: C_20  and  C_21
REMARK                            x       y       z     vdW  Elec       q    Type
REMARK                         _______ _______ _______ _____ _____    ______ ____
ROOT
ATOM      1  C   LIG A   1      -7.595  -0.789 129.491  0.00  0.00    -0.041 A 
ATOM      2  C   LIG A   1      -7.727  -1.959 130.277  0.00  0.00    -0.047 A 
ATOM      3  C   LIG A   1      -7.693  -1.934 131.783  0.00  0.00    +0.044 C 
ATOM      4  C   LIG A   1      -7.927  -3.188 129.645  0.00  0.00    +0.004 A 
ATOM      5  C   LIG A   1      -7.997  -3.274 128.258  0.00  0.00    +0.005 A 
ATOM      6  C   LIG A   1      -7.880  -2.135 127.442  0.00  0.00    -0.037 A 
ATOM      7  C   LIG A   1      -7.652  -0.882 128.066  0.00  0.00    -0.040 A 
ATOM      8  C   LIG A   1      -7.539   0.381 127.234  0.00  0.00    +0.036 C 
ATOM      9  C   LIG A   1      -7.329   0.168 125.741  0.00  0.00    +0.010 C 
ATOM     10  C   LIG A   1      -8.277  -0.917 125.226  0.00  0.00    +0.009 C 
ATOM     11  C   LIG A   1      -8.421  -0.950 123.660  0.00  0.00    -0.013 C 
ATOM     12  C   LIG A   1      -9.368   0.197 123.225  0.00  0.00    +0.015 C 
ATOM     13  C   LIG A   1      -7.094  -0.745 122.902  0.00  0.00    +0.015 C 
ATOM     14  C   LIG A   1      -9.066  -2.243 123.196  0.00  0.00    -0.025 C 
ATOM     15  C   LIG A   1      -9.381  -3.264 124.006  0.00  0.00    -0.030 C 
ATOM     16  C   LIG A   1      -9.073  -3.284 125.476  0.00  0.00    +0.038 C 
ATOM     17  C   LIG A   1      -7.946  -2.293 125.902  0.00  0.00    +0.000 C 
ATOM     18  C   LIG A   1      -6.580  -2.889 125.474  0.00  0.00    +0.016 C 
ENDROOT
BRANCH   1  20
ATOM     19  C   LIG A   1      -8.682   1.247 130.529  0.00  0.00    +0.009 C 
ATOM     20  C   LIG A   1      -7.373   0.551 130.177  0.00  0.00    +0.032 C 
ENDBRANCH   1  20
TORSDOF 1
ENDMDL
MODEL 4
REMARK VINA RESULT:      -7.3      2.699      5.978
REMARK  Name = NuBBE_2498
REMARK  6 active torsions:
REMARK  status: ('A' for Active; 'I' for Inactive)
REMARK    1  A    between atoms: C_1  and  C_2
REMARK    2  A    between atoms: C_2  and  C_3
REMARK    3  A    between atoms: C_4  and  C_5
REMARK    4  A    between atoms: C_14  and  C_15
REMARK    5  A    between atoms: C_14  and  C_16
REMARK    6  A    between atoms: C_20  and  C_21
REMARK                            x       y       z     vdW  Elec       q    Type
REMARK                         _______ _______ _______ _____ _____    ______ ____
ROOT
ATOM      1  C   LIG A   1      -8.078  -2.028 127.676  0.00  0.00    -0.041 A 
ATOM      2  C   LIG A   1      -8.761  -3.165 127.183  0.00  0.00    -0.047 A 
ATOM      3  C   LIG A   1      -9.048  -4.373 128.036  0.00  0.00    +0.044 C 
ATOM      4  C   LIG A   1      -9.217  -3.169 125.863  0.00  0.00    +0.004 A 
ATOM      5  C   LIG A   1      -9.009  -2.073 125.032  0.00  0.00    +0.005 A 
ATOM      6  C   LIG A   1      -8.343  -0.920 125.486  0.00  0.00    -0.037 A 
ATOM      7  C   LIG A   1      -7.850  -0.909 126.815  0.00  0.00    -0.040 A 
ATOM      8  C   LIG A   1      -7.144   0.317 127.361  0.00  0.00    +0.036 C 
ATOM      9  C   LIG A   1      -6.698   1.337 126.322  0.00  0.00    +0.010 C 
ATOM     10  C   LIG A   1      -7.818   1.578 125.309  0.00  0.00    +0.009 C 
ATOM     11  C   LIG A   1      -7.621   2.870 124.433  0.00  0.00    -0.013 C 
ATOM     12  C   LIG A   1      -8.011   4.107 125.280  0.00  0.00    +0.015 C 
ATOM     13  C   LIG A   1      -6.171   3.093 123.959  0.00  0.00    +0.015 C 
ATOM     14  C   LIG A   1      -8.544   2.862 123.228  0.00  0.00    -0.025 C 
ATOM     15  C   LIG A   1      -9.350   1.843 122.901  0.00  0.00    -0.030 C 
ATOM     16  C   LIG A   1      -9.394   0.543 123.651  0.00  0.00    +0.038 C 
ATOM     17  C   LIG A   1      -8.122   0.263 124.510  0.00  0.00    +0.000 C 
ATOM     18  C   LIG A   1      -6.975  -0.173 123.562  0.00  0.00    +0.016 C 
ENDROOT
BRANCH   1  20
ATOM     19  C   LIG A   1      -6.194  -2.653 129.246  0.00  0.00    +0.009 C 
ATOM     20  C   LIG A   1      -7.575  -2.022 129.111  0.00  0.00    +0.032 C 
ENDBRANCH   1  20
TORSDOF 1
ENDMDL
MODEL 5
REMARK VINA RESULT:      -7.1      1.160      3.258
REMARK  Name = NuBBE_2498
REMARK  6 active torsions:
REMARK  status: ('A' for Active; 'I' for Inactive)
REMARK    1  A    between atoms: C_1  and  C_2
REMARK    2  A    between atoms: C_2  and  C_3
REMARK    3  A    between atoms: C_4  and  C_5
REMARK    4  A    between atoms: C_14  and  C_15
REMARK    5  A    between atoms: C_14  and  C_16
REMARK    6  A    between atoms: C_20  and  C_21
REMARK                            x       y       z     vdW  Elec       q    Type
REMARK                         _______ _______ _______ _____ _____    ______ ____
ROOT
ATOM      1  C   LIG A   1      -7.801  -1.864 125.855  0.00  0.00    -0.041 A 
ATOM      2  C   LIG A   1      -7.045  -0.981 125.047  0.00  0.00    -0.047 A 
ATOM      3  C   LIG A   1      -7.508  -0.527 123.687  0.00  0.00    +0.044 C 
ATOM      4  C   LIG A   1      -5.834  -0.480 125.530  0.00  0.00    +0.004 A 
ATOM      5  C   LIG A   1      -5.366  -0.838 126.790  0.00  0.00    +0.005 A 
ATOM      6  C   LIG A   1      -6.090  -1.705 127.627  0.00  0.00    -0.037 A 
ATOM      7  C   LIG A   1      -7.309  -2.243 127.143  0.00  0.00    -0.040 A 
ATOM      8  C   LIG A   1      -8.141  -3.165 128.014  0.00  0.00    +0.036 C 
ATOM      9  C   LIG A   1      -7.430  -3.736 129.233  0.00  0.00    +0.010 C 
ATOM     10  C   LIG A   1      -6.644  -2.634 129.946  0.00  0.00    +0.009 C 
ATOM     11  C   LIG A   1      -6.194  -3.013 131.406  0.00  0.00    -0.013 C 
ATOM     12  C   LIG A   1      -7.411  -2.868 132.353  0.00  0.00    +0.015 C 
ATOM     13  C   LIG A   1      -5.684  -4.460 131.551  0.00  0.00    +0.015 C 
ATOM     14  C   LIG A   1      -5.131  -2.056 131.917  0.00  0.00    -0.025 C 
ATOM     15  C   LIG A   1      -4.580  -1.078 131.185  0.00  0.00    -0.030 C 
ATOM     16  C   LIG A   1      -4.895  -0.845 129.736  0.00  0.00    +0.038 C 
ATOM     17  C   LIG A   1      -5.510  -2.084 129.013  0.00  0.00    +0.000 C 
ATOM     18  C   LIG A   1      -4.375  -3.105 128.737  0.00  0.00    +0.016 C 
ENDROOT
BRANCH   1  20
ATOM     19  C   LIG A   1      -8.922  -3.614 124.411  0.00  0.00    +0.009 C 
ATOM     20  C   LIG A   1      -9.119  -2.415 125.331  0.00  0.00    +0.032 C 
ENDBRANCH   1  20
TORSDOF 1
ENDMDL
MODEL 6
REMARK VINA RESULT:      -6.8      1.471      1.848
REMARK  Name = NuBBE_2498
REMARK  6 active torsions:
REMARK  status: ('A' for Active; 'I' for Inactive)
REMARK    1  A    between atoms: C_1  and  C_2
REMARK    2  A    between atoms: C_2  and  C_3
REMARK    3  A    between atoms: C_4  and  C_5
REMARK    4  A    between atoms: C_14  and  C_15
REMARK    5  A    between atoms: C_14  and  C_16
REMARK    6  A    between atoms: C_20  and  C_21
REMARK                            x       y       z     vdW  Elec       q    Type
REMARK                         _______ _______ _______ _____ _____    ______ ____
ROOT
ATOM      1  C   LIG A   1      -7.790  -1.825 126.374  0.00  0.00    -0.041 A 
ATOM      2  C   LIG A   1      -8.749  -2.831 126.103  0.00  0.00    -0.047 A 
ATOM      3  C   LIG A   1      -9.489  -2.917 124.794  0.00  0.00    +0.044 C 
ATOM      4  C   LIG A   1      -9.009  -3.805 127.070  0.00  0.00    +0.004 A 
ATOM      5  C   LIG A   1      -8.338  -3.798 128.288  0.00  0.00    +0.005 A 
ATOM      6  C   LIG A   1      -7.372  -2.823 128.592  0.00  0.00    -0.037 A 
ATOM      7  C   LIG A   1      -7.114  -1.811 127.633  0.00  0.00    -0.040 A 
ATOM      8  C   LIG A   1      -6.067  -0.748 127.902  0.00  0.00    +0.036 C 
ATOM      9  C   LIG A   1      -5.603  -0.632 129.348  0.00  0.00    +0.010 C 
ATOM     10  C   LIG A   1      -5.340  -2.023 129.928  0.00  0.00    +0.009 C 
ATOM     11  C   LIG A   1      -4.503  -2.013 131.260  0.00  0.00    -0.013 C 
ATOM     12  C   LIG A   1      -3.011  -1.791 130.906  0.00  0.00    +0.015 C 
ATOM     13  C   LIG A   1      -4.901  -0.894 132.243  0.00  0.00    +0.015 C 
ATOM     14  C   LIG A   1      -4.585  -3.353 131.969  0.00  0.00    -0.025 C 
ATOM     15  C   LIG A   1      -5.349  -4.376 131.564  0.00  0.00    -0.030 C 
ATOM     16  C   LIG A   1      -6.279  -4.305 130.387  0.00  0.00    +0.038 C 
ATOM     17  C   LIG A   1      -6.671  -2.852 129.974  0.00  0.00    +0.000 C 
ATOM     18  C   LIG A   1      -7.709  -2.315 130.993  0.00  0.00    +0.016 C 
ENDROOT
BRANCH   1  20
ATOM     19  C   LIG A   1      -8.405   0.462 125.484  0.00  0.00    +0.009 C 
ATOM     20  C   LIG A   1      -7.509  -0.760 125.325  0.00  0.00    +0.032 C 
ENDBRANCH   1  20
TORSDOF 1
ENDMDL
MODEL 7
REMARK VINA RESULT:      -6.8     15.642     18.720
REMARK  Name = NuBBE_2498
REMARK  6 active torsions:
REMARK  status: ('A' for Active; 'I' for Inactive)
REMARK    1  A    between atoms: C_1  and  C_2
REMARK    2  A    between atoms: C_2  and  C_3
REMARK    3  A    between atoms: C_4  and  C_5
REMARK    4  A    between atoms: C_14  and  C_15
REMARK    5  A    between atoms: C_14  and  C_16
REMARK    6  A    between atoms: C_20  and  C_21
REMARK                            x       y       z     vdW  Elec       q    Type
REMARK                         _______ _______ _______ _____ _____    ______ ____
ROOT
ATOM      1  C   LIG A   1      -7.113   8.916 137.871  0.00  0.00    -0.041 A 
ATOM      2  C   LIG A   1      -5.723   8.957 137.607  0.00  0.00    -0.047 A 
ATOM      3  C   LIG A   1      -5.025   7.921 136.766  0.00  0.00    +0.044 C 
ATOM      4  C   LIG A   1      -4.962  10.011 138.117  0.00  0.00    +0.004 A 
ATOM      5  C   LIG A   1      -5.553  11.016 138.877  0.00  0.00    +0.005 A 
ATOM      6  C   LIG A   1      -6.931  11.017 139.154  0.00  0.00    -0.037 A 
ATOM      7  C   LIG A   1      -7.715   9.941 138.666  0.00  0.00    -0.040 A 
ATOM      8  C   LIG A   1      -9.210   9.904 138.917  0.00  0.00    +0.036 C 
ATOM      9  C   LIG A   1      -9.720  10.858 139.989  0.00  0.00    +0.010 C 
ATOM     10  C   LIG A   1      -9.083  12.238 139.810  0.00  0.00    +0.009 C 
ATOM     11  C   LIG A   1      -9.810  13.386 140.602  0.00  0.00    -0.013 C 
ATOM     12  C   LIG A   1     -11.090  13.788 139.828  0.00  0.00    +0.015 C 
ATOM     13  C   LIG A   1     -10.256  12.985 142.023  0.00  0.00    +0.015 C 
ATOM     14  C   LIG A   1      -8.944  14.630 140.684  0.00  0.00    -0.025 C 
ATOM     15  C   LIG A   1      -7.687  14.706 140.226  0.00  0.00    -0.030 C 
ATOM     16  C   LIG A   1      -6.946  13.543 139.631  0.00  0.00    +0.038 C 
ATOM     17  C   LIG A   1      -7.531  12.151 140.023  0.00  0.00    +0.000 C 
ATOM     18  C   LIG A   1      -7.115  11.837 141.484  0.00  0.00    +0.016 C 
ENDROOT
BRANCH   1  20
ATOM     19  C   LIG A   1      -8.054   6.607 138.303  0.00  0.00    +0.009 C 
ATOM     20  C   LIG A   1      -7.945   7.767 137.321  0.00  0.00    +0.032 C 
ENDBRANCH   1  20
TORSDOF 1
ENDMDL
MODEL 8
REMARK VINA RESULT:      -6.7      3.168      5.281
REMARK  Name = NuBBE_2498
REMARK  6 active torsions:
REMARK  status: ('A' for Active; 'I' for Inactive)
REMARK    1  A    between atoms: C_1  and  C_2
REMARK    2  A    between atoms: C_2  and  C_3
REMARK    3  A    between atoms: C_4  and  C_5
REMARK    4  A    between atoms: C_14  and  C_15
REMARK    5  A    between atoms: C_14  and  C_16
REMARK    6  A    between atoms: C_20  and  C_21
REMARK                            x       y       z     vdW  Elec       q    Type
REMARK                         _______ _______ _______ _____ _____    ______ ____
ROOT
ATOM      1  C   LIG A   1      -8.773  -2.128 126.487  0.00  0.00    -0.041 A 
ATOM      2  C   LIG A   1      -8.432  -2.782 127.695  0.00  0.00    -0.047 A 
ATOM      3  C   LIG A   1      -8.783  -4.221 127.967  0.00  0.00    +0.044 C 
ATOM      4  C   LIG A   1      -7.716  -2.085 128.670  0.00  0.00    +0.004 A 
ATOM      5  C   LIG A   1      -7.336  -0.762 128.468  0.00  0.00    +0.005 A 
ATOM      6  C   LIG A   1      -7.647  -0.079 127.278  0.00  0.00    -0.037 A 
ATOM      7  C   LIG A   1      -8.396  -0.764 126.288  0.00  0.00    -0.040 A 
ATOM      8  C   LIG A   1      -8.740  -0.082 124.978  0.00  0.00    +0.036 C 
ATOM      9  C   LIG A   1      -8.555   1.430 124.955  0.00  0.00    +0.010 C 
ATOM     10  C   LIG A   1      -7.220   1.805 125.601  0.00  0.00    +0.009 C 
ATOM     11  C   LIG A   1      -6.753   3.276 125.293  0.00  0.00    -0.013 C 
ATOM     12  C   LIG A   1      -6.164   3.319 123.861  0.00  0.00    +0.015 C 
ATOM     13  C   LIG A   1      -7.887   4.319 125.342  0.00  0.00    +0.015 C 
ATOM     14  C   LIG A   1      -5.639   3.705 126.232  0.00  0.00    -0.025 C 
ATOM     15  C   LIG A   1      -5.183   2.964 127.251  0.00  0.00    -0.030 C 
ATOM     16  C   LIG A   1      -5.765   1.635 127.639  0.00  0.00    +0.038 C 
ATOM     17  C   LIG A   1      -7.216   1.400 127.116  0.00  0.00    +0.000 C 
ATOM     18  C   LIG A   1      -8.193   2.229 127.989  0.00  0.00    +0.016 C 
ENDROOT
BRANCH   1  20
ATOM     19  C   LIG A   1      -8.649  -3.596 124.429  0.00  0.00    +0.009 C 
ATOM     20  C   LIG A   1      -9.557  -2.883 125.424  0.00  0.00    +0.032 C 
ENDBRANCH   1  20
TORSDOF 1
ENDMDL
MODEL 9
REMARK VINA RESULT:      -6.7      3.006      6.307
REMARK  Name = NuBBE_2498
REMARK  6 active torsions:
REMARK  status: ('A' for Active; 'I' for Inactive)
REMARK    1  A    between atoms: C_1  and  C_2
REMARK    2  A    between atoms: C_2  and  C_3
REMARK    3  A    between atoms: C_4  and  C_5
REMARK    4  A    between atoms: C_14  and  C_15
REMARK    5  A    between atoms: C_14  and  C_16
REMARK    6  A    between atoms: C_20  and  C_21
REMARK                            x       y       z     vdW  Elec       q    Type
REMARK                         _______ _______ _______ _____ _____    ______ ____
ROOT
ATOM      1  C   LIG A   1      -8.283  -1.886 125.825  0.00  0.00    -0.041 A 
ATOM      2  C   LIG A   1      -8.075  -1.907 127.225  0.00  0.00    -0.047 A 
ATOM      3  C   LIG A   1      -8.283  -3.144 128.058  0.00  0.00    +0.044 C 
ATOM      4  C   LIG A   1      -7.632  -0.749 127.867  0.00  0.00    +0.004 A 
ATOM      5  C   LIG A   1      -7.394   0.419 127.149  0.00  0.00    +0.005 A 
ATOM      6  C   LIG A   1      -7.580   0.478 125.756  0.00  0.00    -0.037 A 
ATOM      7  C   LIG A   1      -8.054  -0.681 125.091  0.00  0.00    -0.040 A 
ATOM      8  C   LIG A   1      -8.251  -0.677 123.588  0.00  0.00    +0.036 C 
ATOM      9  C   LIG A   1      -8.259   0.696 122.929  0.00  0.00    +0.010 C 
ATOM     10  C   LIG A   1      -7.113   1.548 123.479  0.00  0.00    +0.009 C 
ATOM     11  C   LIG A   1      -6.790   2.821 122.612  0.00  0.00    -0.013 C 
ATOM     12  C   LIG A   1      -5.974   2.380 121.371  0.00  0.00    +0.015 C 
ATOM     13  C   LIG A   1      -8.039   3.557 122.087  0.00  0.00    +0.015 C 
ATOM     14  C   LIG A   1      -5.919   3.800 123.378  0.00  0.00    -0.025 C 
ATOM     15  C   LIG A   1      -5.555   3.645 124.658  0.00  0.00    -0.030 C 
ATOM     16  C   LIG A   1      -6.021   2.510 125.524  0.00  0.00    +0.038 C 
ATOM     17  C   LIG A   1      -7.319   1.811 125.011  0.00  0.00    +0.000 C 
ATOM     18  C   LIG A   1      -8.529   2.726 125.333  0.00  0.00    +0.016 C 
ENDROOT
BRANCH   1  20
ATOM     19  C   LIG A   1      -7.626  -3.964 124.539  0.00  0.00    +0.009 C 
ATOM     20  C   LIG A   1      -8.771  -3.145 125.123  0.00  0.00    +0.032 C 
ENDBRANCH   1  20
TORSDOF 1
ENDMDL
