MODEL 1
REMARK VINA RESULT:      -9.4      0.000      0.000
REMARK  Name = NuBBE_1602
REMARK  11 active torsions:
REMARK  status: ('A' for Active; 'I' for Inactive)
REMARK    1  A    between atoms: C_1  and  C_2
REMARK    2  A    between atoms: C_8  and  C_9
REMARK    3  A    between atoms: C_13  and  C_14
REMARK    4  A    between atoms: C_13  and  C_15
REMARK    5  A    between atoms: C_21  and  C_40
REMARK    6  A    between atoms: C_22  and  C_24
REMARK    7  A    between atoms: C_28  and  C_30
REMARK    8  A    between atoms: C_30  and  C_31
REMARK    9  A    between atoms: C_30  and  O_32
REMARK   10  A    between atoms: C_30  and  C_33
REMARK   11  A    between atoms: C_34  and  O_36
REMARK                            x       y       z     vdW  Elec       q    Type
REMARK                         _______ _______ _______ _____ _____    ______ ____
ROOT
ATOM      1  C   LIG A   1      -7.390   0.057 128.602  0.00  0.00    +0.016 C 
ATOM      2  C   LIG A   1      -6.606  -1.264 128.777  0.00  0.00    -0.005 C 
ATOM      3  C   LIG A   1      -6.611  -1.963 127.391  0.00  0.00    -0.063 C 
ATOM      4  C   LIG A   1      -5.607  -1.856 126.500  0.00  0.00    -0.026 C 
ATOM      5  C   LIG A   1      -5.665  -2.333 125.088  0.00  0.00    +0.032 C 
ATOM      6  C   LIG A   1      -7.090  -2.508 124.529  0.00  0.00    +0.012 C 
ATOM      7  C   LIG A   1      -7.996  -3.281 125.559  0.00  0.00    -0.021 C 
ATOM      8  C   LIG A   1      -7.538  -4.768 125.529  0.00  0.00    +0.012 C 
ATOM      9  C   LIG A   1      -9.489  -3.246 125.101  0.00  0.00    +0.015 C 
ATOM     10  C   LIG A   1      -9.651  -3.002 123.609  0.00  0.00    +0.075 C 
ATOM     11  C   LIG A   1      -9.090  -1.641 123.259  0.00  0.00    +0.139 C 
ATOM     12  C   LIG A   1      -7.747  -1.232 123.890  0.00  0.00    +0.027 C 
ATOM     13  C   LIG A   1      -6.864  -0.685 122.744  0.00  0.00    +0.019 C 
ATOM     14  C   LIG A   1      -8.022  -0.077 124.860  0.00  0.00    +0.019 C 
ATOM     15  O   LIG A   1      -9.698  -0.905 122.474  0.00  0.00    -0.297 OA
ATOM     16  C   LIG A   1      -7.905  -2.676 127.025  0.00  0.00    +0.021 C 
ATOM     17  C   LIG A   1      -8.224  -3.696 128.131  0.00  0.00    +0.009 C 
ATOM     18  C   LIG A   1      -8.365  -3.029 129.498  0.00  0.00    +0.008 C 
ATOM     19  C   LIG A   1      -7.143  -2.187 129.950  0.00  0.00    -0.020 C 
ATOM     20  C   LIG A   1      -5.883  -3.082 130.320  0.00  0.00    +0.001 C 
ATOM     21  C   LIG A   1      -4.661  -2.240 129.865  0.00  0.00    +0.005 C 
ATOM     22  C   LIG A   1      -5.199  -0.928 129.313  0.00  0.00    +0.012 C 
ATOM     23  C   LIG A   1      -7.609  -1.324 131.158  0.00  0.00    +0.012 C 
ENDROOT
BRANCH  20  24
ATOM     24  C   LIG A   1      -5.712  -3.552 131.799  0.00  0.00    +0.021 C 
ATOM     25  C   LIG A   1      -4.536  -2.869 132.531  0.00  0.00    +0.164 C 
ATOM     26  O   LIG A   1      -4.529  -3.210 133.924  0.00  0.00    -0.371 OA
ATOM     27  C   LIG A   1      -4.378  -4.613 134.229  0.00  0.00    +0.177 C 
ATOM     28  C   LIG A   1      -5.430  -5.430 133.458  0.00  0.00    +0.146 C 
ATOM     29  C   LIG A   1      -5.497  -5.066 131.974  0.00  0.00    +0.040 C 
BRANCH  27  30
ATOM     30  C   LIG A   1      -2.905  -5.131 134.135  0.00  0.00    +0.089 C 
ATOM     31  C   LIG A   1      -2.842  -6.661 134.281  0.00  0.00    +0.044 C 
ATOM     32  C   LIG A   1      -2.060  -4.498 135.249  0.00  0.00    +0.044 C 
BRANCH  30  33
ATOM     33  O   LIG A   1      -2.285  -4.774 132.897  0.00  0.00    -0.387 OA
ATOM     34  H   LIG A   1      -2.967  -4.685 132.210  0.00  0.00    +0.210 HD
ENDBRANCH  30  33
ENDBRANCH  27  30
BRANCH  28  35
ATOM     35  O   LIG A   1      -6.725  -5.173 134.034  0.00  0.00    -0.389 OA
ATOM     36  H   LIG A   1      -6.932  -4.235 133.854  0.00  0.00    +0.210 HD
ENDBRANCH  28  35
ENDBRANCH  20  24
TORSDOF 4
ENDMDL
MODEL 2
REMARK VINA RESULT:      -8.8      5.242      8.309
REMARK  Name = NuBBE_1602
REMARK  11 active torsions:
REMARK  status: ('A' for Active; 'I' for Inactive)
REMARK    1  A    between atoms: C_1  and  C_2
REMARK    2  A    between atoms: C_8  and  C_9
REMARK    3  A    between atoms: C_13  and  C_14
REMARK    4  A    between atoms: C_13  and  C_15
REMARK    5  A    between atoms: C_21  and  C_40
REMARK    6  A    between atoms: C_22  and  C_24
REMARK    7  A    between atoms: C_28  and  C_30
REMARK    8  A    between atoms: C_30  and  C_31
REMARK    9  A    between atoms: C_30  and  O_32
REMARK   10  A    between atoms: C_30  and  C_33
REMARK   11  A    between atoms: C_34  and  O_36
REMARK                            x       y       z     vdW  Elec       q    Type
REMARK                         _______ _______ _______ _____ _____    ______ ____
ROOT
ATOM      1  C   LIG A   1      -5.397   0.711 128.444  0.00  0.00    +0.016 C 
ATOM      2  C   LIG A   1      -6.893   1.097 128.498  0.00  0.00    -0.005 C 
ATOM      3  C   LIG A   1      -7.581   0.351 127.323  0.00  0.00    -0.063 C 
ATOM      4  C   LIG A   1      -8.209  -0.832 127.460  0.00  0.00    -0.026 C 
ATOM      5  C   LIG A   1      -8.693  -1.676 126.330  0.00  0.00    +0.032 C 
ATOM      6  C   LIG A   1      -8.011  -1.391 124.978  0.00  0.00    +0.012 C 
ATOM      7  C   LIG A   1      -7.948   0.159 124.708  0.00  0.00    -0.021 C 
ATOM      8  C   LIG A   1      -9.394   0.609 124.350  0.00  0.00    +0.012 C 
ATOM      9  C   LIG A   1      -7.049   0.457 123.465  0.00  0.00    +0.015 C 
ATOM     10  C   LIG A   1      -6.914  -0.732 122.526  0.00  0.00    +0.075 C 
ATOM     11  C   LIG A   1      -6.235  -1.871 123.252  0.00  0.00    +0.139 C 
ATOM     12  C   LIG A   1      -6.676  -2.172 124.695  0.00  0.00    +0.027 C 
ATOM     13  C   LIG A   1      -6.914  -3.697 124.781  0.00  0.00    +0.019 C 
ATOM     14  C   LIG A   1      -5.504  -1.828 125.621  0.00  0.00    +0.019 C 
ATOM     15  O   LIG A   1      -5.368  -2.541 122.679  0.00  0.00    -0.297 OA
ATOM     16  C   LIG A   1      -7.378   0.971 125.948  0.00  0.00    +0.021 C 
ATOM     17  C   LIG A   1      -7.862   2.431 126.000  0.00  0.00    +0.009 C 
ATOM     18  C   LIG A   1      -7.111   3.243 127.054  0.00  0.00    +0.008 C 
ATOM     19  C   LIG A   1      -7.159   2.662 128.492  0.00  0.00    -0.020 C 
ATOM     20  C   LIG A   1      -8.595   2.792 129.159  0.00  0.00    +0.001 C 
ATOM     21  C   LIG A   1      -8.739   1.513 130.026  0.00  0.00    +0.005 C 
ATOM     22  C   LIG A   1      -7.441   0.730 129.892  0.00  0.00    +0.012 C 
ATOM     23  C   LIG A   1      -6.071   3.407 129.319  0.00  0.00    +0.012 C 
ENDROOT
BRANCH  20  24
ATOM     24  C   LIG A   1      -8.913   4.069 129.999  0.00  0.00    +0.021 C 
ATOM     25  C   LIG A   1     -10.302   4.033 130.674  0.00  0.00    +0.164 C 
ATOM     26  O   LIG A   1     -10.472   5.146 131.563  0.00  0.00    -0.371 OA
ATOM     27  C   LIG A   1     -10.399   6.455 130.955  0.00  0.00    +0.177 C 
ATOM     28  C   LIG A   1      -9.097   6.580 130.143  0.00  0.00    +0.146 C 
ATOM     29  C   LIG A   1      -8.860   5.390 129.212  0.00  0.00    +0.040 C 
BRANCH  27  30
ATOM     30  C   LIG A   1     -11.709   6.891 130.221  0.00  0.00    +0.089 C 
ATOM     31  C   LIG A   1     -11.474   8.143 129.358  0.00  0.00    +0.044 C 
ATOM     32  C   LIG A   1     -12.802   7.205 131.252  0.00  0.00    +0.044 C 
BRANCH  30  33
ATOM     33  O   LIG A   1     -12.226   5.857 129.378  0.00  0.00    -0.387 OA
ATOM     34  H   LIG A   1     -11.486   5.359 128.991  0.00  0.00    +0.210 HD
ENDBRANCH  30  33
ENDBRANCH  27  30
BRANCH  28  35
ATOM     35  O   LIG A   1      -7.989   6.652 131.059  0.00  0.00    -0.389 OA
ATOM     36  H   LIG A   1      -8.137   5.963 131.735  0.00  0.00    +0.210 HD
ENDBRANCH  28  35
ENDBRANCH  20  24
TORSDOF 4
ENDMDL
MODEL 3
REMARK VINA RESULT:      -8.8      5.137      7.309
REMARK  Name = NuBBE_1602
REMARK  11 active torsions:
REMARK  status: ('A' for Active; 'I' for Inactive)
REMARK    1  A    between atoms: C_1  and  C_2
REMARK    2  A    between atoms: C_8  and  C_9
REMARK    3  A    between atoms: C_13  and  C_14
REMARK    4  A    between atoms: C_13  and  C_15
REMARK    5  A    between atoms: C_21  and  C_40
REMARK    6  A    between atoms: C_22  and  C_24
REMARK    7  A    between atoms: C_28  and  C_30
REMARK    8  A    between atoms: C_30  and  C_31
REMARK    9  A    between atoms: C_30  and  O_32
REMARK   10  A    between atoms: C_30  and  C_33
REMARK   11  A    between atoms: C_34  and  O_36
REMARK                            x       y       z     vdW  Elec       q    Type
REMARK                         _______ _______ _______ _____ _____    ______ ____
ROOT
ATOM      1  C   LIG A   1      -6.501   2.543 124.292  0.00  0.00    +0.016 C 
ATOM      2  C   LIG A   1      -6.073   2.405 125.771  0.00  0.00    -0.005 C 
ATOM      3  C   LIG A   1      -6.204   0.900 126.127  0.00  0.00    -0.063 C 
ATOM      4  C   LIG A   1      -5.176   0.032 126.080  0.00  0.00    -0.026 C 
ATOM      5  C   LIG A   1      -5.303  -1.448 126.207  0.00  0.00    +0.032 C 
ATOM      6  C   LIG A   1      -6.707  -2.000 125.897  0.00  0.00    +0.012 C 
ATOM      7  C   LIG A   1      -7.809  -1.145 126.628  0.00  0.00    -0.021 C 
ATOM      8  C   LIG A   1      -7.732  -1.512 128.138  0.00  0.00    +0.012 C 
ATOM      9  C   LIG A   1      -9.232  -1.551 126.125  0.00  0.00    +0.015 C 
ATOM     10  C   LIG A   1      -9.279  -2.949 125.528  0.00  0.00    +0.075 C 
ATOM     11  C   LIG A   1      -8.389  -3.003 124.307  0.00  0.00    +0.139 C 
ATOM     12  C   LIG A   1      -7.008  -2.329 124.390  0.00  0.00    +0.027 C 
ATOM     13  C   LIG A   1      -5.980  -3.346 123.843  0.00  0.00    +0.019 C 
ATOM     14  C   LIG A   1      -7.021  -1.123 123.444  0.00  0.00    +0.019 C 
ATOM     15  O   LIG A   1      -8.769  -3.594 123.289  0.00  0.00    -0.297 OA
ATOM     16  C   LIG A   1      -7.621   0.415 126.399  0.00  0.00    +0.021 C 
ATOM     17  C   LIG A   1      -8.219   1.276 127.525  0.00  0.00    +0.009 C 
ATOM     18  C   LIG A   1      -8.236   2.760 127.159  0.00  0.00    +0.008 C 
ATOM     19  C   LIG A   1      -6.860   3.359 126.765  0.00  0.00    -0.020 C 
ATOM     20  C   LIG A   1      -5.873   3.494 128.003  0.00  0.00    +0.001 C 
ATOM     21  C   LIG A   1      -4.467   3.208 127.411  0.00  0.00    +0.005 C 
ATOM     22  C   LIG A   1      -4.645   2.971 125.920  0.00  0.00    +0.012 C 
ATOM     23  C   LIG A   1      -7.139   4.737 126.099  0.00  0.00    +0.012 C 
ENDROOT
BRANCH  20  24
ATOM     24  C   LIG A   1      -5.872   4.829 128.812  0.00  0.00    +0.021 C 
ATOM     25  C   LIG A   1      -4.509   5.555 128.804  0.00  0.00    +0.164 C 
ATOM     26  O   LIG A   1      -4.609   6.848 129.416  0.00  0.00    -0.371 OA
ATOM     27  C   LIG A   1      -5.017   6.860 130.802  0.00  0.00    +0.177 C 
ATOM     28  C   LIG A   1      -6.320   6.058 130.968  0.00  0.00    +0.146 C 
ATOM     29  C   LIG A   1      -6.266   4.687 130.293  0.00  0.00    +0.040 C 
BRANCH  27  30
ATOM     30  C   LIG A   1      -3.868   6.518 131.806  0.00  0.00    +0.089 C 
ATOM     31  C   LIG A   1      -4.428   6.192 133.202  0.00  0.00    +0.044 C 
ATOM     32  C   LIG A   1      -2.911   7.711 131.928  0.00  0.00    +0.044 C 
BRANCH  30  33
ATOM     33  O   LIG A   1      -3.082   5.405 131.370  0.00  0.00    -0.387 OA
ATOM     34  H   LIG A   1      -3.081   5.374 130.398  0.00  0.00    +0.210 HD
ENDBRANCH  30  33
ENDBRANCH  27  30
BRANCH  28  35
ATOM     35  O   LIG A   1      -7.398   6.802 130.370  0.00  0.00    -0.389 OA
ATOM     36  H   LIG A   1      -7.333   6.666 129.405  0.00  0.00    +0.210 HD
ENDBRANCH  28  35
ENDBRANCH  20  24
TORSDOF 4
ENDMDL
MODEL 4
REMARK VINA RESULT:      -8.6      5.459      9.571
REMARK  Name = NuBBE_1602
REMARK  11 active torsions:
REMARK  status: ('A' for Active; 'I' for Inactive)
REMARK    1  A    between atoms: C_1  and  C_2
REMARK    2  A    between atoms: C_8  and  C_9
REMARK    3  A    between atoms: C_13  and  C_14
REMARK    4  A    between atoms: C_13  and  C_15
REMARK    5  A    between atoms: C_21  and  C_40
REMARK    6  A    between atoms: C_22  and  C_24
REMARK    7  A    between atoms: C_28  and  C_30
REMARK    8  A    between atoms: C_30  and  C_31
REMARK    9  A    between atoms: C_30  and  O_32
REMARK   10  A    between atoms: C_30  and  C_33
REMARK   11  A    between atoms: C_34  and  O_36
REMARK                            x       y       z     vdW  Elec       q    Type
REMARK                         _______ _______ _______ _____ _____    ______ ____
ROOT
ATOM      1  C   LIG A   1      -4.987   1.820 133.076  0.00  0.00    +0.016 C 
ATOM      2  C   LIG A   1      -6.399   1.945 132.460  0.00  0.00    -0.005 C 
ATOM      3  C   LIG A   1      -6.708   0.577 131.794  0.00  0.00    -0.063 C 
ATOM      4  C   LIG A   1      -7.405  -0.404 132.398  0.00  0.00    -0.026 C 
ATOM      5  C   LIG A   1      -7.540  -1.796 131.881  0.00  0.00    +0.032 C 
ATOM      6  C   LIG A   1      -6.446  -2.219 130.883  0.00  0.00    +0.012 C 
ATOM      7  C   LIG A   1      -6.222  -1.098 129.801  0.00  0.00    -0.021 C 
ATOM      8  C   LIG A   1      -7.451  -1.145 128.848  0.00  0.00    +0.012 C 
ATOM      9  C   LIG A   1      -4.957  -1.417 128.942  0.00  0.00    +0.015 C 
ATOM     10  C   LIG A   1      -4.586  -2.892 128.949  0.00  0.00    +0.075 C 
ATOM     11  C   LIG A   1      -4.234  -3.315 130.358  0.00  0.00    +0.139 C 
ATOM     12  C   LIG A   1      -5.132  -2.817 131.505  0.00  0.00    +0.027 C 
ATOM     13  C   LIG A   1      -5.461  -4.048 132.381  0.00  0.00    +0.019 C 
ATOM     14  C   LIG A   1      -4.306  -1.846 132.355  0.00  0.00    +0.019 C 
ATOM     15  O   LIG A   1      -3.264  -4.053 130.559  0.00  0.00    -0.297 OA
ATOM     16  C   LIG A   1      -6.043   0.343 130.445  0.00  0.00    +0.021 C 
ATOM     17  C   LIG A   1      -6.444   1.490 129.502  0.00  0.00    +0.009 C 
ATOM     18  C   LIG A   1      -6.034   2.854 130.057  0.00  0.00    +0.008 C 
ATOM     19  C   LIG A   1      -6.571   3.178 131.476  0.00  0.00    -0.020 C 
ATOM     20  C   LIG A   1      -8.137   3.445 131.493  0.00  0.00    +0.001 C 
ATOM     21  C   LIG A   1      -8.616   2.866 132.851  0.00  0.00    +0.005 C 
ATOM     22  C   LIG A   1      -7.385   2.344 133.577  0.00  0.00    +0.012 C 
ATOM     23  C   LIG A   1      -5.772   4.408 131.994  0.00  0.00    +0.012 C 
ENDROOT
BRANCH  20  24
ATOM     24  C   LIG A   1      -8.645   4.910 131.305  0.00  0.00    +0.021 C 
ATOM     25  C   LIG A   1      -9.994   5.189 132.004  0.00  0.00    +0.164 C 
ATOM     26  O   LIG A   1     -10.328   6.582 131.942  0.00  0.00    -0.371 OA
ATOM     27  C   LIG A   1     -10.485   7.134 130.616  0.00  0.00    +0.177 C 
ATOM     28  C   LIG A   1      -9.240   6.818 129.769  0.00  0.00    +0.146 C 
ATOM     29  C   LIG A   1      -8.828   5.347 129.842  0.00  0.00    +0.040 C 
BRANCH  27  30
ATOM     30  C   LIG A   1     -11.865   6.815 129.952  0.00  0.00    +0.089 C 
ATOM     31  C   LIG A   1     -12.050   7.604 128.645  0.00  0.00    +0.044 C 
ATOM     32  C   LIG A   1     -13.003   7.186 130.914  0.00  0.00    +0.044 C 
BRANCH  30  33
ATOM     33  O   LIG A   1     -12.014   5.423 129.659  0.00  0.00    -0.387 OA
ATOM     34  H   LIG A   1     -12.924   5.147 129.863  0.00  0.00    +0.210 HD
ENDBRANCH  30  33
ENDBRANCH  27  30
BRANCH  28  35
ATOM     35  O   LIG A   1      -8.140   7.609 130.256  0.00  0.00    -0.389 OA
ATOM     36  H   LIG A   1      -7.566   7.008 130.769  0.00  0.00    +0.210 HD
ENDBRANCH  28  35
ENDBRANCH  20  24
TORSDOF 4
ENDMDL
MODEL 5
REMARK VINA RESULT:      -8.3      4.091      8.916
REMARK  Name = NuBBE_1602
REMARK  11 active torsions:
REMARK  status: ('A' for Active; 'I' for Inactive)
REMARK    1  A    between atoms: C_1  and  C_2
REMARK    2  A    between atoms: C_8  and  C_9
REMARK    3  A    between atoms: C_13  and  C_14
REMARK    4  A    between atoms: C_13  and  C_15
REMARK    5  A    between atoms: C_21  and  C_40
REMARK    6  A    between atoms: C_22  and  C_24
REMARK    7  A    between atoms: C_28  and  C_30
REMARK    8  A    between atoms: C_30  and  C_31
REMARK    9  A    between atoms: C_30  and  O_32
REMARK   10  A    between atoms: C_30  and  C_33
REMARK   11  A    between atoms: C_34  and  O_36
REMARK                            x       y       z     vdW  Elec       q    Type
REMARK                         _______ _______ _______ _____ _____    ______ ____
ROOT
ATOM      1  C   LIG A   1      -4.912   0.242 131.826  0.00  0.00    +0.016 C 
ATOM      2  C   LIG A   1      -5.644   0.632 130.521  0.00  0.00    -0.005 C 
ATOM      3  C   LIG A   1      -6.350   1.986 130.803  0.00  0.00    -0.063 C 
ATOM      4  C   LIG A   1      -5.819   3.181 130.487  0.00  0.00    -0.026 C 
ATOM      5  C   LIG A   1      -6.362   4.499 130.926  0.00  0.00    +0.032 C 
ATOM      6  C   LIG A   1      -7.268   4.436 132.170  0.00  0.00    +0.012 C 
ATOM      7  C   LIG A   1      -8.314   3.268 132.032  0.00  0.00    -0.021 C 
ATOM      8  C   LIG A   1      -9.369   3.732 130.987  0.00  0.00    +0.012 C 
ATOM      9  C   LIG A   1      -9.067   3.050 133.384  0.00  0.00    +0.015 C 
ATOM     10  C   LIG A   1      -9.045   4.277 134.284  0.00  0.00    +0.075 C 
ATOM     11  C   LIG A   1      -7.617   4.596 134.664  0.00  0.00    +0.139 C 
ATOM     12  C   LIG A   1      -6.544   4.522 133.562  0.00  0.00    +0.027 C 
ATOM     13  C   LIG A   1      -5.713   5.823 133.660  0.00  0.00    +0.019 C 
ATOM     14  C   LIG A   1      -5.616   3.348 133.895  0.00  0.00    +0.019 C 
ATOM     15  O   LIG A   1      -7.343   4.923 135.824  0.00  0.00    -0.297 OA
ATOM     16  C   LIG A   1      -7.640   1.894 131.605  0.00  0.00    +0.021 C 
ATOM     17  C   LIG A   1      -8.600   0.943 130.871  0.00  0.00    +0.009 C 
ATOM     18  C   LIG A   1      -7.996  -0.450 130.692  0.00  0.00    +0.008 C 
ATOM     19  C   LIG A   1      -6.624  -0.487 129.969  0.00  0.00    -0.020 C 
ATOM     20  C   LIG A   1      -6.737  -0.144 128.422  0.00  0.00    +0.001 C 
ATOM     21  C   LIG A   1      -5.431   0.630 128.098  0.00  0.00    +0.005 C 
ATOM     22  C   LIG A   1      -4.610   0.681 129.378  0.00  0.00    +0.012 C 
ATOM     23  C   LIG A   1      -6.027  -1.904 130.202  0.00  0.00    +0.012 C 
ENDROOT
BRANCH  20  24
ATOM     24  C   LIG A   1      -6.950  -1.317 127.413  0.00  0.00    +0.021 C 
ATOM     25  C   LIG A   1      -5.821  -1.442 126.365  0.00  0.00    +0.164 C 
ATOM     26  O   LIG A   1      -5.980  -2.628 125.575  0.00  0.00    -0.371 OA
ATOM     27  C   LIG A   1      -7.199  -2.715 124.806  0.00  0.00    +0.177 C 
ATOM     28  C   LIG A   1      -8.413  -2.488 125.725  0.00  0.00    +0.146 C 
ATOM     29  C   LIG A   1      -8.263  -1.252 126.614  0.00  0.00    +0.040 C 
BRANCH  27  30
ATOM     30  C   LIG A   1      -7.178  -1.884 123.481  0.00  0.00    +0.089 C 
ATOM     31  C   LIG A   1      -8.425  -2.167 122.626  0.00  0.00    +0.044 C 
ATOM     32  C   LIG A   1      -5.930  -2.244 122.663  0.00  0.00    +0.044 C 
BRANCH  30  33
ATOM     33  O   LIG A   1      -7.114  -0.476 123.728  0.00  0.00    -0.387 OA
ATOM     34  H   LIG A   1      -7.936  -0.059 123.418  0.00  0.00    +0.210 HD
ENDBRANCH  30  33
ENDBRANCH  27  30
BRANCH  28  35
ATOM     35  O   LIG A   1      -8.560  -3.634 126.584  0.00  0.00    -0.389 OA
ATOM     36  H   LIG A   1      -7.664  -3.995 126.729  0.00  0.00    +0.210 HD
ENDBRANCH  28  35
ENDBRANCH  20  24
TORSDOF 4
ENDMDL
MODEL 6
REMARK VINA RESULT:      -8.2      2.403      4.410
REMARK  Name = NuBBE_1602
REMARK  11 active torsions:
REMARK  status: ('A' for Active; 'I' for Inactive)
REMARK    1  A    between atoms: C_1  and  C_2
REMARK    2  A    between atoms: C_8  and  C_9
REMARK    3  A    between atoms: C_13  and  C_14
REMARK    4  A    between atoms: C_13  and  C_15
REMARK    5  A    between atoms: C_21  and  C_40
REMARK    6  A    between atoms: C_22  and  C_24
REMARK    7  A    between atoms: C_28  and  C_30
REMARK    8  A    between atoms: C_30  and  C_31
REMARK    9  A    between atoms: C_30  and  O_32
REMARK   10  A    between atoms: C_30  and  C_33
REMARK   11  A    between atoms: C_34  and  O_36
REMARK                            x       y       z     vdW  Elec       q    Type
REMARK                         _______ _______ _______ _____ _____    ______ ____
ROOT
ATOM      1  C   LIG A   1      -6.042  -2.207 125.682  0.00  0.00    +0.016 C 
ATOM      2  C   LIG A   1      -6.735  -1.766 126.991  0.00  0.00    -0.005 C 
ATOM      3  C   LIG A   1      -7.462  -0.431 126.674  0.00  0.00    -0.063 C 
ATOM      4  C   LIG A   1      -8.763  -0.355 126.334  0.00  0.00    -0.026 C 
ATOM      5  C   LIG A   1      -9.440   0.870 125.821  0.00  0.00    +0.032 C 
ATOM      6  C   LIG A   1      -8.490   1.922 125.218  0.00  0.00    +0.012 C 
ATOM      7  C   LIG A   1      -7.256   2.159 126.166  0.00  0.00    -0.021 C 
ATOM      8  C   LIG A   1      -7.777   2.973 127.385  0.00  0.00    +0.012 C 
ATOM      9  C   LIG A   1      -6.181   3.037 125.448  0.00  0.00    +0.015 C 
ATOM     10  C   LIG A   1      -6.754   3.879 124.318  0.00  0.00    +0.075 C 
ATOM     11  C   LIG A   1      -7.312   2.968 123.247  0.00  0.00    +0.139 C 
ATOM     12  C   LIG A   1      -8.139   1.750 123.696  0.00  0.00    +0.027 C 
ATOM     13  C   LIG A   1      -9.427   1.745 122.841  0.00  0.00    +0.019 C 
ATOM     14  C   LIG A   1      -7.339   0.491 123.344  0.00  0.00    +0.019 C 
ATOM     15  O   LIG A   1      -7.116   3.224 122.054  0.00  0.00    -0.297 OA
ATOM     16  C   LIG A   1      -6.571   0.802 126.625  0.00  0.00    +0.021 C 
ATOM     17  C   LIG A   1      -5.826   0.914 127.966  0.00  0.00    +0.009 C 
ATOM     18  C   LIG A   1      -4.984  -0.328 128.256  0.00  0.00    +0.008 C 
ATOM     19  C   LIG A   1      -5.761  -1.671 128.240  0.00  0.00    -0.020 C 
ATOM     20  C   LIG A   1      -6.740  -1.829 129.482  0.00  0.00    +0.001 C 
ATOM     21  C   LIG A   1      -7.962  -2.602 128.918  0.00  0.00    +0.005 C 
ATOM     22  C   LIG A   1      -7.669  -2.902 127.456  0.00  0.00    +0.012 C 
ATOM     23  C   LIG A   1      -4.700  -2.808 128.196  0.00  0.00    +0.012 C 
ENDROOT
BRANCH  20  24
ATOM     24  C   LIG A   1      -6.198  -2.516 130.775  0.00  0.00    +0.021 C 
ATOM     25  C   LIG A   1      -7.305  -3.147 131.648  0.00  0.00    +0.164 C 
ATOM     26  O   LIG A   1      -6.741  -3.905 132.727  0.00  0.00    -0.371 OA
ATOM     27  C   LIG A   1      -5.924  -3.162 133.659  0.00  0.00    +0.177 C 
ATOM     28  C   LIG A   1      -4.839  -2.382 132.895  0.00  0.00    +0.146 C 
ATOM     29  C   LIG A   1      -5.397  -1.593 131.710  0.00  0.00    +0.040 C 
BRANCH  27  30
ATOM     30  C   LIG A   1      -6.742  -2.345 134.712  0.00  0.00    +0.089 C 
ATOM     31  C   LIG A   1      -5.897  -2.045 135.962  0.00  0.00    +0.044 C 
ATOM     32  C   LIG A   1      -7.982  -3.142 135.139  0.00  0.00    +0.044 C 
BRANCH  30  33
ATOM     33  O   LIG A   1      -7.215  -1.103 134.184  0.00  0.00    -0.387 OA
ATOM     34  H   LIG A   1      -7.863  -0.719 134.798  0.00  0.00    +0.210 HD
ENDBRANCH  30  33
ENDBRANCH  27  30
BRANCH  28  35
ATOM     35  O   LIG A   1      -3.872  -3.319 132.385  0.00  0.00    -0.389 OA
ATOM     36  H   LIG A   1      -3.691  -3.957 133.102  0.00  0.00    +0.210 HD
ENDBRANCH  28  35
ENDBRANCH  20  24
TORSDOF 4
ENDMDL
MODEL 7
REMARK VINA RESULT:      -8.1      1.233      2.119
REMARK  Name = NuBBE_1602
REMARK  11 active torsions:
REMARK  status: ('A' for Active; 'I' for Inactive)
REMARK    1  A    between atoms: C_1  and  C_2
REMARK    2  A    between atoms: C_8  and  C_9
REMARK    3  A    between atoms: C_13  and  C_14
REMARK    4  A    between atoms: C_13  and  C_15
REMARK    5  A    between atoms: C_21  and  C_40
REMARK    6  A    between atoms: C_22  and  C_24
REMARK    7  A    between atoms: C_28  and  C_30
REMARK    8  A    between atoms: C_30  and  C_31
REMARK    9  A    between atoms: C_30  and  O_32
REMARK   10  A    between atoms: C_30  and  C_33
REMARK   11  A    between atoms: C_34  and  O_36
REMARK                            x       y       z     vdW  Elec       q    Type
REMARK                         _______ _______ _______ _____ _____    ______ ____
ROOT
ATOM      1  C   LIG A   1      -7.655  -0.040 128.743  0.00  0.00    +0.016 C 
ATOM      2  C   LIG A   1      -6.559  -1.117 128.568  0.00  0.00    -0.005 C 
ATOM      3  C   LIG A   1      -6.513  -1.453 127.053  0.00  0.00    -0.063 C 
ATOM      4  C   LIG A   1      -5.647  -0.886 126.192  0.00  0.00    -0.026 C 
ATOM      5  C   LIG A   1      -5.709  -1.021 124.708  0.00  0.00    +0.032 C 
ATOM      6  C   LIG A   1      -7.091  -1.423 124.158  0.00  0.00    +0.012 C 
ATOM      7  C   LIG A   1      -7.687  -2.621 124.987  0.00  0.00    -0.021 C 
ATOM      8  C   LIG A   1      -6.885  -3.890 124.581  0.00  0.00    +0.012 C 
ATOM      9  C   LIG A   1      -9.178  -2.867 124.589  0.00  0.00    +0.015 C 
ATOM     10  C   LIG A   1      -9.523  -2.333 123.207  0.00  0.00    +0.075 C 
ATOM     11  C   LIG A   1      -9.344  -0.832 123.190  0.00  0.00    +0.139 C 
ATOM     12  C   LIG A   1      -8.092  -0.247 123.869  0.00  0.00    +0.027 C 
ATOM     13  C   LIG A   1      -7.472   0.759 122.872  0.00  0.00    +0.019 C 
ATOM     14  C   LIG A   1      -8.556   0.540 125.100  0.00  0.00    +0.019 C 
ATOM     15  O   LIG A   1     -10.178  -0.115 122.625  0.00  0.00    -0.297 OA
ATOM     16  C   LIG A   1      -7.621  -2.370 126.554  0.00  0.00    +0.021 C 
ATOM     17  C   LIG A   1      -7.585  -3.666 127.382  0.00  0.00    +0.009 C 
ATOM     18  C   LIG A   1      -7.765  -3.394 128.875  0.00  0.00    +0.008 C 
ATOM     19  C   LIG A   1      -6.752  -2.394 129.491  0.00  0.00    -0.020 C 
ATOM     20  C   LIG A   1      -5.285  -2.994 129.597  0.00  0.00    +0.001 C 
ATOM     21  C   LIG A   1      -4.349  -1.784 129.334  0.00  0.00    +0.005 C 
ATOM     22  C   LIG A   1      -5.236  -0.564 129.136  0.00  0.00    +0.012 C 
ATOM     23  C   LIG A   1      -7.309  -1.985 130.885  0.00  0.00    +0.012 C 
ENDROOT
BRANCH  20  24
ATOM     24  C   LIG A   1      -4.877  -3.735 130.910  0.00  0.00    +0.021 C 
ATOM     25  C   LIG A   1      -5.907  -4.791 131.368  0.00  0.00    +0.164 C 
ATOM     26  O   LIG A   1      -5.407  -5.553 132.475  0.00  0.00    -0.371 OA
ATOM     27  C   LIG A   1      -5.104  -4.801 133.671  0.00  0.00    +0.177 C 
ATOM     28  C   LIG A   1      -4.165  -3.630 133.327  0.00  0.00    +0.146 C 
ATOM     29  C   LIG A   1      -4.645  -2.817 132.123  0.00  0.00    +0.040 C 
BRANCH  27  30
ATOM     30  C   LIG A   1      -6.357  -4.444 134.534  0.00  0.00    +0.089 C 
ATOM     31  C   LIG A   1      -5.999  -3.451 135.653  0.00  0.00    +0.044 C 
ATOM     32  C   LIG A   1      -6.928  -5.718 135.173  0.00  0.00    +0.044 C 
BRANCH  30  33
ATOM     33  O   LIG A   1      -7.408  -3.873 133.750  0.00  0.00    -0.387 OA
ATOM     34  H   LIG A   1      -8.264  -4.206 134.069  0.00  0.00    +0.210 HD
ENDBRANCH  30  33
ENDBRANCH  27  30
BRANCH  28  35
ATOM     35  O   LIG A   1      -2.865  -4.161 133.011  0.00  0.00    -0.389 OA
ATOM     36  H   LIG A   1      -2.601  -3.771 132.155  0.00  0.00    +0.210 HD
ENDBRANCH  28  35
ENDBRANCH  20  24
TORSDOF 4
ENDMDL
MODEL 8
REMARK VINA RESULT:      -8.1      4.319      5.935
REMARK  Name = NuBBE_1602
REMARK  11 active torsions:
REMARK  status: ('A' for Active; 'I' for Inactive)
REMARK    1  A    between atoms: C_1  and  C_2
REMARK    2  A    between atoms: C_8  and  C_9
REMARK    3  A    between atoms: C_13  and  C_14
REMARK    4  A    between atoms: C_13  and  C_15
REMARK    5  A    between atoms: C_21  and  C_40
REMARK    6  A    between atoms: C_22  and  C_24
REMARK    7  A    between atoms: C_28  and  C_30
REMARK    8  A    between atoms: C_30  and  C_31
REMARK    9  A    between atoms: C_30  and  O_32
REMARK   10  A    between atoms: C_30  and  C_33
REMARK   11  A    between atoms: C_34  and  O_36
REMARK                            x       y       z     vdW  Elec       q    Type
REMARK                         _______ _______ _______ _____ _____    ______ ____
ROOT
ATOM      1  C   LIG A   1      -7.573   2.834 125.573  0.00  0.00    +0.016 C 
ATOM      2  C   LIG A   1      -6.621   2.369 126.699  0.00  0.00    -0.005 C 
ATOM      3  C   LIG A   1      -6.388   0.850 126.475  0.00  0.00    -0.063 C 
ATOM      4  C   LIG A   1      -5.331   0.350 125.809  0.00  0.00    -0.026 C 
ATOM      5  C   LIG A   1      -5.180  -1.074 125.393  0.00  0.00    +0.032 C 
ATOM      6  C   LIG A   1      -6.502  -1.861 125.311  0.00  0.00    +0.012 C 
ATOM      7  C   LIG A   1      -7.378  -1.603 126.594  0.00  0.00    -0.021 C 
ATOM      8  C   LIG A   1      -6.703  -2.382 127.760  0.00  0.00    +0.012 C 
ATOM      9  C   LIG A   1      -8.809  -2.202 126.403  0.00  0.00    +0.015 C 
ATOM     10  C   LIG A   1      -8.860  -3.306 125.359  0.00  0.00    +0.075 C 
ATOM     11  C   LIG A   1      -8.477  -2.739 124.010  0.00  0.00    +0.139 C 
ATOM     12  C   LIG A   1      -7.277  -1.777 123.947  0.00  0.00    +0.027 C 
ATOM     13  C   LIG A   1      -6.379  -2.259 122.784  0.00  0.00    +0.019 C 
ATOM     14  C   LIG A   1      -7.813  -0.389 123.578  0.00  0.00    +0.019 C 
ATOM     15  O   LIG A   1      -9.108  -3.067 122.999  0.00  0.00    -0.297 OA
ATOM     16  C   LIG A   1      -7.520  -0.058 126.934  0.00  0.00    +0.021 C 
ATOM     17  C   LIG A   1      -7.790   0.220 128.423  0.00  0.00    +0.009 C 
ATOM     18  C   LIG A   1      -8.160   1.681 128.672  0.00  0.00    +0.008 C 
ATOM     19  C   LIG A   1      -7.127   2.720 128.161  0.00  0.00    -0.020 C 
ATOM     20  C   LIG A   1      -5.789   2.728 129.019  0.00  0.00    +0.001 C 
ATOM     21  C   LIG A   1      -4.668   3.029 127.989  0.00  0.00    +0.005 C 
ATOM     22  C   LIG A   1      -5.339   3.223 126.638  0.00  0.00    +0.012 C 
ATOM     23  C   LIG A   1      -7.831   4.107 128.180  0.00  0.00    +0.012 C 
ENDROOT
BRANCH  20  24
ATOM     24  C   LIG A   1      -5.694   3.697 130.240  0.00  0.00    +0.021 C 
ATOM     25  C   LIG A   1      -4.304   4.352 130.400  0.00  0.00    +0.164 C 
ATOM     26  O   LIG A   1      -4.321   5.352 131.428  0.00  0.00    -0.371 OA
ATOM     27  C   LIG A   1      -4.657   4.888 132.754  0.00  0.00    +0.177 C 
ATOM     28  C   LIG A   1      -5.982   4.105 132.712  0.00  0.00    +0.146 C 
ATOM     29  C   LIG A   1      -6.017   3.055 131.600  0.00  0.00    +0.040 C 
BRANCH  27  30
ATOM     30  C   LIG A   1      -3.474   4.194 133.505  0.00  0.00    +0.089 C 
ATOM     31  C   LIG A   1      -3.657   4.277 135.030  0.00  0.00    +0.044 C 
ATOM     32  C   LIG A   1      -2.150   4.876 133.132  0.00  0.00    +0.044 C 
BRANCH  30  33
ATOM     33  O   LIG A   1      -3.340   2.816 133.145  0.00  0.00    -0.387 OA
ATOM     34  H   LIG A   1      -2.576   2.436 133.609  0.00  0.00    +0.210 HD
ENDBRANCH  30  33
ENDBRANCH  27  30
BRANCH  28  35
ATOM     35  O   LIG A   1      -7.057   5.033 132.476  0.00  0.00    -0.389 OA
ATOM     36  H   LIG A   1      -7.518   4.732 131.670  0.00  0.00    +0.210 HD
ENDBRANCH  28  35
ENDBRANCH  20  24
TORSDOF 4
ENDMDL
MODEL 9
REMARK VINA RESULT:      -8.1      8.850     11.335
REMARK  Name = NuBBE_1602
REMARK  11 active torsions:
REMARK  status: ('A' for Active; 'I' for Inactive)
REMARK    1  A    between atoms: C_1  and  C_2
REMARK    2  A    between atoms: C_8  and  C_9
REMARK    3  A    between atoms: C_13  and  C_14
REMARK    4  A    between atoms: C_13  and  C_15
REMARK    5  A    between atoms: C_21  and  C_40
REMARK    6  A    between atoms: C_22  and  C_24
REMARK    7  A    between atoms: C_28  and  C_30
REMARK    8  A    between atoms: C_30  and  C_31
REMARK    9  A    between atoms: C_30  and  O_32
REMARK   10  A    between atoms: C_30  and  C_33
REMARK   11  A    between atoms: C_34  and  O_36
REMARK                            x       y       z     vdW  Elec       q    Type
REMARK                         _______ _______ _______ _____ _____    ______ ____
ROOT
ATOM      1  C   LIG A   1      -5.002   2.642 133.515  0.00  0.00    +0.016 C 
ATOM      2  C   LIG A   1      -5.794   3.960 133.674  0.00  0.00    -0.005 C 
ATOM      3  C   LIG A   1      -5.688   4.702 132.314  0.00  0.00    -0.063 C 
ATOM      4  C   LIG A   1      -6.626   4.626 131.352  0.00  0.00    -0.026 C 
ATOM      5  C   LIG A   1      -6.467   5.146 129.963  0.00  0.00    +0.032 C 
ATOM      6  C   LIG A   1      -5.006   5.332 129.512  0.00  0.00    +0.012 C 
ATOM      7  C   LIG A   1      -4.174   6.069 130.627  0.00  0.00    -0.021 C 
ATOM      8  C   LIG A   1      -4.624   7.558 130.611  0.00  0.00    +0.012 C 
ATOM      9  C   LIG A   1      -2.651   6.042 130.276  0.00  0.00    +0.015 C 
ATOM     10  C   LIG A   1      -2.385   5.842 128.791  0.00  0.00    +0.075 C 
ATOM     11  C   LIG A   1      -2.922   4.496 128.361  0.00  0.00    +0.139 C 
ATOM     12  C   LIG A   1      -4.308   4.073 128.882  0.00  0.00    +0.027 C 
ATOM     13  C   LIG A   1      -5.108   3.567 127.660  0.00  0.00    +0.019 C 
ATOM     14  C   LIG A   1      -4.106   2.888 129.832  0.00  0.00    +0.019 C 
ATOM     15  O   LIG A   1      -2.263   3.781 127.598  0.00  0.00    -0.297 OA
ATOM     16  C   LIG A   1      -4.370   5.420 132.063  0.00  0.00    +0.021 C 
ATOM     17  C   LIG A   1      -4.127   6.404 133.220  0.00  0.00    +0.009 C 
ATOM     18  C   LIG A   1      -4.086   5.695 134.573  0.00  0.00    +0.008 C 
ATOM     19  C   LIG A   1      -5.339   4.844 134.911  0.00  0.00    -0.020 C 
ATOM     20  C   LIG A   1      -6.619   5.733 135.218  0.00  0.00    +0.001 C 
ATOM     21  C   LIG A   1      -7.808   4.911 134.651  0.00  0.00    +0.005 C 
ATOM     22  C   LIG A   1      -7.236   3.615 134.099  0.00  0.00    +0.012 C 
ATOM     23  C   LIG A   1      -4.961   3.942 136.121  0.00  0.00    +0.012 C 
ENDROOT
BRANCH  20  24
ATOM     24  C   LIG A   1      -6.894   6.159 136.694  0.00  0.00    +0.021 C 
ATOM     25  C   LIG A   1      -8.346   6.623 136.943  0.00  0.00    +0.164 C 
ATOM     26  O   LIG A   1      -8.587   6.841 138.340  0.00  0.00    -0.371 OA
ATOM     27  C   LIG A   1      -7.771   7.852 138.969  0.00  0.00    +0.177 C 
ATOM     28  C   LIG A   1      -6.283   7.568 138.694  0.00  0.00    +0.146 C 
ATOM     29  C   LIG A   1      -5.993   7.291 137.218  0.00  0.00    +0.040 C 
BRANCH  27  30
ATOM     30  C   LIG A   1      -8.250   9.316 138.700  0.00  0.00    +0.089 C 
ATOM     31  C   LIG A   1      -7.826  10.260 139.839  0.00  0.00    +0.044 C 
ATOM     32  C   LIG A   1      -9.780   9.349 138.580  0.00  0.00    +0.044 C 
BRANCH  30  33
ATOM     33  O   LIG A   1      -7.732   9.837 137.473  0.00  0.00    -0.387 OA
ATOM     34  H   LIG A   1      -7.749  10.809 137.504  0.00  0.00    +0.210 HD
ENDBRANCH  30  33
ENDBRANCH  27  30
BRANCH  28  35
ATOM     35  O   LIG A   1      -5.890   6.406 139.447  0.00  0.00    -0.389 OA
ATOM     36  H   LIG A   1      -6.074   6.602 140.386  0.00  0.00    +0.210 HD
ENDBRANCH  28  35
ENDBRANCH  20  24
TORSDOF 4
ENDMDL
