MODEL 1
REMARK VINA RESULT:      -6.6      0.000      0.000
REMARK  Name = NuBBE_1528
REMARK  3 active torsions:
REMARK  status: ('A' for Active; 'I' for Inactive)
REMARK    1  A    between atoms: C_1  and  C_2
REMARK    2  A    between atoms: C_3  and  C_14
REMARK    3  A    between atoms: C_9  and  C_10
REMARK                            x       y       z     vdW  Elec       q    Type
REMARK                         _______ _______ _______ _____ _____    ______ ____
ROOT
ATOM      1  C   LIG A   1      -5.483  -2.913 123.533  0.00  0.00    +0.020 C 
ATOM      2  C   LIG A   1      -6.379  -1.863 124.240  0.00  0.00    +0.041 C 
ATOM      3  C   LIG A   1      -7.097  -1.019 123.174  0.00  0.00    +0.220 C 
ATOM      4  O   LIG A   1      -8.170  -1.869 122.709  0.00  0.00    -0.452 OA
ATOM      5  C   LIG A   1      -8.527  -2.754 123.686  0.00  0.00    +0.336 C 
ATOM      6  O   LIG A   1      -9.443  -3.547 123.615  0.00  0.00    -0.245 OA
ATOM      7  C   LIG A   1      -7.580  -2.556 124.815  0.00  0.00    +0.045 C 
ATOM      8  C   LIG A   1      -7.803  -2.776 126.123  0.00  0.00    -0.062 C 
ATOM      9  C   LIG A   1      -9.002  -3.464 126.709  0.00  0.00    +0.040 C 
ATOM     10  C   LIG A   1      -6.822  -2.221 127.131  0.00  0.00    +0.031 C 
ATOM     11  C   LIG A   1      -6.179  -0.923 126.629  0.00  0.00    +0.005 C 
ATOM     12  C   LIG A   1      -5.504  -1.114 125.270  0.00  0.00    +0.016 C 
ENDROOT
BRANCH   3  13
ATOM     13  C   LIG A   1      -7.613   0.327 123.600  0.00  0.00    +0.031 A 
ATOM     14  C   LIG A   1      -6.991   1.591 123.372  0.00  0.00    +0.048 A 
ATOM     15  C   LIG A   1      -7.812   2.541 123.931  0.00  0.00    +0.195 A 
ATOM     16  O   LIG A   1      -8.904   1.955 124.481  0.00  0.00    -0.471 OA
ATOM     17  C   LIG A   1      -8.786   0.621 124.269  0.00  0.00    +0.202 A 
ENDBRANCH   3  13
TORSDOF 1
ENDMDL
MODEL 2
REMARK VINA RESULT:      -6.5      2.007      3.992
REMARK  Name = NuBBE_1528
REMARK  3 active torsions:
REMARK  status: ('A' for Active; 'I' for Inactive)
REMARK    1  A    between atoms: C_1  and  C_2
REMARK    2  A    between atoms: C_3  and  C_14
REMARK    3  A    between atoms: C_9  and  C_10
REMARK                            x       y       z     vdW  Elec       q    Type
REMARK                         _______ _______ _______ _____ _____    ______ ____
ROOT
ATOM      1  C   LIG A   1      -5.456  -2.579 122.942  0.00  0.00    +0.020 C 
ATOM      2  C   LIG A   1      -6.529  -2.350 124.037  0.00  0.00    +0.041 C 
ATOM      3  C   LIG A   1      -5.916  -1.512 125.171  0.00  0.00    +0.220 C 
ATOM      4  O   LIG A   1      -5.913  -0.162 124.656  0.00  0.00    -0.452 OA
ATOM      5  C   LIG A   1      -6.903  -0.010 123.727  0.00  0.00    +0.336 C 
ATOM      6  O   LIG A   1      -7.191   1.030 123.171  0.00  0.00    -0.245 OA
ATOM      7  C   LIG A   1      -7.527  -1.346 123.539  0.00  0.00    +0.045 C 
ATOM      8  C   LIG A   1      -8.792  -1.618 123.171  0.00  0.00    -0.062 C 
ATOM      9  C   LIG A   1      -9.799  -0.621 122.675  0.00  0.00    +0.040 C 
ATOM     10  C   LIG A   1      -9.310  -3.028 123.338  0.00  0.00    +0.031 C 
ATOM     11  C   LIG A   1      -8.647  -3.730 124.528  0.00  0.00    +0.005 C 
ATOM     12  C   LIG A   1      -7.122  -3.728 124.410  0.00  0.00    +0.016 C 
ENDROOT
BRANCH   3  13
ATOM     13  C   LIG A   1      -6.589  -1.582 126.513  0.00  0.00    +0.031 A 
ATOM     14  C   LIG A   1      -6.146  -2.318 127.654  0.00  0.00    +0.048 A 
ATOM     15  C   LIG A   1      -7.063  -2.089 128.651  0.00  0.00    +0.195 A 
ATOM     16  O   LIG A   1      -8.038  -1.255 128.213  0.00  0.00    -0.471 OA
ATOM     17  C   LIG A   1      -7.742  -0.942 126.927  0.00  0.00    +0.202 A 
ENDBRANCH   3  13
TORSDOF 1
ENDMDL
MODEL 3
REMARK VINA RESULT:      -6.4      2.043      3.513
REMARK  Name = NuBBE_1528
REMARK  3 active torsions:
REMARK  status: ('A' for Active; 'I' for Inactive)
REMARK    1  A    between atoms: C_1  and  C_2
REMARK    2  A    between atoms: C_3  and  C_14
REMARK    3  A    between atoms: C_9  and  C_10
REMARK                            x       y       z     vdW  Elec       q    Type
REMARK                         _______ _______ _______ _____ _____    ______ ____
ROOT
ATOM      1  C   LIG A   1      -7.884  -2.207 127.870  0.00  0.00    +0.020 C 
ATOM      2  C   LIG A   1      -8.174  -1.815 126.398  0.00  0.00    +0.041 C 
ATOM      3  C   LIG A   1      -8.338  -0.289 126.309  0.00  0.00    +0.220 C 
ATOM      4  O   LIG A   1      -6.985   0.219 126.354  0.00  0.00    -0.452 OA
ATOM      5  C   LIG A   1      -6.114  -0.720 125.878  0.00  0.00    +0.336 C 
ATOM      6  O   LIG A   1      -4.921  -0.558 125.728  0.00  0.00    -0.245 OA
ATOM      7  C   LIG A   1      -6.909  -1.945 125.601  0.00  0.00    +0.045 C 
ATOM      8  C   LIG A   1      -6.655  -2.902 124.690  0.00  0.00    -0.062 C 
ATOM      9  C   LIG A   1      -5.395  -3.038 123.885  0.00  0.00    +0.040 C 
ATOM     10  C   LIG A   1      -7.743  -3.896 124.357  0.00  0.00    +0.031 C 
ATOM     11  C   LIG A   1      -9.135  -3.272 124.505  0.00  0.00    +0.005 C 
ATOM     12  C   LIG A   1      -9.349  -2.687 125.902  0.00  0.00    +0.016 C 
ENDROOT
BRANCH   3  13
ATOM     13  C   LIG A   1      -9.084   0.251 125.122  0.00  0.00    +0.031 A 
ATOM     14  C   LIG A   1      -8.640   0.258 123.765  0.00  0.00    +0.048 A 
ATOM     15  C   LIG A   1      -9.639   0.843 123.026  0.00  0.00    +0.195 A 
ATOM     16  O   LIG A   1     -10.677   1.190 123.827  0.00  0.00    -0.471 OA
ATOM     17  C   LIG A   1     -10.344   0.820 125.088  0.00  0.00    +0.202 A 
ENDBRANCH   3  13
TORSDOF 1
ENDMDL
MODEL 4
REMARK VINA RESULT:      -6.3      1.963      4.348
REMARK  Name = NuBBE_1528
REMARK  3 active torsions:
REMARK  status: ('A' for Active; 'I' for Inactive)
REMARK    1  A    between atoms: C_1  and  C_2
REMARK    2  A    between atoms: C_3  and  C_14
REMARK    3  A    between atoms: C_9  and  C_10
REMARK                            x       y       z     vdW  Elec       q    Type
REMARK                         _______ _______ _______ _____ _____    ______ ____
ROOT
ATOM      1  C   LIG A   1      -6.190   0.870 125.436  0.00  0.00    +0.020 C 
ATOM      2  C   LIG A   1      -6.719  -0.576 125.618  0.00  0.00    +0.041 C 
ATOM      3  C   LIG A   1      -7.754  -0.591 126.755  0.00  0.00    +0.220 C 
ATOM      4  O   LIG A   1      -8.952  -0.050 126.153  0.00  0.00    -0.452 OA
ATOM      5  C   LIG A   1      -8.947  -0.277 124.806  0.00  0.00    +0.336 C 
ATOM      6  O   LIG A   1      -9.850  -0.001 124.044  0.00  0.00    -0.245 OA
ATOM      7  C   LIG A   1      -7.640  -0.905 124.479  0.00  0.00    +0.045 C 
ATOM      8  C   LIG A   1      -7.363  -1.751 123.470  0.00  0.00    -0.062 C 
ATOM      9  C   LIG A   1      -8.279  -2.090 122.329  0.00  0.00    +0.040 C 
ATOM     10  C   LIG A   1      -6.058  -2.512 123.497  0.00  0.00    +0.031 C 
ATOM     11  C   LIG A   1      -5.605  -2.795 124.934  0.00  0.00    +0.005 C 
ATOM     12  C   LIG A   1      -5.495  -1.511 125.756  0.00  0.00    +0.016 C 
ENDROOT
BRANCH   3  13
ATOM     13  C   LIG A   1      -8.025  -1.914 127.415  0.00  0.00    +0.031 A 
ATOM     14  C   LIG A   1      -8.791  -2.994 126.882  0.00  0.00    +0.048 A 
ATOM     15  C   LIG A   1      -8.769  -3.995 127.823  0.00  0.00    +0.195 A 
ATOM     16  O   LIG A   1      -8.035  -3.616 128.898  0.00  0.00    -0.471 OA
ATOM     17  C   LIG A   1      -7.578  -2.365 128.643  0.00  0.00    +0.202 A 
ENDBRANCH   3  13
TORSDOF 1
ENDMDL
MODEL 5
REMARK VINA RESULT:      -6.2      2.254      4.305
REMARK  Name = NuBBE_1528
REMARK  3 active torsions:
REMARK  status: ('A' for Active; 'I' for Inactive)
REMARK    1  A    between atoms: C_1  and  C_2
REMARK    2  A    between atoms: C_3  and  C_14
REMARK    3  A    between atoms: C_9  and  C_10
REMARK                            x       y       z     vdW  Elec       q    Type
REMARK                         _______ _______ _______ _____ _____    ______ ____
ROOT
ATOM      1  C   LIG A   1      -8.938   0.198 126.354  0.00  0.00    +0.020 C 
ATOM      2  C   LIG A   1      -8.104  -1.063 126.008  0.00  0.00    +0.041 C 
ATOM      3  C   LIG A   1      -6.827  -0.631 125.267  0.00  0.00    +0.220 C 
ATOM      4  O   LIG A   1      -5.959  -0.138 126.312  0.00  0.00    -0.452 OA
ATOM      5  C   LIG A   1      -6.268  -0.733 127.502  0.00  0.00    +0.336 C 
ATOM      6  O   LIG A   1      -5.667  -0.573 128.545  0.00  0.00    -0.245 OA
ATOM      7  C   LIG A   1      -7.463  -1.583 127.262  0.00  0.00    +0.045 C 
ATOM      8  C   LIG A   1      -7.819  -2.706 127.913  0.00  0.00    -0.062 C 
ATOM      9  C   LIG A   1      -7.182  -3.236 129.164  0.00  0.00    +0.040 C 
ATOM     10  C   LIG A   1      -8.895  -3.583 127.315  0.00  0.00    +0.031 C 
ATOM     11  C   LIG A   1      -8.894  -3.504 125.784  0.00  0.00    +0.005 C 
ATOM     12  C   LIG A   1      -9.039  -2.063 125.291  0.00  0.00    +0.016 C 
ENDROOT
BRANCH   3  13
ATOM     13  C   LIG A   1      -6.138  -1.671 124.430  0.00  0.00    +0.031 A 
ATOM     14  C   LIG A   1      -5.343  -2.758 124.902  0.00  0.00    +0.048 A 
ATOM     15  C   LIG A   1      -4.918  -3.447 123.792  0.00  0.00    +0.195 A 
ATOM     16  O   LIG A   1      -5.402  -2.870 122.664  0.00  0.00    -0.471 OA
ATOM     17  C   LIG A   1      -6.147  -1.806 123.054  0.00  0.00    +0.202 A 
ENDBRANCH   3  13
TORSDOF 1
ENDMDL
MODEL 6
REMARK VINA RESULT:      -6.1      1.887      4.501
REMARK  Name = NuBBE_1528
REMARK  3 active torsions:
REMARK  status: ('A' for Active; 'I' for Inactive)
REMARK    1  A    between atoms: C_1  and  C_2
REMARK    2  A    between atoms: C_3  and  C_14
REMARK    3  A    between atoms: C_9  and  C_10
REMARK                            x       y       z     vdW  Elec       q    Type
REMARK                         _______ _______ _______ _____ _____    ______ ____
ROOT
ATOM      1  C   LIG A   1      -9.488   0.650 126.182  0.00  0.00    +0.020 C 
ATOM      2  C   LIG A   1      -8.397   0.419 125.105  0.00  0.00    +0.041 C 
ATOM      3  C   LIG A   1      -8.475  -1.038 124.618  0.00  0.00    +0.220 C 
ATOM      4  O   LIG A   1      -9.606  -1.053 123.717  0.00  0.00    -0.452 OA
ATOM      5  C   LIG A   1      -9.798   0.190 123.181  0.00  0.00    +0.336 C 
ATOM      6  O   LIG A   1     -10.626   0.471 122.340  0.00  0.00    -0.245 OA
ATOM      7  C   LIG A   1      -8.817   1.097 123.833  0.00  0.00    +0.045 C 
ATOM      8  C   LIG A   1      -8.265   2.213 123.324  0.00  0.00    -0.062 C 
ATOM      9  C   LIG A   1      -8.675   2.896 122.052  0.00  0.00    +0.040 C 
ATOM     10  C   LIG A   1      -7.067   2.814 124.021  0.00  0.00    +0.031 C 
ATOM     11  C   LIG A   1      -6.221   1.736 124.709  0.00  0.00    +0.005 C 
ATOM     12  C   LIG A   1      -7.050   0.903 125.687  0.00  0.00    +0.016 C 
ENDROOT
BRANCH   3  13
ATOM     13  C   LIG A   1      -7.249  -1.607 123.962  0.00  0.00    +0.031 A 
ATOM     14  C   LIG A   1      -6.188  -2.315 124.604  0.00  0.00    +0.048 A 
ATOM     15  C   LIG A   1      -5.285  -2.646 123.622  0.00  0.00    +0.195 A 
ATOM     16  O   LIG A   1      -5.716  -2.202 122.416  0.00  0.00    -0.471 OA
ATOM     17  C   LIG A   1      -6.906  -1.586 122.623  0.00  0.00    +0.202 A 
ENDBRANCH   3  13
TORSDOF 1
ENDMDL
MODEL 7
REMARK VINA RESULT:      -5.7      8.180     10.141
REMARK  Name = NuBBE_1528
REMARK  3 active torsions:
REMARK  status: ('A' for Active; 'I' for Inactive)
REMARK    1  A    between atoms: C_1  and  C_2
REMARK    2  A    between atoms: C_3  and  C_14
REMARK    3  A    between atoms: C_9  and  C_10
REMARK                            x       y       z     vdW  Elec       q    Type
REMARK                         _______ _______ _______ _____ _____    ______ ____
ROOT
ATOM      1  C   LIG A   1      -9.012   3.306 133.614  0.00  0.00    +0.020 C 
ATOM      2  C   LIG A   1      -9.207   4.124 132.312  0.00  0.00    +0.041 C 
ATOM      3  C   LIG A   1      -9.749   5.518 132.672  0.00  0.00    +0.220 C 
ATOM      4  O   LIG A   1      -8.589   6.238 133.150  0.00  0.00    -0.452 OA
ATOM      5  C   LIG A   1      -7.453   5.723 132.593  0.00  0.00    +0.336 C 
ATOM      6  O   LIG A   1      -6.333   6.164 132.749  0.00  0.00    -0.245 OA
ATOM      7  C   LIG A   1      -7.862   4.541 131.791  0.00  0.00    +0.045 C 
ATOM      8  C   LIG A   1      -7.258   4.038 130.699  0.00  0.00    -0.062 C 
ATOM      9  C   LIG A   1      -5.915   4.451 130.168  0.00  0.00    +0.040 C 
ATOM     10  C   LIG A   1      -8.002   3.028 129.857  0.00  0.00    +0.031 C 
ATOM     11  C   LIG A   1      -9.515   3.267 129.903  0.00  0.00    +0.005 C 
ATOM     12  C   LIG A   1     -10.045   3.265 131.338  0.00  0.00    +0.016 C 
ENDROOT
BRANCH   3  13
ATOM     13  C   LIG A   1     -10.455   6.279 131.586  0.00  0.00    +0.031 A 
ATOM     14  C   LIG A   1      -9.850   6.938 130.473  0.00  0.00    +0.048 A 
ATOM     15  C   LIG A   1     -10.872   7.497 129.744  0.00  0.00    +0.195 A 
ATOM     16  O   LIG A   1     -12.068   7.223 130.320  0.00  0.00    -0.471 OA
ATOM     17  C   LIG A   1     -11.813   6.477 131.424  0.00  0.00    +0.202 A 
ENDBRANCH   3  13
TORSDOF 1
ENDMDL
MODEL 8
REMARK VINA RESULT:      -5.5      1.897      4.812
REMARK  Name = NuBBE_1528
REMARK  3 active torsions:
REMARK  status: ('A' for Active; 'I' for Inactive)
REMARK    1  A    between atoms: C_1  and  C_2
REMARK    2  A    between atoms: C_3  and  C_14
REMARK    3  A    between atoms: C_9  and  C_10
REMARK                            x       y       z     vdW  Elec       q    Type
REMARK                         _______ _______ _______ _____ _____    ______ ____
ROOT
ATOM      1  C   LIG A   1      -8.516   1.616 128.021  0.00  0.00    +0.020 C 
ATOM      2  C   LIG A   1      -7.917   0.999 126.730  0.00  0.00    +0.041 C 
ATOM      3  C   LIG A   1      -9.066   0.550 125.811  0.00  0.00    +0.220 C 
ATOM      4  O   LIG A   1      -9.538   1.776 125.207  0.00  0.00    -0.452 OA
ATOM      5  C   LIG A   1      -8.533   2.700 125.168  0.00  0.00    +0.336 C 
ATOM      6  O   LIG A   1      -8.609   3.798 124.656  0.00  0.00    -0.245 OA
ATOM      7  C   LIG A   1      -7.369   2.102 125.872  0.00  0.00    +0.045 C 
ATOM      8  C   LIG A   1      -6.064   2.354 125.664  0.00  0.00    -0.062 C 
ATOM      9  C   LIG A   1      -5.506   3.451 124.805  0.00  0.00    +0.040 C 
ATOM     10  C   LIG A   1      -5.039   1.420 126.264  0.00  0.00    +0.031 C 
ATOM     11  C   LIG A   1      -5.577  -0.012 126.365  0.00  0.00    +0.005 C 
ATOM     12  C   LIG A   1      -6.886  -0.070 127.154  0.00  0.00    +0.016 C 
ENDROOT
BRANCH   3  13
ATOM     13  C   LIG A   1      -8.743  -0.483 124.769  0.00  0.00    +0.031 A 
ATOM     14  C   LIG A   1      -8.915  -1.895 124.884  0.00  0.00    +0.048 A 
ATOM     15  C   LIG A   1      -8.493  -2.442 123.696  0.00  0.00    +0.195 A 
ATOM     16  O   LIG A   1      -8.081  -1.468 122.848  0.00  0.00    -0.471 OA
ATOM     17  C   LIG A   1      -8.245  -0.286 123.494  0.00  0.00    +0.202 A 
ENDBRANCH   3  13
TORSDOF 1
ENDMDL
MODEL 9
REMARK VINA RESULT:      -5.5      7.688      9.917
REMARK  Name = NuBBE_1528
REMARK  3 active torsions:
REMARK  status: ('A' for Active; 'I' for Inactive)
REMARK    1  A    between atoms: C_1  and  C_2
REMARK    2  A    between atoms: C_3  and  C_14
REMARK    3  A    between atoms: C_9  and  C_10
REMARK                            x       y       z     vdW  Elec       q    Type
REMARK                         _______ _______ _______ _____ _____    ______ ____
ROOT
ATOM      1  C   LIG A   1     -11.002   6.111 132.311  0.00  0.00    +0.020 C 
ATOM      2  C   LIG A   1      -9.868   5.078 132.084  0.00  0.00    +0.041 C 
ATOM      3  C   LIG A   1     -10.354   4.012 131.088  0.00  0.00    +0.220 C 
ATOM      4  O   LIG A   1     -10.253   4.657 129.798  0.00  0.00    -0.452 OA
ATOM      5  C   LIG A   1      -9.292   5.627 129.830  0.00  0.00    +0.336 C 
ATOM      6  O   LIG A   1      -8.932   6.290 128.880  0.00  0.00    -0.245 OA
ATOM      7  C   LIG A   1      -8.802   5.704 131.231  0.00  0.00    +0.045 C 
ATOM      8  C   LIG A   1      -7.584   6.083 131.658  0.00  0.00    -0.062 C 
ATOM      9  C   LIG A   1      -6.511   6.706 130.813  0.00  0.00    +0.040 C 
ATOM     10  C   LIG A   1      -7.193   5.796 133.089  0.00  0.00    +0.031 C 
ATOM     11  C   LIG A   1      -7.869   4.522 133.609  0.00  0.00    +0.005 C 
ATOM     12  C   LIG A   1      -9.390   4.592 133.471  0.00  0.00    +0.016 C 
ENDROOT
BRANCH   3  13
ATOM     13  C   LIG A   1      -9.636   2.692 131.096  0.00  0.00    +0.031 A 
ATOM     14  C   LIG A   1      -9.886   1.588 131.965  0.00  0.00    +0.048 A 
ATOM     15  C   LIG A   1      -8.999   0.599 131.613  0.00  0.00    +0.195 A 
ATOM     16  O   LIG A   1      -8.222   1.008 130.580  0.00  0.00    -0.471 OA
ATOM     17  C   LIG A   1      -8.617   2.266 130.263  0.00  0.00    +0.202 A 
ENDBRANCH   3  13
TORSDOF 1
ENDMDL
