MODEL 1
REMARK VINA RESULT:      -9.1      0.000      0.000
REMARK  Name = NuBBE_1258
REMARK  1 active torsions:
REMARK  status: ('A' for Active; 'I' for Inactive)
REMARK    1  A    between atoms: C_16  and  O_17
REMARK                            x       y       z     vdW  Elec       q    Type
REMARK                         _______ _______ _______ _____ _____    ______ ____
ROOT
ATOM      1  O   LIG A   1     -11.998   6.103 132.156  0.00  0.00    -0.267 OA
ATOM      2  C   LIG A   1     -11.093   6.467 131.405  0.00  0.00    +0.262 A 
ATOM      3  C   LIG A   1     -11.424   7.095 130.111  0.00  0.00    +0.065 A 
ATOM      4  C   LIG A   1     -10.382   7.664 129.380  0.00  0.00    +0.079 A 
ATOM      5  C   LIG A   1     -10.680   8.374 128.216  0.00  0.00    +0.028 A 
ATOM      6  C   LIG A   1     -12.002   8.500 127.781  0.00  0.00    +0.002 A 
ATOM      7  C   LIG A   1     -13.032   7.885 128.492  0.00  0.00    +0.001 A 
ATOM      8  C   LIG A   1     -12.747   7.179 129.661  0.00  0.00    +0.015 A 
ATOM      9  N   LIG A   1      -9.043   7.556 129.771  0.00  0.00    -0.227 NA
ATOM     10  C   LIG A   1      -8.790   6.934 130.872  0.00  0.00    +0.161 A 
ATOM     11  C   LIG A   1      -7.424   6.770 131.278  0.00  0.00    +0.087 A 
ATOM     12  C   LIG A   1      -6.997   5.989 132.330  0.00  0.00    -0.010 A 
ATOM     13  C   LIG A   1      -5.583   6.086 132.398  0.00  0.00    +0.004 A 
ATOM     14  C   LIG A   1      -4.590   5.539 133.235  0.00  0.00    +0.014 A 
ATOM     15  C   LIG A   1      -3.243   5.855 133.005  0.00  0.00    +0.046 A 
ATOM     16  C   LIG A   1      -2.892   6.699 131.957  0.00  0.00    +0.119 A 
ATOM     17  C   LIG A   1      -3.848   7.252 131.108  0.00  0.00    +0.071 A 
ATOM     18  C   LIG A   1      -5.186   6.930 131.354  0.00  0.00    +0.051 A 
ATOM     19  N   LIG A   1      -6.323   7.320 130.684  0.00  0.00    -0.351 N 
ATOM     20  H   LIG A   1      -6.354   7.920 129.871  0.00  0.00    +0.166 HD
ATOM     21  C   LIG A   1      -7.987   5.221 133.133  0.00  0.00    +0.059 C 
ATOM     22  C   LIG A   1      -9.358   5.924 133.064  0.00  0.00    +0.131 C 
ATOM     23  N   LIG A   1      -9.744   6.374 131.712  0.00  0.00    -0.291 N 
ENDROOT
BRANCH  16  24
ATOM     24  O   LIG A   1      -1.586   7.019 131.716  0.00  0.00    -0.507 OA
ATOM     25  H   LIG A   1      -1.470   7.971 131.861  0.00  0.00    +0.292 HD
ENDBRANCH  16  24
TORSDOF 1
ENDMDL
MODEL 2
REMARK VINA RESULT:      -8.6      1.720      7.022
REMARK  Name = NuBBE_1258
REMARK  1 active torsions:
REMARK  status: ('A' for Active; 'I' for Inactive)
REMARK    1  A    between atoms: C_16  and  O_17
REMARK                            x       y       z     vdW  Elec       q    Type
REMARK                         _______ _______ _______ _____ _____    ______ ____
ROOT
ATOM      1  O   LIG A   1      -5.723   4.757 133.816  0.00  0.00    -0.267 OA
ATOM      2  C   LIG A   1      -5.962   5.580 132.932  0.00  0.00    +0.262 A 
ATOM      3  C   LIG A   1      -4.851   6.318 132.301  0.00  0.00    +0.065 A 
ATOM      4  C   LIG A   1      -5.141   7.096 131.181  0.00  0.00    +0.079 A 
ATOM      5  C   LIG A   1      -4.092   7.703 130.488  0.00  0.00    +0.028 A 
ATOM      6  C   LIG A   1      -2.772   7.547 130.920  0.00  0.00    +0.002 A 
ATOM      7  C   LIG A   1      -2.497   6.809 132.070  0.00  0.00    +0.001 A 
ATOM      8  C   LIG A   1      -3.536   6.191 132.767  0.00  0.00    +0.015 A 
ATOM      9  N   LIG A   1      -6.446   7.288 130.717  0.00  0.00    -0.227 NA
ATOM     10  C   LIG A   1      -7.398   6.684 131.343  0.00  0.00    +0.161 A 
ATOM     11  C   LIG A   1      -8.752   6.895 130.917  0.00  0.00    +0.087 A 
ATOM     12  C   LIG A   1      -9.872   6.456 131.590  0.00  0.00    -0.010 A 
ATOM     13  C   LIG A   1     -11.012   6.870 130.852  0.00  0.00    +0.004 A 
ATOM     14  C   LIG A   1     -12.405   6.729 131.015  0.00  0.00    +0.014 A 
ATOM     15  C   LIG A   1     -13.270   7.288 130.064  0.00  0.00    +0.046 A 
ATOM     16  C   LIG A   1     -12.757   7.979 128.973  0.00  0.00    +0.119 A 
ATOM     17  C   LIG A   1     -11.386   8.143 128.784  0.00  0.00    +0.071 A 
ATOM     18  C   LIG A   1     -10.537   7.575 129.740  0.00  0.00    +0.051 A 
ATOM     19  N   LIG A   1      -9.163   7.584 129.812  0.00  0.00    -0.351 N 
ATOM     20  H   LIG A   1      -8.539   8.032 129.155  0.00  0.00    +0.166 HD
ATOM     21  C   LIG A   1      -9.725   5.713 132.871  0.00  0.00    +0.059 C 
ATOM     22  C   LIG A   1      -8.355   5.006 132.899  0.00  0.00    +0.131 C 
ATOM     23  N   LIG A   1      -7.229   5.841 132.435  0.00  0.00    -0.291 N 
ENDROOT
BRANCH  16  24
ATOM     24  O   LIG A   1     -13.583   8.532 128.035  0.00  0.00    -0.507 OA
ATOM     25  H   LIG A   1     -13.096   9.228 127.567  0.00  0.00    +0.292 HD
ENDBRANCH  16  24
TORSDOF 1
ENDMDL
MODEL 3
REMARK VINA RESULT:      -8.6      8.575     10.516
REMARK  Name = NuBBE_1258
REMARK  1 active torsions:
REMARK  status: ('A' for Active; 'I' for Inactive)
REMARK    1  A    between atoms: C_16  and  O_17
REMARK                            x       y       z     vdW  Elec       q    Type
REMARK                         _______ _______ _______ _____ _____    ______ ____
ROOT
ATOM      1  O   LIG A   1      -7.013   1.053 126.728  0.00  0.00    -0.267 OA
ATOM      2  C   LIG A   1      -6.346   1.944 126.201  0.00  0.00    +0.262 A 
ATOM      3  C   LIG A   1      -5.253   2.584 126.958  0.00  0.00    +0.065 A 
ATOM      4  C   LIG A   1      -4.403   3.447 126.268  0.00  0.00    +0.079 A 
ATOM      5  C   LIG A   1      -3.287   3.967 126.925  0.00  0.00    +0.028 A 
ATOM      6  C   LIG A   1      -3.034   3.642 128.260  0.00  0.00    +0.002 A 
ATOM      7  C   LIG A   1      -3.917   2.817 128.957  0.00  0.00    +0.001 A 
ATOM      8  C   LIG A   1      -5.031   2.285 128.308  0.00  0.00    +0.015 A 
ATOM      9  N   LIG A   1      -4.621   3.809 124.935  0.00  0.00    -0.227 NA
ATOM     10  C   LIG A   1      -5.633   3.284 124.330  0.00  0.00    +0.161 A 
ATOM     11  C   LIG A   1      -5.907   3.668 122.976  0.00  0.00    +0.087 A 
ATOM     12  C   LIG A   1      -7.039   3.324 122.267  0.00  0.00    -0.010 A 
ATOM     13  C   LIG A   1      -6.935   3.903 120.975  0.00  0.00    +0.004 A 
ATOM     14  C   LIG A   1      -7.748   3.911 119.824  0.00  0.00    +0.014 A 
ATOM     15  C   LIG A   1      -7.325   4.613 118.686  0.00  0.00    +0.046 A 
ATOM     16  C   LIG A   1      -6.115   5.299 118.698  0.00  0.00    +0.119 A 
ATOM     17  C   LIG A   1      -5.291   5.316 119.821  0.00  0.00    +0.071 A 
ATOM     18  C   LIG A   1      -5.726   4.607 120.945  0.00  0.00    +0.051 A 
ATOM     19  N   LIG A   1      -5.129   4.457 122.176  0.00  0.00    -0.351 N 
ATOM     20  H   LIG A   1      -4.250   4.866 122.461  0.00  0.00    +0.166 HD
ATOM     21  C   LIG A   1      -8.098   2.503 122.914  0.00  0.00    +0.059 C 
ATOM     22  C   LIG A   1      -7.470   1.645 124.032  0.00  0.00    +0.131 C 
ATOM     23  N   LIG A   1      -6.516   2.372 124.894  0.00  0.00    -0.291 N 
ENDROOT
BRANCH  16  24
ATOM     24  O   LIG A   1      -5.685   5.989 117.601  0.00  0.00    -0.507 OA
ATOM     25  H   LIG A   1      -4.733   6.154 117.694  0.00  0.00    +0.292 HD
ENDBRANCH  16  24
TORSDOF 1
ENDMDL
MODEL 4
REMARK VINA RESULT:      -8.0      3.759      3.936
REMARK  Name = NuBBE_1258
REMARK  1 active torsions:
REMARK  status: ('A' for Active; 'I' for Inactive)
REMARK    1  A    between atoms: C_16  and  O_17
REMARK                            x       y       z     vdW  Elec       q    Type
REMARK                         _______ _______ _______ _____ _____    ______ ____
ROOT
ATOM      1  O   LIG A   1     -10.890   6.504 132.471  0.00  0.00    -0.267 OA
ATOM      2  C   LIG A   1     -10.601   6.321 131.287  0.00  0.00    +0.262 A 
ATOM      3  C   LIG A   1     -11.271   7.116 130.240  0.00  0.00    +0.065 A 
ATOM      4  C   LIG A   1     -10.784   7.017 128.938  0.00  0.00    +0.079 A 
ATOM      5  C   LIG A   1     -11.314   7.850 127.951  0.00  0.00    +0.028 A 
ATOM      6  C   LIG A   1     -12.330   8.758 128.260  0.00  0.00    +0.002 A 
ATOM      7  C   LIG A   1     -12.846   8.814 129.555  0.00  0.00    +0.001 A 
ATOM      8  C   LIG A   1     -12.318   7.992 130.551  0.00  0.00    +0.015 A 
ATOM      9  N   LIG A   1      -9.775   6.118 128.579  0.00  0.00    -0.227 NA
ATOM     10  C   LIG A   1      -9.266   5.387 129.513  0.00  0.00    +0.161 A 
ATOM     11  C   LIG A   1      -8.259   4.425 129.169  0.00  0.00    +0.087 A 
ATOM     12  C   LIG A   1      -7.753   3.467 130.022  0.00  0.00    -0.010 A 
ATOM     13  C   LIG A   1      -6.789   2.712 129.305  0.00  0.00    +0.004 A 
ATOM     14  C   LIG A   1      -5.945   1.627 129.617  0.00  0.00    +0.014 A 
ATOM     15  C   LIG A   1      -5.093   1.110 128.631  0.00  0.00    +0.046 A 
ATOM     16  C   LIG A   1      -5.085   1.661 127.355  0.00  0.00    +0.119 A 
ATOM     17  C   LIG A   1      -5.911   2.730 127.010  0.00  0.00    +0.071 A 
ATOM     18  C   LIG A   1      -6.751   3.236 128.007  0.00  0.00    +0.051 A 
ATOM     19  N   LIG A   1      -7.661   4.266 127.951  0.00  0.00    -0.351 N 
ATOM     20  H   LIG A   1      -7.870   4.827 127.136  0.00  0.00    +0.166 HD
ATOM     21  C   LIG A   1      -8.266   3.370 131.416  0.00  0.00    +0.059 C 
ATOM     22  C   LIG A   1      -8.800   4.746 131.863  0.00  0.00    +0.131 C 
ATOM     23  N   LIG A   1      -9.629   5.434 130.853  0.00  0.00    -0.291 N 
ENDROOT
BRANCH  16  24
ATOM     24  O   LIG A   1      -4.264   1.172 126.379  0.00  0.00    -0.507 OA
ATOM     25  H   LIG A   1      -4.656   1.374 125.515  0.00  0.00    +0.292 HD
ENDBRANCH  16  24
TORSDOF 1
ENDMDL
MODEL 5
REMARK VINA RESULT:      -8.0      2.648      3.599
REMARK  Name = NuBBE_1258
REMARK  1 active torsions:
REMARK  status: ('A' for Active; 'I' for Inactive)
REMARK    1  A    between atoms: C_16  and  O_17
REMARK                            x       y       z     vdW  Elec       q    Type
REMARK                         _______ _______ _______ _____ _____    ______ ____
ROOT
ATOM      1  O   LIG A   1      -9.165   5.707 128.287  0.00  0.00    -0.267 OA
ATOM      2  C   LIG A   1      -9.517   6.023 129.424  0.00  0.00    +0.262 A 
ATOM      3  C   LIG A   1     -10.869   6.573 129.644  0.00  0.00    +0.065 A 
ATOM      4  C   LIG A   1     -11.296   6.739 130.961  0.00  0.00    +0.079 A 
ATOM      5  C   LIG A   1     -12.612   7.136 131.201  0.00  0.00    +0.028 A 
ATOM      6  C   LIG A   1     -13.485   7.381 130.137  0.00  0.00    +0.002 A 
ATOM      7  C   LIG A   1     -13.033   7.261 128.823  0.00  0.00    +0.001 A 
ATOM      8  C   LIG A   1     -11.722   6.857 128.571  0.00  0.00    +0.015 A 
ATOM      9  N   LIG A   1     -10.457   6.515 132.057  0.00  0.00    -0.227 NA
ATOM     10  C   LIG A   1      -9.257   6.105 131.818  0.00  0.00    +0.161 A 
ATOM     11  C   LIG A   1      -8.359   5.907 132.919  0.00  0.00    +0.087 A 
ATOM     12  C   LIG A   1      -7.011   5.640 132.805  0.00  0.00    -0.010 A 
ATOM     13  C   LIG A   1      -6.480   5.521 134.116  0.00  0.00    +0.004 A 
ATOM     14  C   LIG A   1      -5.202   5.257 134.648  0.00  0.00    +0.014 A 
ATOM     15  C   LIG A   1      -5.030   5.215 136.039  0.00  0.00    +0.046 A 
ATOM     16  C   LIG A   1      -6.112   5.436 136.885  0.00  0.00    +0.119 A 
ATOM     17  C   LIG A   1      -7.387   5.705 136.392  0.00  0.00    +0.071 A 
ATOM     18  C   LIG A   1      -7.541   5.739 135.003  0.00  0.00    +0.051 A 
ATOM     19  N   LIG A   1      -8.666   5.982 134.248  0.00  0.00    -0.351 N 
ATOM     20  H   LIG A   1      -9.587   6.191 134.609  0.00  0.00    +0.166 HD
ATOM     21  C   LIG A   1      -6.383   5.554 131.459  0.00  0.00    +0.059 C 
ATOM     22  C   LIG A   1      -7.448   5.141 130.422  0.00  0.00    +0.131 C 
ATOM     23  N   LIG A   1      -8.735   5.852 130.555  0.00  0.00    -0.291 N 
ENDROOT
BRANCH  16  24
ATOM     24  O   LIG A   1      -5.965   5.400 138.243  0.00  0.00    -0.507 OA
ATOM     25  H   LIG A   1      -5.632   6.261 138.540  0.00  0.00    +0.292 HD
ENDBRANCH  16  24
TORSDOF 1
ENDMDL
MODEL 6
REMARK VINA RESULT:      -7.9     10.001     10.385
REMARK  Name = NuBBE_1258
REMARK  1 active torsions:
REMARK  status: ('A' for Active; 'I' for Inactive)
REMARK    1  A    between atoms: C_16  and  O_17
REMARK                            x       y       z     vdW  Elec       q    Type
REMARK                         _______ _______ _______ _____ _____    ______ ____
ROOT
ATOM      1  O   LIG A   1      -9.786  -3.207 126.051  0.00  0.00    -0.267 OA
ATOM      2  C   LIG A   1      -8.585  -2.938 126.097  0.00  0.00    +0.262 A 
ATOM      3  C   LIG A   1      -7.861  -2.611 124.853  0.00  0.00    +0.065 A 
ATOM      4  C   LIG A   1      -6.558  -2.130 124.968  0.00  0.00    +0.079 A 
ATOM      5  C   LIG A   1      -5.893  -1.693 123.820  0.00  0.00    +0.028 A 
ATOM      6  C   LIG A   1      -6.519  -1.753 122.573  0.00  0.00    +0.002 A 
ATOM      7  C   LIG A   1      -7.804  -2.283 122.461  0.00  0.00    +0.001 A 
ATOM      8  C   LIG A   1      -8.481  -2.715 123.602  0.00  0.00    +0.015 A 
ATOM      9  N   LIG A   1      -5.888  -2.059 126.194  0.00  0.00    -0.227 NA
ATOM     10  C   LIG A   1      -6.533  -2.426 127.250  0.00  0.00    +0.161 A 
ATOM     11  C   LIG A   1      -5.859  -2.405 128.516  0.00  0.00    +0.087 A 
ATOM     12  C   LIG A   1      -6.361  -2.925 129.690  0.00  0.00    -0.010 A 
ATOM     13  C   LIG A   1      -5.393  -2.715 130.707  0.00  0.00    +0.004 A 
ATOM     14  C   LIG A   1      -5.321  -3.008 132.083  0.00  0.00    +0.014 A 
ATOM     15  C   LIG A   1      -4.174  -2.650 132.805  0.00  0.00    +0.046 A 
ATOM     16  C   LIG A   1      -3.116  -2.013 132.166  0.00  0.00    +0.119 A 
ATOM     17  C   LIG A   1      -3.152  -1.713 130.806  0.00  0.00    +0.071 A 
ATOM     18  C   LIG A   1      -4.306  -2.074 130.102  0.00  0.00    +0.051 A 
ATOM     19  N   LIG A   1      -4.611  -1.910 128.770  0.00  0.00    -0.351 N 
ATOM     20  H   LIG A   1      -4.011  -1.491 128.073  0.00  0.00    +0.166 HD
ATOM     21  C   LIG A   1      -7.696  -3.583 129.699  0.00  0.00    +0.059 C 
ATOM     22  C   LIG A   1      -8.558  -3.008 128.557  0.00  0.00    +0.131 C 
ATOM     23  N   LIG A   1      -7.849  -2.870 127.269  0.00  0.00    -0.291 N 
ENDROOT
BRANCH  16  24
ATOM     24  O   LIG A   1      -1.989  -1.656 132.850  0.00  0.00    -0.507 OA
ATOM     25  H   LIG A   1      -1.234  -2.131 132.471  0.00  0.00    +0.292 HD
ENDBRANCH  16  24
TORSDOF 1
ENDMDL
MODEL 7
REMARK VINA RESULT:      -7.6      5.870      6.429
REMARK  Name = NuBBE_1258
REMARK  1 active torsions:
REMARK  status: ('A' for Active; 'I' for Inactive)
REMARK    1  A    between atoms: C_16  and  O_17
REMARK                            x       y       z     vdW  Elec       q    Type
REMARK                         _______ _______ _______ _____ _____    ______ ____
ROOT
ATOM      1  O   LIG A   1      -8.965   3.189 125.099  0.00  0.00    -0.267 OA
ATOM      2  C   LIG A   1      -7.779   3.517 125.044  0.00  0.00    +0.262 A 
ATOM      3  C   LIG A   1      -7.101   3.589 123.735  0.00  0.00    +0.065 A 
ATOM      4  C   LIG A   1      -5.823   4.144 123.696  0.00  0.00    +0.079 A 
ATOM      5  C   LIG A   1      -5.208   4.342 122.458  0.00  0.00    +0.028 A 
ATOM      6  C   LIG A   1      -5.857   3.974 121.277  0.00  0.00    +0.002 A 
ATOM      7  C   LIG A   1      -7.114   3.374 121.329  0.00  0.00    +0.001 A 
ATOM      8  C   LIG A   1      -7.742   3.178 122.560  0.00  0.00    +0.015 A 
ATOM      9  N   LIG A   1      -5.131   4.519 124.851  0.00  0.00    -0.227 NA
ATOM     10  C   LIG A   1      -5.731   4.370 125.984  0.00  0.00    +0.161 A 
ATOM     11  C   LIG A   1      -5.032   4.706 127.190  0.00  0.00    +0.087 A 
ATOM     12  C   LIG A   1      -5.480   4.441 128.467  0.00  0.00    -0.010 A 
ATOM     13  C   LIG A   1      -4.502   4.919 129.378  0.00  0.00    +0.004 A 
ATOM     14  C   LIG A   1      -4.384   4.946 130.782  0.00  0.00    +0.014 A 
ATOM     15  C   LIG A   1      -3.241   5.510 131.367  0.00  0.00    +0.046 A 
ATOM     16  C   LIG A   1      -2.233   6.035 130.567  0.00  0.00    +0.119 A 
ATOM     17  C   LIG A   1      -2.315   6.020 129.176  0.00  0.00    +0.071 A 
ATOM     18  C   LIG A   1      -3.463   5.457 128.609  0.00  0.00    +0.051 A 
ATOM     19  N   LIG A   1      -3.807   5.303 127.286  0.00  0.00    -0.351 N 
ATOM     20  H   LIG A   1      -3.245   5.582 126.493  0.00  0.00    +0.166 HD
ATOM     21  C   LIG A   1      -6.777   3.740 128.667  0.00  0.00    +0.059 C 
ATOM     22  C   LIG A   1      -7.694   4.003 127.455  0.00  0.00    +0.131 C 
ATOM     23  N   LIG A   1      -7.022   3.881 126.146  0.00  0.00    -0.291 N 
ENDROOT
BRANCH  16  24
ATOM     24  O   LIG A   1      -1.111   6.589 131.116  0.00  0.00    -0.507 OA
ATOM     25  H   LIG A   1      -1.297   6.804 132.043  0.00  0.00    +0.292 HD
ENDBRANCH  16  24
TORSDOF 1
ENDMDL
MODEL 8
REMARK VINA RESULT:      -7.5      8.782      9.282
REMARK  Name = NuBBE_1258
REMARK  1 active torsions:
REMARK  status: ('A' for Active; 'I' for Inactive)
REMARK    1  A    between atoms: C_16  and  O_17
REMARK                            x       y       z     vdW  Elec       q    Type
REMARK                         _______ _______ _______ _____ _____    ______ ____
ROOT
ATOM      1  O   LIG A   1      -9.869   0.389 122.549  0.00  0.00    -0.267 OA
ATOM      2  C   LIG A   1      -9.019   0.105 123.393  0.00  0.00    +0.262 A 
ATOM      3  C   LIG A   1      -8.814  -1.305 123.779  0.00  0.00    +0.065 A 
ATOM      4  C   LIG A   1      -7.720  -1.603 124.590  0.00  0.00    +0.079 A 
ATOM      5  C   LIG A   1      -7.428  -2.940 124.868  0.00  0.00    +0.028 A 
ATOM      6  C   LIG A   1      -8.229  -3.963 124.354  0.00  0.00    +0.002 A 
ATOM      7  C   LIG A   1      -9.350  -3.652 123.586  0.00  0.00    +0.001 A 
ATOM      8  C   LIG A   1      -9.648  -2.320 123.295  0.00  0.00    +0.015 A 
ATOM      9  N   LIG A   1      -6.895  -0.614 125.134  0.00  0.00    -0.227 NA
ATOM     10  C   LIG A   1      -7.154   0.614 124.831  0.00  0.00    +0.161 A 
ATOM     11  C   LIG A   1      -6.352   1.654 125.407  0.00  0.00    +0.087 A 
ATOM     12  C   LIG A   1      -6.616   3.004 125.311  0.00  0.00    -0.010 A 
ATOM     13  C   LIG A   1      -5.598   3.697 126.018  0.00  0.00    +0.004 A 
ATOM     14  C   LIG A   1      -5.317   5.054 126.275  0.00  0.00    +0.014 A 
ATOM     15  C   LIG A   1      -4.191   5.391 127.040  0.00  0.00    +0.046 A 
ATOM     16  C   LIG A   1      -3.363   4.394 127.543  0.00  0.00    +0.119 A 
ATOM     17  C   LIG A   1      -3.615   3.043 127.312  0.00  0.00    +0.071 A 
ATOM     18  C   LIG A   1      -4.740   2.725 126.544  0.00  0.00    +0.051 A 
ATOM     19  N   LIG A   1      -5.228   1.495 126.167  0.00  0.00    -0.351 N 
ATOM     20  H   LIG A   1      -4.828   0.599 126.412  0.00  0.00    +0.166 HD
ATOM     21  C   LIG A   1      -7.821   3.474 124.576  0.00  0.00    +0.059 C 
ATOM     22  C   LIG A   1      -8.214   2.428 123.513  0.00  0.00    +0.131 C 
ATOM     23  N   LIG A   1      -8.180   1.031 123.992  0.00  0.00    -0.291 N 
ENDROOT
BRANCH  16  24
ATOM     24  O   LIG A   1      -2.262   4.701 128.291  0.00  0.00    -0.507 OA
ATOM     25  H   LIG A   1      -1.522   4.882 127.691  0.00  0.00    +0.292 HD
ENDBRANCH  16  24
TORSDOF 1
ENDMDL
MODEL 9
REMARK VINA RESULT:      -7.4      9.196     10.742
REMARK  Name = NuBBE_1258
REMARK  1 active torsions:
REMARK  status: ('A' for Active; 'I' for Inactive)
REMARK    1  A    between atoms: C_16  and  O_17
REMARK                            x       y       z     vdW  Elec       q    Type
REMARK                         _______ _______ _______ _____ _____    ______ ____
ROOT
ATOM      1  O   LIG A   1      -8.762  -3.933 128.105  0.00  0.00    -0.267 OA
ATOM      2  C   LIG A   1      -7.930  -3.031 128.000  0.00  0.00    +0.262 A 
ATOM      3  C   LIG A   1      -6.742  -3.028 128.876  0.00  0.00    +0.065 A 
ATOM      4  C   LIG A   1      -5.734  -2.105 128.599  0.00  0.00    +0.079 A 
ATOM      5  C   LIG A   1      -4.545  -2.161 129.329  0.00  0.00    +0.028 A 
ATOM      6  C   LIG A   1      -4.374  -3.117 130.333  0.00  0.00    +0.002 A 
ATOM      7  C   LIG A   1      -5.407  -4.004 130.636  0.00  0.00    +0.001 A 
ATOM      8  C   LIG A   1      -6.596  -3.962 129.908  0.00  0.00    +0.015 A 
ATOM      9  N   LIG A   1      -5.864  -1.125 127.610  0.00  0.00    -0.227 NA
ATOM     10  C   LIG A   1      -6.951  -1.115 126.916  0.00  0.00    +0.161 A 
ATOM     11  C   LIG A   1      -7.132  -0.096 125.923  0.00  0.00    +0.087 A 
ATOM     12  C   LIG A   1      -8.301   0.139 125.231  0.00  0.00    -0.010 A 
ATOM     13  C   LIG A   1      -8.074   1.231 124.353  0.00  0.00    +0.004 A 
ATOM     14  C   LIG A   1      -8.857   1.924 123.408  0.00  0.00    +0.014 A 
ATOM     15  C   LIG A   1      -8.294   2.993 122.697  0.00  0.00    +0.046 A 
ATOM     16  C   LIG A   1      -6.975   3.368 122.927  0.00  0.00    +0.119 A 
ATOM     17  C   LIG A   1      -6.175   2.709 123.858  0.00  0.00    +0.071 A 
ATOM     18  C   LIG A   1      -6.751   1.642 124.555  0.00  0.00    +0.051 A 
ATOM     19  N   LIG A   1      -6.208   0.827 125.521  0.00  0.00    -0.351 N 
ATOM     20  H   LIG A   1      -5.269   0.891 125.890  0.00  0.00    +0.166 HD
ATOM     21  C   LIG A   1      -9.505  -0.690 125.507  0.00  0.00    +0.059 C 
ATOM     22  C   LIG A   1      -9.067  -2.069 126.042  0.00  0.00    +0.131 C 
ATOM     23  N   LIG A   1      -8.000  -2.015 127.061  0.00  0.00    -0.291 N 
ENDROOT
BRANCH  16  24
ATOM     24  O   LIG A   1      -6.408   4.408 122.246  0.00  0.00    -0.507 OA
ATOM     25  H   LIG A   1      -6.699   5.239 122.652  0.00  0.00    +0.292 HD
ENDBRANCH  16  24
TORSDOF 1
ENDMDL
