MODEL 1
REMARK VINA RESULT:      -7.0      0.000      0.000
REMARK  Name = NuBBE_395
REMARK  4 active torsions:
REMARK  status: ('A' for Active; 'I' for Inactive)
REMARK    1  A    between atoms: C_1  and  C_2
REMARK    2  A    between atoms: C_2  and  C_3
REMARK    3  A    between atoms: C_10  and  C_12
REMARK    4  A    between atoms: C_12  and  C_13
REMARK                            x       y       z     vdW  Elec       q    Type
REMARK                         _______ _______ _______ _____ _____    ______ ____
ROOT
ATOM      1  C   LIG A   1      -5.635  -2.782 124.778  0.00  0.00    +0.025 C 
ATOM      2  C   LIG A   1      -6.812  -3.638 125.294  0.00  0.00    +0.144 C 
ATOM      3  O   LIG A   1      -7.203  -3.154 126.589  0.00  0.00    -0.369 OA
ATOM      4  C   LIG A   1      -7.807  -1.863 126.503  0.00  0.00    +0.123 C 
ATOM      5  C   LIG A   1      -6.779  -0.845 125.986  0.00  0.00    +0.036 C 
ATOM      6  C   LIG A   1      -5.973  -1.253 124.729  0.00  0.00    +0.001 C 
ATOM      7  C   LIG A   1      -9.134  -1.956 125.726  0.00  0.00    +0.058 C 
ATOM      8  C   LIG A   1      -9.079  -2.908 124.568  0.00  0.00    -0.026 C 
ATOM      9  C   LIG A   1      -7.998  -3.674 124.368  0.00  0.00    +0.000 C 
ENDROOT
BRANCH   1  11
ATOM     10  C   LIG A   1      -4.383  -4.710 123.653  0.00  0.00    +0.004 C 
ATOM     11  C   LIG A   1      -5.004  -3.328 123.482  0.00  0.00    +0.003 C 
ENDBRANCH   1  11
BRANCH   6  12
ATOM     12  C   LIG A   1      -6.578  -0.717 123.405  0.00  0.00    +0.049 C 
BRANCH  12  13
ATOM     13  C   LIG A   1      -7.603   0.433 123.558  0.00  0.00    +0.181 C 
ATOM     14  O   LIG A   1      -8.830   0.019 122.907  0.00  0.00    -0.458 OA
ATOM     15  C   LIG A   1      -9.858   0.903 122.824  0.00  0.00    +0.332 C 
ATOM     16  C   LIG A   1      -9.508   2.334 122.948  0.00  0.00    +0.087 C 
ATOM     17  C   LIG A   1      -8.233   2.745 122.970  0.00  0.00    -0.016 C 
ATOM     18  C   LIG A   1      -7.114   1.757 122.963  0.00  0.00    +0.072 C 
ATOM     19  O   LIG A   1     -11.014   0.560 122.609  0.00  0.00    -0.246 OA
ENDBRANCH  12  13
ENDBRANCH   6  12
TORSDOF 3
ENDMDL
MODEL 2
REMARK VINA RESULT:      -6.9      2.312      5.592
REMARK  Name = NuBBE_395
REMARK  4 active torsions:
REMARK  status: ('A' for Active; 'I' for Inactive)
REMARK    1  A    between atoms: C_1  and  C_2
REMARK    2  A    between atoms: C_2  and  C_3
REMARK    3  A    between atoms: C_10  and  C_12
REMARK    4  A    between atoms: C_12  and  C_13
REMARK                            x       y       z     vdW  Elec       q    Type
REMARK                         _______ _______ _______ _____ _____    ______ ____
ROOT
ATOM      1  C   LIG A   1      -6.628  -3.099 124.171  0.00  0.00    +0.025 C 
ATOM      2  C   LIG A   1      -6.983  -2.244 122.936  0.00  0.00    +0.144 C 
ATOM      3  O   LIG A   1      -8.393  -2.353 122.687  0.00  0.00    -0.369 OA
ATOM      4  C   LIG A   1      -9.155  -1.706 123.707  0.00  0.00    +0.123 C 
ATOM      5  C   LIG A   1      -8.927  -2.417 125.050  0.00  0.00    +0.036 C 
ATOM      6  C   LIG A   1      -7.456  -2.703 125.441  0.00  0.00    +0.001 C 
ATOM      7  C   LIG A   1      -8.889  -0.190 123.677  0.00  0.00    +0.058 C 
ATOM      8  C   LIG A   1      -7.459   0.158 123.385  0.00  0.00    -0.026 C 
ATOM      9  C   LIG A   1      -6.581  -0.798 123.054  0.00  0.00    +0.000 C 
ENDROOT
BRANCH   1  11
ATOM     10  C   LIG A   1      -4.478  -4.412 123.721  0.00  0.00    +0.004 C 
ATOM     11  C   LIG A   1      -5.112  -3.214 124.421  0.00  0.00    +0.003 C 
ENDBRANCH   1  11
BRANCH   6  12
ATOM     12  C   LIG A   1      -6.839  -1.618 126.363  0.00  0.00    +0.049 C 
BRANCH  12  13
ATOM     13  C   LIG A   1      -6.583  -2.053 127.825  0.00  0.00    +0.181 C 
ATOM     14  O   LIG A   1      -5.246  -2.607 127.893  0.00  0.00    -0.458 OA
ATOM     15  C   LIG A   1      -4.819  -3.149 129.063  0.00  0.00    +0.332 C 
ATOM     16  C   LIG A   1      -5.868  -3.577 130.012  0.00  0.00    +0.087 C 
ATOM     17  C   LIG A   1      -7.164  -3.589 129.668  0.00  0.00    -0.016 C 
ATOM     18  C   LIG A   1      -7.602  -3.077 128.335  0.00  0.00    +0.072 C 
ATOM     19  O   LIG A   1      -3.635  -3.328 129.320  0.00  0.00    -0.246 OA
ENDBRANCH  12  13
ENDBRANCH   6  12
TORSDOF 3
ENDMDL
MODEL 3
REMARK VINA RESULT:      -6.7      3.034      6.043
REMARK  Name = NuBBE_395
REMARK  4 active torsions:
REMARK  status: ('A' for Active; 'I' for Inactive)
REMARK    1  A    between atoms: C_1  and  C_2
REMARK    2  A    between atoms: C_2  and  C_3
REMARK    3  A    between atoms: C_10  and  C_12
REMARK    4  A    between atoms: C_12  and  C_13
REMARK                            x       y       z     vdW  Elec       q    Type
REMARK                         _______ _______ _______ _____ _____    ______ ____
ROOT
ATOM      1  C   LIG A   1      -8.634  -2.544 127.186  0.00  0.00    +0.025 C 
ATOM      2  C   LIG A   1      -9.258  -3.044 125.865  0.00  0.00    +0.144 C 
ATOM      3  O   LIG A   1      -9.713  -1.911 125.109  0.00  0.00    -0.369 OA
ATOM      4  C   LIG A   1      -8.618  -1.130 124.629  0.00  0.00    +0.123 C 
ATOM      5  C   LIG A   1      -7.845  -0.538 125.817  0.00  0.00    +0.036 C 
ATOM      6  C   LIG A   1      -7.474  -1.516 126.958  0.00  0.00    +0.001 C 
ATOM      7  C   LIG A   1      -7.798  -1.947 123.613  0.00  0.00    +0.058 C 
ATOM      8  C   LIG A   1      -7.665  -3.395 123.984  0.00  0.00    -0.026 C 
ATOM      9  C   LIG A   1      -8.334  -3.892 125.033  0.00  0.00    +0.000 C 
ENDROOT
BRANCH   1  11
ATOM     10  C   LIG A   1      -8.161  -3.209 129.612  0.00  0.00    +0.004 C 
ATOM     11  C   LIG A   1      -8.284  -3.680 128.166  0.00  0.00    +0.003 C 
ENDBRANCH   1  11
BRANCH   6  12
ATOM     12  C   LIG A   1      -6.043  -2.101 126.830  0.00  0.00    +0.049 C 
BRANCH  12  13
ATOM     13  C   LIG A   1      -5.035  -1.640 127.910  0.00  0.00    +0.181 C 
ATOM     14  O   LIG A   1      -4.537  -2.824 128.582  0.00  0.00    -0.458 OA
ATOM     15  C   LIG A   1      -3.703  -2.673 129.643  0.00  0.00    +0.332 C 
ATOM     16  C   LIG A   1      -3.745  -1.368 130.334  0.00  0.00    +0.087 C 
ATOM     17  C   LIG A   1      -4.674  -0.447 130.040  0.00  0.00    -0.016 C 
ATOM     18  C   LIG A   1      -5.646  -0.675 128.930  0.00  0.00    +0.072 C 
ATOM     19  O   LIG A   1      -2.979  -3.573 130.054  0.00  0.00    -0.246 OA
ENDBRANCH  12  13
ENDBRANCH   6  12
TORSDOF 3
ENDMDL
MODEL 4
REMARK VINA RESULT:      -6.6      8.374      9.758
REMARK  Name = NuBBE_395
REMARK  4 active torsions:
REMARK  status: ('A' for Active; 'I' for Inactive)
REMARK    1  A    between atoms: C_1  and  C_2
REMARK    2  A    between atoms: C_2  and  C_3
REMARK    3  A    between atoms: C_10  and  C_12
REMARK    4  A    between atoms: C_12  and  C_13
REMARK                            x       y       z     vdW  Elec       q    Type
REMARK                         _______ _______ _______ _____ _____    ______ ____
ROOT
ATOM      1  C   LIG A   1      -8.574   4.122 130.325  0.00  0.00    +0.025 C 
ATOM      2  C   LIG A   1      -7.833   3.746 131.626  0.00  0.00    +0.144 C 
ATOM      3  O   LIG A   1      -6.974   4.833 132.001  0.00  0.00    -0.369 OA
ATOM      4  C   LIG A   1      -7.726   5.971 132.423  0.00  0.00    +0.123 C 
ATOM      5  C   LIG A   1      -8.560   6.503 131.247  0.00  0.00    +0.036 C 
ATOM      6  C   LIG A   1      -9.381   5.459 130.452  0.00  0.00    +0.001 C 
ATOM      7  C   LIG A   1      -8.494   5.642 133.717  0.00  0.00    +0.058 C 
ATOM      8  C   LIG A   1      -9.045   4.247 133.743  0.00  0.00    -0.026 C 
ATOM      9  C   LIG A   1      -8.744   3.379 132.767  0.00  0.00    +0.000 C 
ENDROOT
BRANCH   1  11
ATOM     10  C   LIG A   1      -8.504   1.803 129.243  0.00  0.00    +0.004 C 
ATOM     11  C   LIG A   1      -9.381   2.957 129.720  0.00  0.00    +0.003 C 
ENDBRANCH   1  11
BRANCH   6  12
ATOM     12  C   LIG A   1     -10.853   5.340 130.925  0.00  0.00    +0.049 C 
BRANCH  12  13
ATOM     13  C   LIG A   1     -11.883   6.163 130.115  0.00  0.00    +0.181 C 
ATOM     14  O   LIG A   1     -11.445   6.180 128.733  0.00  0.00    -0.458 OA
ATOM     15  C   LIG A   1     -12.139   6.925 127.835  0.00  0.00    +0.332 C 
ATOM     16  C   LIG A   1     -12.963   8.022 128.384  0.00  0.00    +0.087 C 
ATOM     17  C   LIG A   1     -12.895   8.371 129.677  0.00  0.00    -0.016 C 
ATOM     18  C   LIG A   1     -12.048   7.596 130.631  0.00  0.00    +0.072 C 
ATOM     19  O   LIG A   1     -12.065   6.748 126.625  0.00  0.00    -0.246 OA
ENDBRANCH  12  13
ENDBRANCH   6  12
TORSDOF 3
ENDMDL
MODEL 5
REMARK VINA RESULT:      -6.5      2.096      2.591
REMARK  Name = NuBBE_395
REMARK  4 active torsions:
REMARK  status: ('A' for Active; 'I' for Inactive)
REMARK    1  A    between atoms: C_1  and  C_2
REMARK    2  A    between atoms: C_2  and  C_3
REMARK    3  A    between atoms: C_10  and  C_12
REMARK    4  A    between atoms: C_12  and  C_13
REMARK                            x       y       z     vdW  Elec       q    Type
REMARK                         _______ _______ _______ _____ _____    ______ ____
ROOT
ATOM      1  C   LIG A   1      -6.030  -3.344 124.788  0.00  0.00    +0.025 C 
ATOM      2  C   LIG A   1      -7.487  -3.651 124.380  0.00  0.00    +0.144 C 
ATOM      3  O   LIG A   1      -8.265  -3.864 125.568  0.00  0.00    -0.369 OA
ATOM      4  C   LIG A   1      -8.427  -2.655 126.310  0.00  0.00    +0.123 C 
ATOM      5  C   LIG A   1      -7.058  -2.168 126.808  0.00  0.00    +0.036 C 
ATOM      6  C   LIG A   1      -5.917  -2.122 125.762  0.00  0.00    +0.001 C 
ATOM      7  C   LIG A   1      -9.262  -1.649 125.497  0.00  0.00    +0.058 C 
ATOM      8  C   LIG A   1      -8.951  -1.667 124.029  0.00  0.00    -0.026 C 
ATOM      9  C   LIG A   1      -8.121  -2.589 123.522  0.00  0.00    +0.000 C 
ENDROOT
BRANCH   1  11
ATOM     10  C   LIG A   1      -4.149  -4.507 123.499  0.00  0.00    +0.004 C 
ATOM     11  C   LIG A   1      -5.059  -3.286 123.593  0.00  0.00    +0.003 C 
ENDBRANCH   1  11
BRANCH   6  12
ATOM     12  C   LIG A   1      -5.733  -0.727 125.109  0.00  0.00    +0.049 C 
BRANCH  12  13
ATOM     13  C   LIG A   1      -6.185   0.477 125.969  0.00  0.00    +0.181 C 
ATOM     14  O   LIG A   1      -7.228   1.172 125.240  0.00  0.00    -0.458 OA
ATOM     15  C   LIG A   1      -7.725   2.328 125.751  0.00  0.00    +0.332 C 
ATOM     16  C   LIG A   1      -6.867   3.044 126.718  0.00  0.00    +0.087 C 
ATOM     17  C   LIG A   1      -5.602   2.665 126.949  0.00  0.00    -0.016 C 
ATOM     18  C   LIG A   1      -5.043   1.442 126.300  0.00  0.00    +0.072 C 
ATOM     19  O   LIG A   1      -8.803   2.798 125.407  0.00  0.00    -0.246 OA
ENDBRANCH  12  13
ENDBRANCH   6  12
TORSDOF 3
ENDMDL
MODEL 6
REMARK VINA RESULT:      -6.5      2.058      5.100
REMARK  Name = NuBBE_395
REMARK  4 active torsions:
REMARK  status: ('A' for Active; 'I' for Inactive)
REMARK    1  A    between atoms: C_1  and  C_2
REMARK    2  A    between atoms: C_2  and  C_3
REMARK    3  A    between atoms: C_10  and  C_12
REMARK    4  A    between atoms: C_12  and  C_13
REMARK                            x       y       z     vdW  Elec       q    Type
REMARK                         _______ _______ _______ _____ _____    ______ ____
ROOT
ATOM      1  C   LIG A   1      -6.751  -0.207 123.686  0.00  0.00    +0.025 C 
ATOM      2  C   LIG A   1      -7.175  -1.391 122.791  0.00  0.00    +0.144 C 
ATOM      3  O   LIG A   1      -6.137  -2.383 122.811  0.00  0.00    -0.369 OA
ATOM      4  C   LIG A   1      -6.043  -3.013 124.089  0.00  0.00    +0.123 C 
ATOM      5  C   LIG A   1      -5.632  -1.977 125.147  0.00  0.00    +0.036 C 
ATOM      6  C   LIG A   1      -6.420  -0.645 125.153  0.00  0.00    +0.001 C 
ATOM      7  C   LIG A   1      -7.327  -3.815 124.374  0.00  0.00    +0.058 C 
ATOM      8  C   LIG A   1      -8.573  -3.132 123.893  0.00  0.00    -0.026 C 
ATOM      9  C   LIG A   1      -8.496  -2.006 123.171  0.00  0.00    +0.000 C 
ENDROOT
BRANCH   1  11
ATOM     10  C   LIG A   1      -7.012   2.330 123.902  0.00  0.00    +0.004 C 
ATOM     11  C   LIG A   1      -7.699   1.004 123.590  0.00  0.00    +0.003 C 
ENDBRANCH   1  11
BRANCH   6  12
ATOM     12  C   LIG A   1      -7.594  -0.625 126.166  0.00  0.00    +0.049 C 
BRANCH  12  13
ATOM     13  C   LIG A   1      -7.460  -1.598 127.362  0.00  0.00    +0.181 C 
ATOM     14  O   LIG A   1      -8.541  -2.559 127.273  0.00  0.00    -0.458 OA
ATOM     15  C   LIG A   1      -8.694  -3.467 128.270  0.00  0.00    +0.332 C 
ATOM     16  C   LIG A   1      -8.089  -3.122 129.575  0.00  0.00    +0.087 C 
ATOM     17  C   LIG A   1      -7.568  -1.909 129.808  0.00  0.00    -0.016 C 
ATOM     18  C   LIG A   1      -7.498  -0.890 128.719  0.00  0.00    +0.072 C 
ATOM     19  O   LIG A   1      -9.336  -4.502 128.136  0.00  0.00    -0.246 OA
ENDBRANCH  12  13
ENDBRANCH   6  12
TORSDOF 3
ENDMDL
MODEL 7
REMARK VINA RESULT:      -6.4      2.476      3.871
REMARK  Name = NuBBE_395
REMARK  4 active torsions:
REMARK  status: ('A' for Active; 'I' for Inactive)
REMARK    1  A    between atoms: C_1  and  C_2
REMARK    2  A    between atoms: C_2  and  C_3
REMARK    3  A    between atoms: C_10  and  C_12
REMARK    4  A    between atoms: C_12  and  C_13
REMARK                            x       y       z     vdW  Elec       q    Type
REMARK                         _______ _______ _______ _____ _____    ______ ____
ROOT
ATOM      1  C   LIG A   1      -8.792  -2.426 125.645  0.00  0.00    +0.025 C 
ATOM      2  C   LIG A   1      -8.073  -3.377 124.664  0.00  0.00    +0.144 C 
ATOM      3  O   LIG A   1      -8.646  -3.214 123.358  0.00  0.00    -0.369 OA
ATOM      4  C   LIG A   1      -8.325  -1.938 122.802  0.00  0.00    +0.123 C 
ATOM      5  C   LIG A   1      -8.954  -0.829 123.660  0.00  0.00    +0.036 C 
ATOM      6  C   LIG A   1      -8.736  -0.929 125.189  0.00  0.00    +0.001 C 
ATOM      7  C   LIG A   1      -6.807  -1.840 122.557  0.00  0.00    +0.058 C 
ATOM      8  C   LIG A   1      -5.988  -2.490 123.632  0.00  0.00    -0.026 C 
ATOM      9  C   LIG A   1      -6.580  -3.189 124.610  0.00  0.00    +0.000 C 
ENDROOT
BRANCH   1  11
ATOM     10  C   LIG A   1      -8.958  -3.941 127.702  0.00  0.00    +0.004 C 
ATOM     11  C   LIG A   1      -8.394  -2.650 127.117  0.00  0.00    +0.003 C 
ENDBRANCH   1  11
BRANCH   6  12
ATOM     12  C   LIG A   1      -7.533  -0.092 125.698  0.00  0.00    +0.049 C 
BRANCH  12  13
ATOM     13  C   LIG A   1      -7.370   1.304 125.050  0.00  0.00    +0.181 C 
ATOM     14  O   LIG A   1      -6.142   1.884 125.556  0.00  0.00    -0.458 OA
ATOM     15  C   LIG A   1      -5.824   3.156 125.203  0.00  0.00    +0.332 C 
ATOM     16  C   LIG A   1      -6.941   4.014 124.754  0.00  0.00    +0.087 C 
ATOM     17  C   LIG A   1      -8.217   3.613 124.850  0.00  0.00    -0.016 C 
ATOM     18  C   LIG A   1      -8.548   2.240 125.334  0.00  0.00    +0.072 C 
ATOM     19  O   LIG A   1      -4.688   3.608 125.291  0.00  0.00    -0.246 OA
ENDBRANCH  12  13
ENDBRANCH   6  12
TORSDOF 3
ENDMDL
MODEL 8
REMARK VINA RESULT:      -6.4      2.201      5.736
REMARK  Name = NuBBE_395
REMARK  4 active torsions:
REMARK  status: ('A' for Active; 'I' for Inactive)
REMARK    1  A    between atoms: C_1  and  C_2
REMARK    2  A    between atoms: C_2  and  C_3
REMARK    3  A    between atoms: C_10  and  C_12
REMARK    4  A    between atoms: C_12  and  C_13
REMARK                            x       y       z     vdW  Elec       q    Type
REMARK                         _______ _______ _______ _____ _____    ______ ____
ROOT
ATOM      1  C   LIG A   1      -8.407   2.977 123.357  0.00  0.00    +0.025 C 
ATOM      2  C   LIG A   1      -7.594   3.616 124.502  0.00  0.00    +0.144 C 
ATOM      3  O   LIG A   1      -8.345   3.506 125.721  0.00  0.00    -0.369 OA
ATOM      4  C   LIG A   1      -8.434   2.149 126.159  0.00  0.00    +0.123 C 
ATOM      5  C   LIG A   1      -9.218   1.324 125.126  0.00  0.00    +0.036 C 
ATOM      6  C   LIG A   1      -8.795   1.487 123.646  0.00  0.00    +0.001 C 
ATOM      7  C   LIG A   1      -7.035   1.628 126.538  0.00  0.00    +0.058 C 
ATOM      8  C   LIG A   1      -5.950   2.119 125.625  0.00  0.00    -0.026 C 
ATOM      9  C   LIG A   1      -6.218   3.030 124.679  0.00  0.00    +0.000 C 
ENDROOT
BRANCH   1  11
ATOM     10  C   LIG A   1      -8.815   3.597 120.907  0.00  0.00    +0.004 C 
ATOM     11  C   LIG A   1      -7.788   3.205 121.964  0.00  0.00    +0.003 C 
ENDBRANCH   1  11
BRANCH   6  12
ATOM     12  C   LIG A   1      -7.796   0.402 123.165  0.00  0.00    +0.049 C 
BRANCH  12  13
ATOM     13  C   LIG A   1      -7.930  -0.979 123.850  0.00  0.00    +0.181 C 
ATOM     14  O   LIG A   1      -6.641  -1.637 123.770  0.00  0.00    -0.458 OA
ATOM     15  C   LIG A   1      -6.528  -2.913 124.223  0.00  0.00    +0.332 C 
ATOM     16  C   LIG A   1      -7.779  -3.697 124.305  0.00  0.00    +0.087 C 
ATOM     17  C   LIG A   1      -8.932  -3.234 123.801  0.00  0.00    -0.016 C 
ATOM     18  C   LIG A   1      -9.011  -1.861 123.219  0.00  0.00    +0.072 C 
ATOM     19  O   LIG A   1      -5.452  -3.425 124.507  0.00  0.00    -0.246 OA
ENDBRANCH  12  13
ENDBRANCH   6  12
TORSDOF 3
ENDMDL
MODEL 9
REMARK VINA RESULT:      -6.4      2.240      5.878
REMARK  Name = NuBBE_395
REMARK  4 active torsions:
REMARK  status: ('A' for Active; 'I' for Inactive)
REMARK    1  A    between atoms: C_1  and  C_2
REMARK    2  A    between atoms: C_2  and  C_3
REMARK    3  A    between atoms: C_10  and  C_12
REMARK    4  A    between atoms: C_12  and  C_13
REMARK                            x       y       z     vdW  Elec       q    Type
REMARK                         _______ _______ _______ _____ _____    ______ ____
ROOT
ATOM      1  C   LIG A   1      -9.101  -0.611 123.821  0.00  0.00    +0.025 C 
ATOM      2  C   LIG A   1      -8.631   0.691 123.138  0.00  0.00    +0.144 C 
ATOM      3  O   LIG A   1      -9.413   1.786 123.641  0.00  0.00    -0.369 OA
ATOM      4  C   LIG A   1      -9.109   2.058 125.010  0.00  0.00    +0.123 C 
ATOM      5  C   LIG A   1      -9.502   0.850 125.876  0.00  0.00    +0.036 C 
ATOM      6  C   LIG A   1      -9.026  -0.538 125.384  0.00  0.00    +0.001 C 
ATOM      7  C   LIG A   1      -7.656   2.551 125.137  0.00  0.00    +0.058 C 
ATOM      8  C   LIG A   1      -6.705   1.842 124.217  0.00  0.00    -0.026 C 
ATOM      9  C   LIG A   1      -7.162   0.975 123.303  0.00  0.00    +0.000 C 
ENDROOT
BRANCH   1  11
ATOM     10  C   LIG A   1      -9.340  -3.122 123.380  0.00  0.00    +0.004 C 
ATOM     11  C   LIG A   1      -8.466  -1.881 123.220  0.00  0.00    +0.003 C 
ENDBRANCH   1  11
BRANCH   6  12
ATOM     12  C   LIG A   1      -7.699  -1.004 126.039  0.00  0.00    +0.049 C 
BRANCH  12  13
ATOM     13  C   LIG A   1      -7.846  -1.754 127.384  0.00  0.00    +0.181 C 
ATOM     14  O   LIG A   1      -6.514  -2.023 127.887  0.00  0.00    -0.458 OA
ATOM     15  C   LIG A   1      -6.377  -2.761 129.019  0.00  0.00    +0.332 C 
ATOM     16  C   LIG A   1      -7.517  -3.631 129.380  0.00  0.00    +0.087 C 
ATOM     17  C   LIG A   1      -8.553  -3.811 128.549  0.00  0.00    -0.016 C 
ATOM     18  C   LIG A   1      -8.635  -3.060 127.261  0.00  0.00    +0.072 C 
ATOM     19  O   LIG A   1      -5.356  -2.759 129.695  0.00  0.00    -0.246 OA
ENDBRANCH  12  13
ENDBRANCH   6  12
TORSDOF 3
ENDMDL
