MODEL 1
REMARK VINA RESULT:      -7.4      0.000      0.000
REMARK  Name = NuBBE_2075
REMARK  4 active torsions:
REMARK  status: ('A' for Active; 'I' for Inactive)
REMARK    1  A    between atoms: C_3  and  C_4
REMARK    2  A    between atoms: C_5  and  O_6
REMARK    3  A    between atoms: O_6  and  C_7
REMARK    4  A    between atoms: C_17  and  O_19
REMARK                            x       y       z     vdW  Elec       q    Type
REMARK                         _______ _______ _______ _____ _____    ______ ____
ROOT
ATOM      1  O   LIG A   1      -8.612   4.646 125.477  0.00  0.00    -0.250 OA
ATOM      2  C   LIG A   1      -8.309   3.485 125.672  0.00  0.00    +0.319 C 
ATOM      3  C   LIG A   1      -7.737   2.474 124.711  0.00  0.00    +0.125 C 
ATOM      4  C   LIG A   1      -6.216   2.648 125.014  0.00  0.00    +0.029 C 
ATOM      5  C   LIG A   1      -7.998   2.289 123.187  0.00  0.00    +0.185 C 
ATOM      6  C   LIG A   1      -9.354   1.579 122.806  0.00  0.00    +0.067 C 
ATOM      7  C   LIG A   1      -9.432   0.131 123.437  0.00  0.00    +0.015 C 
ATOM      8  C   LIG A   1      -8.292   0.034 124.496  0.00  0.00    +0.005 C 
ATOM      9  C   LIG A   1      -7.030   0.121 123.573  0.00  0.00    +0.170 C 
ATOM     10  O   LIG A   1      -7.014   1.305 122.751  0.00  0.00    -0.347 OA
ATOM     11  C   LIG A   1      -8.129  -1.208 125.416  0.00  0.00    +0.003 C 
ATOM     12  C   LIG A   1      -8.926  -2.441 124.974  0.00  0.00    +0.004 C 
ATOM     13  C   LIG A   1      -8.520  -3.671 125.789  0.00  0.00    +0.003 C 
ATOM     14  C   LIG A   1      -8.608  -3.431 127.294  0.00  0.00    +0.031 C 
ATOM     15  C   LIG A   1      -7.855  -2.173 127.743  0.00  0.00    +0.118 C 
ATOM     16  C   LIG A   1      -8.336  -0.950 126.942  0.00  0.00    +0.025 C 
ATOM     17  C   LIG A   1      -7.698   0.391 127.409  0.00  0.00    +0.051 C 
ATOM     18  C   LIG A   1      -8.534   1.477 126.767  0.00  0.00    +0.182 C 
ATOM     19  O   LIG A   1      -8.270   2.873 126.941  0.00  0.00    -0.461 OA
ATOM     20  C   LIG A   1      -8.526   1.321 125.289  0.00  0.00    +0.060 C 
ENDROOT
BRANCH   5  21
ATOM     21  O   LIG A   1      -7.786   3.537 122.548  0.00  0.00    -0.351 OA
ATOM     22  C   LIG A   1      -6.863   3.528 121.472  0.00  0.00    +0.197 C 
ENDBRANCH   5  21
BRANCH  15  23
ATOM     23  O   LIG A   1      -8.117  -1.991 129.130  0.00  0.00    -0.392 OA
ATOM     24  H   LIG A   1      -8.852  -2.578 129.379  0.00  0.00    +0.210 HD
ENDBRANCH  15  23
TORSDOF 2
ENDMDL
MODEL 2
REMARK VINA RESULT:      -7.2      1.889      6.059
REMARK  Name = NuBBE_2075
REMARK  4 active torsions:
REMARK  status: ('A' for Active; 'I' for Inactive)
REMARK    1  A    between atoms: C_3  and  C_4
REMARK    2  A    between atoms: C_5  and  O_6
REMARK    3  A    between atoms: O_6  and  C_7
REMARK    4  A    between atoms: C_17  and  O_19
REMARK                            x       y       z     vdW  Elec       q    Type
REMARK                         _______ _______ _______ _____ _____    ______ ____
ROOT
ATOM      1  O   LIG A   1      -9.966  -2.594 125.735  0.00  0.00    -0.250 OA
ATOM      2  C   LIG A   1      -9.156  -1.764 125.373  0.00  0.00    +0.319 C 
ATOM      3  C   LIG A   1      -7.732  -1.558 125.825  0.00  0.00    +0.125 C 
ATOM      4  C   LIG A   1      -6.982  -2.384 124.734  0.00  0.00    +0.029 C 
ATOM      5  C   LIG A   1      -7.095  -1.761 127.231  0.00  0.00    +0.185 C 
ATOM      6  C   LIG A   1      -7.378  -0.618 128.282  0.00  0.00    +0.067 C 
ATOM      7  C   LIG A   1      -6.841   0.775 127.761  0.00  0.00    +0.015 C 
ATOM      8  C   LIG A   1      -6.522   0.602 126.245  0.00  0.00    +0.005 C 
ATOM      9  C   LIG A   1      -5.329  -0.410 126.313  0.00  0.00    +0.170 C 
ATOM     10  O   LIG A   1      -5.659  -1.622 127.021  0.00  0.00    -0.347 OA
ATOM     11  C   LIG A   1      -6.085   1.799 125.355  0.00  0.00    +0.003 C 
ATOM     12  C   LIG A   1      -5.659   3.051 126.131  0.00  0.00    +0.004 C 
ATOM     13  C   LIG A   1      -5.022   4.080 125.194  0.00  0.00    +0.003 C 
ATOM     14  C   LIG A   1      -5.912   4.412 123.999  0.00  0.00    +0.031 C 
ATOM     15  C   LIG A   1      -6.385   3.166 123.243  0.00  0.00    +0.118 C 
ATOM     16  C   LIG A   1      -7.073   2.185 124.209  0.00  0.00    +0.025 C 
ATOM     17  C   LIG A   1      -7.680   0.936 123.504  0.00  0.00    +0.051 C 
ATOM     18  C   LIG A   1      -8.589   0.299 124.532  0.00  0.00    +0.182 C 
ATOM     19  O   LIG A   1      -9.340  -0.893 124.280  0.00  0.00    -0.461 OA
ATOM     20  C   LIG A   1      -7.815  -0.051 125.751  0.00  0.00    +0.060 C 
ENDROOT
BRANCH   5  21
ATOM     21  O   LIG A   1      -7.419  -3.067 127.680  0.00  0.00    -0.351 OA
ATOM     22  C   LIG A   1      -8.235  -3.135 128.837  0.00  0.00    +0.197 C 
ENDBRANCH   5  21
BRANCH  15  23
ATOM     23  O   LIG A   1      -7.300   3.596 122.240  0.00  0.00    -0.392 OA
ATOM     24  H   LIG A   1      -6.842   3.570 121.382  0.00  0.00    +0.210 HD
ENDBRANCH  15  23
TORSDOF 2
ENDMDL
MODEL 3
REMARK VINA RESULT:      -7.2      2.665      5.430
REMARK  Name = NuBBE_2075
REMARK  4 active torsions:
REMARK  status: ('A' for Active; 'I' for Inactive)
REMARK    1  A    between atoms: C_3  and  C_4
REMARK    2  A    between atoms: C_5  and  O_6
REMARK    3  A    between atoms: O_6  and  C_7
REMARK    4  A    between atoms: C_17  and  O_19
REMARK                            x       y       z     vdW  Elec       q    Type
REMARK                         _______ _______ _______ _____ _____    ______ ____
ROOT
ATOM      1  O   LIG A   1      -6.808  -3.935 124.646  0.00  0.00    -0.250 OA
ATOM      2  C   LIG A   1      -6.669  -2.808 125.079  0.00  0.00    +0.319 C 
ATOM      3  C   LIG A   1      -7.710  -1.745 125.328  0.00  0.00    +0.125 C 
ATOM      4  C   LIG A   1      -8.004  -2.007 126.837  0.00  0.00    +0.029 C 
ATOM      5  C   LIG A   1      -9.013  -1.424 124.539  0.00  0.00    +0.185 C 
ATOM      6  C   LIG A   1      -8.819  -0.629 123.190  0.00  0.00    +0.067 C 
ATOM      7  C   LIG A   1      -8.117   0.764 123.450  0.00  0.00    +0.015 C 
ATOM      8  C   LIG A   1      -7.553   0.725 124.903  0.00  0.00    +0.005 C 
ATOM      9  C   LIG A   1      -8.882   0.663 125.729  0.00  0.00    +0.170 C 
ATOM     10  O   LIG A   1      -9.722  -0.449 125.359  0.00  0.00    -0.347 OA
ATOM     11  C   LIG A   1      -6.685   1.879 125.478  0.00  0.00    +0.003 C 
ATOM     12  C   LIG A   1      -6.723   3.177 124.662  0.00  0.00    +0.004 C 
ATOM     13  C   LIG A   1      -6.043   4.316 125.424  0.00  0.00    +0.003 C 
ATOM     14  C   LIG A   1      -4.631   3.957 125.877  0.00  0.00    +0.031 C 
ATOM     15  C   LIG A   1      -4.571   2.636 126.653  0.00  0.00    +0.118 C 
ATOM     16  C   LIG A   1      -5.209   1.505 125.829  0.00  0.00    +0.025 C 
ATOM     17  C   LIG A   1      -5.096   0.104 126.499  0.00  0.00    +0.051 C 
ATOM     18  C   LIG A   1      -5.448  -0.889 125.412  0.00  0.00    +0.182 C 
ATOM     19  O   LIG A   1      -5.470  -2.304 125.623  0.00  0.00    -0.461 OA
ATOM     20  C   LIG A   1      -6.810  -0.612 124.888  0.00  0.00    +0.060 C 
ENDROOT
BRANCH   5  21
ATOM     21  O   LIG A   1      -9.761  -2.623 124.414  0.00  0.00    -0.351 OA
ATOM     22  C   LIG A   1      -9.736  -3.232 123.135  0.00  0.00    +0.197 C 
ENDBRANCH   5  21
BRANCH  15  23
ATOM     23  O   LIG A   1      -3.200   2.351 126.907  0.00  0.00    -0.392 OA
ATOM     24  H   LIG A   1      -3.131   1.964 127.797  0.00  0.00    +0.210 HD
ENDBRANCH  15  23
TORSDOF 2
ENDMDL
MODEL 4
REMARK VINA RESULT:      -7.1      1.813      3.579
REMARK  Name = NuBBE_2075
REMARK  4 active torsions:
REMARK  status: ('A' for Active; 'I' for Inactive)
REMARK    1  A    between atoms: C_3  and  C_4
REMARK    2  A    between atoms: C_5  and  O_6
REMARK    3  A    between atoms: O_6  and  C_7
REMARK    4  A    between atoms: C_17  and  O_19
REMARK                            x       y       z     vdW  Elec       q    Type
REMARK                         _______ _______ _______ _____ _____    ______ ____
ROOT
ATOM      1  O   LIG A   1      -6.205   3.355 122.688  0.00  0.00    -0.250 OA
ATOM      2  C   LIG A   1      -6.790   2.543 123.377  0.00  0.00    +0.319 C 
ATOM      3  C   LIG A   1      -6.949   2.501 124.876  0.00  0.00    +0.125 C 
ATOM      4  C   LIG A   1      -8.325   3.222 125.019  0.00  0.00    +0.029 C 
ATOM      5  C   LIG A   1      -5.958   2.935 125.996  0.00  0.00    +0.185 C 
ATOM      6  C   LIG A   1      -4.782   1.928 126.297  0.00  0.00    +0.067 C 
ATOM      7  C   LIG A   1      -5.345   0.518 126.741  0.00  0.00    +0.015 C 
ATOM      8  C   LIG A   1      -6.866   0.507 126.401  0.00  0.00    +0.005 C 
ATOM      9  C   LIG A   1      -7.393   1.600 127.391  0.00  0.00    +0.170 C 
ATOM     10  O   LIG A   1      -6.730   2.870 127.231  0.00  0.00    -0.347 OA
ATOM     11  C   LIG A   1      -7.739  -0.766 126.582  0.00  0.00    +0.003 C 
ATOM     12  C   LIG A   1      -7.095  -1.869 127.431  0.00  0.00    +0.004 C 
ATOM     13  C   LIG A   1      -8.110  -2.967 127.754  0.00  0.00    +0.003 C 
ATOM     14  C   LIG A   1      -8.792  -3.519 126.506  0.00  0.00    +0.031 C 
ATOM     15  C   LIG A   1      -9.399  -2.423 125.623  0.00  0.00    +0.118 C 
ATOM     16  C   LIG A   1      -8.333  -1.371 125.271  0.00  0.00    +0.025 C 
ATOM     17  C   LIG A   1      -8.838  -0.275 124.287  0.00  0.00    +0.051 C 
ATOM     18  C   LIG A   1      -7.591   0.430 123.800  0.00  0.00    +0.182 C 
ATOM     19  O   LIG A   1      -7.621   1.522 122.875  0.00  0.00    -0.461 OA
ATOM     20  C   LIG A   1      -6.840   0.995 124.951  0.00  0.00    +0.060 C 
ENDROOT
BRANCH   5  21
ATOM     21  O   LIG A   1      -5.541   4.263 125.726  0.00  0.00    -0.351 OA
ATOM     22  C   LIG A   1      -4.817   4.903 126.763  0.00  0.00    +0.197 C 
ENDBRANCH   5  21
BRANCH  15  23
ATOM     23  O   LIG A   1      -9.889  -3.047 124.442  0.00  0.00    -0.392 OA
ATOM     24  H   LIG A   1     -10.861  -3.028 124.470  0.00  0.00    +0.210 HD
ENDBRANCH  15  23
TORSDOF 2
ENDMDL
MODEL 5
REMARK VINA RESULT:      -7.0      4.210      7.986
REMARK  Name = NuBBE_2075
REMARK  4 active torsions:
REMARK  status: ('A' for Active; 'I' for Inactive)
REMARK    1  A    between atoms: C_3  and  C_4
REMARK    2  A    between atoms: C_5  and  O_6
REMARK    3  A    between atoms: O_6  and  C_7
REMARK    4  A    between atoms: C_17  and  O_19
REMARK                            x       y       z     vdW  Elec       q    Type
REMARK                         _______ _______ _______ _____ _____    ______ ____
ROOT
ATOM      1  O   LIG A   1      -6.381  -3.193 133.573  0.00  0.00    -0.250 OA
ATOM      2  C   LIG A   1      -6.419  -3.259 132.360  0.00  0.00    +0.319 C 
ATOM      3  C   LIG A   1      -5.288  -3.422 131.376  0.00  0.00    +0.125 C 
ATOM      4  C   LIG A   1      -5.309  -4.972 131.199  0.00  0.00    +0.029 C 
ATOM      5  C   LIG A   1      -3.832  -2.873 131.432  0.00  0.00    +0.185 C 
ATOM      6  C   LIG A   1      -3.660  -1.349 131.065  0.00  0.00    +0.067 C 
ATOM      7  C   LIG A   1      -4.175  -1.059 129.598  0.00  0.00    +0.015 C 
ATOM      8  C   LIG A   1      -4.986  -2.310 129.144  0.00  0.00    +0.005 C 
ATOM      9  C   LIG A   1      -3.850  -3.386 129.082  0.00  0.00    +0.170 C 
ATOM     10  O   LIG A   1      -3.139  -3.526 130.329  0.00  0.00    -0.347 OA
ATOM     11  C   LIG A   1      -5.755  -2.346 127.794  0.00  0.00    +0.003 C 
ATOM     12  C   LIG A   1      -5.374  -1.232 126.811  0.00  0.00    +0.004 C 
ATOM     13  C   LIG A   1      -5.994  -1.487 125.436  0.00  0.00    +0.003 C 
ATOM     14  C   LIG A   1      -7.503  -1.708 125.506  0.00  0.00    +0.031 C 
ATOM     15  C   LIG A   1      -7.901  -2.787 126.521  0.00  0.00    +0.118 C 
ATOM     16  C   LIG A   1      -7.308  -2.462 127.903  0.00  0.00    +0.025 C 
ATOM     17  C   LIG A   1      -7.752  -3.451 129.021  0.00  0.00    +0.051 C 
ATOM     18  C   LIG A   1      -7.371  -2.781 130.323  0.00  0.00    +0.182 C 
ATOM     19  O   LIG A   1      -7.604  -3.374 131.604  0.00  0.00    -0.461 OA
ATOM     20  C   LIG A   1      -5.911  -2.505 130.347  0.00  0.00    +0.060 C 
ENDROOT
BRANCH   5  21
ATOM     21  O   LIG A   1      -3.268  -3.246 132.679  0.00  0.00    -0.351 OA
ATOM     22  C   LIG A   1      -2.970  -2.179 133.563  0.00  0.00    +0.197 C 
ENDBRANCH   5  21
BRANCH  15  23
ATOM     23  O   LIG A   1      -9.322  -2.810 126.584  0.00  0.00    -0.392 OA
ATOM     24  H   LIG A   1      -9.584  -3.448 127.270  0.00  0.00    +0.210 HD
ENDBRANCH  15  23
TORSDOF 2
ENDMDL
MODEL 6
REMARK VINA RESULT:      -6.8      2.238      3.695
REMARK  Name = NuBBE_2075
REMARK  4 active torsions:
REMARK  status: ('A' for Active; 'I' for Inactive)
REMARK    1  A    between atoms: C_3  and  C_4
REMARK    2  A    between atoms: C_5  and  O_6
REMARK    3  A    between atoms: O_6  and  C_7
REMARK    4  A    between atoms: C_17  and  O_19
REMARK                            x       y       z     vdW  Elec       q    Type
REMARK                         _______ _______ _______ _____ _____    ______ ____
ROOT
ATOM      1  O   LIG A   1      -9.070   1.537 124.066  0.00  0.00    -0.250 OA
ATOM      2  C   LIG A   1      -8.582   1.127 125.101  0.00  0.00    +0.319 C 
ATOM      3  C   LIG A   1      -7.696  -0.072 125.332  0.00  0.00    +0.125 C 
ATOM      4  C   LIG A   1      -6.296   0.611 125.249  0.00  0.00    +0.029 C 
ATOM      5  C   LIG A   1      -7.697  -1.460 124.628  0.00  0.00    +0.185 C 
ATOM      6  C   LIG A   1      -8.825  -2.461 125.089  0.00  0.00    +0.067 C 
ATOM      7  C   LIG A   1      -8.715  -2.762 126.638  0.00  0.00    +0.015 C 
ATOM      8  C   LIG A   1      -7.741  -1.704 127.239  0.00  0.00    +0.005 C 
ATOM      9  C   LIG A   1      -6.400  -2.116 126.544  0.00  0.00    +0.170 C 
ATOM     10  O   LIG A   1      -6.493  -2.128 125.105  0.00  0.00    -0.347 OA
ATOM     11  C   LIG A   1      -7.478  -1.604 128.768  0.00  0.00    +0.003 C 
ATOM     12  C   LIG A   1      -7.955  -2.815 129.580  0.00  0.00    +0.004 C 
ATOM     13  C   LIG A   1      -7.442  -2.738 131.020  0.00  0.00    +0.003 C 
ATOM     14  C   LIG A   1      -7.789  -1.414 131.694  0.00  0.00    +0.031 C 
ATOM     15  C   LIG A   1      -7.361  -0.194 130.870  0.00  0.00    +0.118 C 
ATOM     16  C   LIG A   1      -7.946  -0.279 129.449  0.00  0.00    +0.025 C 
ATOM     17  C   LIG A   1      -7.648   0.975 128.575  0.00  0.00    +0.051 C 
ATOM     18  C   LIG A   1      -8.576   0.861 127.385  0.00  0.00    +0.182 C 
ATOM     19  O   LIG A   1      -8.610   1.824 126.326  0.00  0.00    -0.461 OA
ATOM     20  C   LIG A   1      -8.326  -0.414 126.662  0.00  0.00    +0.060 C 
ENDROOT
BRANCH   5  21
ATOM     21  O   LIG A   1      -7.638  -1.245 123.227  0.00  0.00    -0.351 OA
ATOM     22  C   LIG A   1      -6.527  -1.824 122.562  0.00  0.00    +0.197 C 
ENDBRANCH   5  21
BRANCH  15  23
ATOM     23  O   LIG A   1      -7.848   0.965 131.537  0.00  0.00    -0.392 OA
ATOM     24  H   LIG A   1      -7.591   1.745 131.016  0.00  0.00    +0.210 HD
ENDBRANCH  15  23
TORSDOF 2
ENDMDL
MODEL 7
REMARK VINA RESULT:      -6.8      2.540      4.885
REMARK  Name = NuBBE_2075
REMARK  4 active torsions:
REMARK  status: ('A' for Active; 'I' for Inactive)
REMARK    1  A    between atoms: C_3  and  C_4
REMARK    2  A    between atoms: C_5  and  O_6
REMARK    3  A    between atoms: O_6  and  C_7
REMARK    4  A    between atoms: C_17  and  O_19
REMARK                            x       y       z     vdW  Elec       q    Type
REMARK                         _______ _______ _______ _____ _____    ______ ____
ROOT
ATOM      1  O   LIG A   1      -7.847  -0.378 123.039  0.00  0.00    -0.250 OA
ATOM      2  C   LIG A   1      -7.456   0.238 124.011  0.00  0.00    +0.319 C 
ATOM      3  C   LIG A   1      -7.736   1.664 124.413  0.00  0.00    +0.125 C 
ATOM      4  C   LIG A   1      -8.948   1.440 125.369  0.00  0.00    +0.029 C 
ATOM      5  C   LIG A   1      -7.935   2.928 123.526  0.00  0.00    +0.185 C 
ATOM      6  C   LIG A   1      -6.617   3.567 122.939  0.00  0.00    +0.067 C 
ATOM      7  C   LIG A   1      -5.635   4.004 124.100  0.00  0.00    +0.015 C 
ATOM      8  C   LIG A   1      -6.158   3.344 125.411  0.00  0.00    +0.005 C 
ATOM      9  C   LIG A   1      -7.522   4.094 125.589  0.00  0.00    +0.170 C 
ATOM     10  O   LIG A   1      -8.387   3.967 124.443  0.00  0.00    -0.347 OA
ATOM     11  C   LIG A   1      -5.376   3.446 126.751  0.00  0.00    +0.003 C 
ATOM     12  C   LIG A   1      -4.272   4.510 126.768  0.00  0.00    +0.004 C 
ATOM     13  C   LIG A   1      -3.727   4.704 128.185  0.00  0.00    +0.003 C 
ATOM     14  C   LIG A   1      -3.280   3.392 128.824  0.00  0.00    +0.031 C 
ATOM     15  C   LIG A   1      -4.358   2.304 128.770  0.00  0.00    +0.118 C 
ATOM     16  C   LIG A   1      -4.835   2.097 127.322  0.00  0.00    +0.025 C 
ATOM     17  C   LIG A   1      -5.856   0.933 127.161  0.00  0.00    +0.051 C 
ATOM     18  C   LIG A   1      -5.927   0.666 125.673  0.00  0.00    +0.182 C 
ATOM     19  O   LIG A   1      -6.769  -0.339 125.098  0.00  0.00    -0.461 OA
ATOM     20  C   LIG A   1      -6.343   1.897 124.952  0.00  0.00    +0.060 C 
ENDROOT
BRANCH   5  21
ATOM     21  O   LIG A   1      -8.929   2.637 122.558  0.00  0.00    -0.351 OA
ATOM     22  C   LIG A   1      -8.794   3.306 121.316  0.00  0.00    +0.197 C 
ENDBRANCH   5  21
BRANCH  15  23
ATOM     23  O   LIG A   1      -3.781   1.105 129.277  0.00  0.00    -0.392 OA
ATOM     24  H   LIG A   1      -3.193   1.341 130.015  0.00  0.00    +0.210 HD
ENDBRANCH  15  23
TORSDOF 2
ENDMDL
MODEL 8
REMARK VINA RESULT:      -6.7      2.988      5.842
REMARK  Name = NuBBE_2075
REMARK  4 active torsions:
REMARK  status: ('A' for Active; 'I' for Inactive)
REMARK    1  A    between atoms: C_3  and  C_4
REMARK    2  A    between atoms: C_5  and  O_6
REMARK    3  A    between atoms: O_6  and  C_7
REMARK    4  A    between atoms: C_17  and  O_19
REMARK                            x       y       z     vdW  Elec       q    Type
REMARK                         _______ _______ _______ _____ _____    ______ ____
ROOT
ATOM      1  O   LIG A   1      -7.557  -3.269 130.679  0.00  0.00    -0.250 OA
ATOM      2  C   LIG A   1      -7.573  -3.014 129.491  0.00  0.00    +0.319 C 
ATOM      3  C   LIG A   1      -6.795  -1.972 128.727  0.00  0.00    +0.125 C 
ATOM      4  C   LIG A   1      -5.582  -2.835 128.259  0.00  0.00    +0.029 C 
ATOM      5  C   LIG A   1      -6.346  -0.546 129.163  0.00  0.00    +0.185 C 
ATOM      6  C   LIG A   1      -7.467   0.563 129.131  0.00  0.00    +0.067 C 
ATOM      7  C   LIG A   1      -8.064   0.723 127.675  0.00  0.00    +0.015 C 
ATOM      8  C   LIG A   1      -7.577  -0.504 126.846  0.00  0.00    +0.005 C 
ATOM      9  C   LIG A   1      -6.036  -0.230 126.799  0.00  0.00    +0.170 C 
ATOM     10  O   LIG A   1      -5.449  -0.093 128.108  0.00  0.00    -0.347 OA
ATOM     11  C   LIG A   1      -8.064  -0.759 125.393  0.00  0.00    +0.003 C 
ATOM     12  C   LIG A   1      -8.756   0.439 124.730  0.00  0.00    +0.004 C 
ATOM     13  C   LIG A   1      -8.980   0.179 123.239  0.00  0.00    +0.003 C 
ATOM     14  C   LIG A   1      -9.715  -1.133 122.978  0.00  0.00    +0.031 C 
ATOM     15  C   LIG A   1      -9.062  -2.332 123.674  0.00  0.00    +0.118 C 
ATOM     16  C   LIG A   1      -8.909  -2.055 125.180  0.00  0.00    +0.025 C 
ATOM     17  C   LIG A   1      -8.351  -3.266 125.985  0.00  0.00    +0.051 C 
ATOM     18  C   LIG A   1      -8.605  -2.931 127.439  0.00  0.00    +0.182 C 
ATOM     19  O   LIG A   1      -8.227  -3.794 128.516  0.00  0.00    -0.461 OA
ATOM     20  C   LIG A   1      -7.938  -1.651 127.792  0.00  0.00    +0.060 C 
ENDROOT
BRANCH   5  21
ATOM     21  O   LIG A   1      -5.662  -0.657 130.400  0.00  0.00    -0.351 OA
ATOM     22  C   LIG A   1      -4.377  -0.060 130.448  0.00  0.00    +0.197 C 
ENDBRANCH   5  21
BRANCH  15  23
ATOM     23  O   LIG A   1      -9.902  -3.460 123.461  0.00  0.00    -0.392 OA
ATOM     24  H   LIG A   1      -9.530  -4.212 123.954  0.00  0.00    +0.210 HD
ENDBRANCH  15  23
TORSDOF 2
ENDMDL
MODEL 9
REMARK VINA RESULT:      -6.7      7.020      9.560
REMARK  Name = NuBBE_2075
REMARK  4 active torsions:
REMARK  status: ('A' for Active; 'I' for Inactive)
REMARK    1  A    between atoms: C_3  and  C_4
REMARK    2  A    between atoms: C_5  and  O_6
REMARK    3  A    between atoms: O_6  and  C_7
REMARK    4  A    between atoms: C_17  and  O_19
REMARK                            x       y       z     vdW  Elec       q    Type
REMARK                         _______ _______ _______ _____ _____    ______ ____
ROOT
ATOM      1  O   LIG A   1      -7.247   4.277 134.790  0.00  0.00    -0.250 OA
ATOM      2  C   LIG A   1      -7.992   4.592 133.882  0.00  0.00    +0.319 C 
ATOM      3  C   LIG A   1      -7.745   4.577 132.395  0.00  0.00    +0.125 C 
ATOM      4  C   LIG A   1      -8.334   3.176 132.041  0.00  0.00    +0.029 C 
ATOM      5  C   LIG A   1      -6.439   4.865 131.599  0.00  0.00    +0.185 C 
ATOM      6  C   LIG A   1      -6.055   6.387 131.441  0.00  0.00    +0.067 C 
ATOM      7  C   LIG A   1      -7.200   7.184 130.695  0.00  0.00    +0.015 C 
ATOM      8  C   LIG A   1      -8.457   6.263 130.676  0.00  0.00    +0.005 C 
ATOM      9  C   LIG A   1      -7.955   5.106 129.748  0.00  0.00    +0.170 C 
ATOM     10  O   LIG A   1      -6.742   4.489 130.224  0.00  0.00    -0.347 OA
ATOM     11  C   LIG A   1      -9.827   6.755 130.131  0.00  0.00    +0.003 C 
ATOM     12  C   LIG A   1      -9.762   8.050 129.311  0.00  0.00    +0.004 C 
ATOM     13  C   LIG A   1     -11.100   8.322 128.620  0.00  0.00    +0.003 C 
ATOM     14  C   LIG A   1     -12.275   8.310 129.595  0.00  0.00    +0.031 C 
ATOM     15  C   LIG A   1     -12.324   7.042 130.455  0.00  0.00    +0.118 C 
ATOM     16  C   LIG A   1     -10.982   6.838 131.179  0.00  0.00    +0.025 C 
ATOM     17  C   LIG A   1     -10.979   5.628 132.160  0.00  0.00    +0.051 C 
ATOM     18  C   LIG A   1      -9.739   5.805 133.009  0.00  0.00    +0.182 C 
ATOM     19  O   LIG A   1      -9.361   4.887 134.041  0.00  0.00    -0.461 OA
ATOM     20  C   LIG A   1      -8.530   5.845 132.145  0.00  0.00    +0.060 C 
ENDROOT
BRANCH   5  21
ATOM     21  O   LIG A   1      -5.408   4.050 132.133  0.00  0.00    -0.351 OA
ATOM     22  C   LIG A   1      -4.337   4.741 132.754  0.00  0.00    +0.197 C 
ENDBRANCH   5  21
BRANCH  15  23
ATOM     23  O   LIG A   1     -13.376   7.207 131.399  0.00  0.00    -0.392 OA
ATOM     24  H   LIG A   1     -12.989   7.176 132.292  0.00  0.00    +0.210 HD
ENDBRANCH  15  23
TORSDOF 2
ENDMDL
