MODEL 1
REMARK VINA RESULT:      -6.8      0.000      0.000
REMARK  Name = NuBBE_269
REMARK  7 active torsions:
REMARK  status: ('A' for Active; 'I' for Inactive)
REMARK    1  A    between atoms: C_8  and  O_9
REMARK    2  A    between atoms: O_9  and  C_10
REMARK    3  A    between atoms: C_12  and  C_14
REMARK    4  A    between atoms: C_19  and  O_24
REMARK    5  A    between atoms: C_21  and  O_22
REMARK    6  A    between atoms: O_22  and  C_23
REMARK    7  A    between atoms: O_24  and  C_25
REMARK                            x       y       z     vdW  Elec       q    Type
REMARK                         _______ _______ _______ _____ _____    ______ ____
ROOT
ATOM      1 CL   LIG A   1      -6.464  -2.047 122.517  0.00  0.00    -0.076 Cl
ATOM      2  C   LIG A   1      -6.960  -1.269 123.976  0.00  0.00    +0.125 A 
ATOM      3  C   LIG A   1      -7.102   0.111 124.011  0.00  0.00    +0.159 A 
ATOM      4  O   LIG A   1      -6.883   0.938 122.936  0.00  0.00    -0.467 OA
ATOM      5  C   LIG A   1      -7.490   0.746 125.174  0.00  0.00    +0.107 A 
ATOM      6  C   LIG A   1      -7.558   2.156 124.852  0.00  0.00    +0.221 C 
ATOM      7  C   LIG A   1      -7.221   2.296 123.363  0.00  0.00    +0.231 C 
ATOM      8  C   LIG A   1      -8.436   2.721 122.542  0.00  0.00    +0.152 C 
ATOM      9  C   LIG A   1      -8.310   3.464 121.427  0.00  0.00    +0.091 C 
ATOM     10  C   LIG A   1      -5.976   3.184 123.116  0.00  0.00    +0.053 C 
ATOM     11  C   LIG A   1      -6.052   4.576 123.761  0.00  0.00    +0.013 C 
ATOM     12  C   LIG A   1      -5.745   3.324 121.604  0.00  0.00    +0.087 C 
ATOM     13  C   LIG A   1      -6.977   3.846 120.902  0.00  0.00    +0.160 C 
ATOM     14  O   LIG A   1      -6.910   4.521 119.878  0.00  0.00    -0.293 OA
ATOM     15  O   LIG A   1      -7.860   3.038 125.633  0.00  0.00    -0.287 OA
ATOM     16  C   LIG A   1      -7.241  -2.005 125.140  0.00  0.00    +0.145 A 
ATOM     17  C   LIG A   1      -7.623  -1.334 126.320  0.00  0.00    +0.093 A 
ATOM     18  C   LIG A   1      -7.766   0.058 126.345  0.00  0.00    +0.138 A 
ENDROOT
BRANCH   8  19
ATOM     19  O   LIG A   1      -9.641   2.252 123.041  0.00  0.00    -0.495 OA
ATOM     20  C   LIG A   1     -10.154   1.030 122.521  0.00  0.00    +0.277 C 
ENDBRANCH   8  19
BRANCH  18  21
ATOM     21  O   LIG A   1      -8.095   0.777 127.456  0.00  0.00    -0.494 OA
ATOM     22  C   LIG A   1      -7.411   0.433 128.656  0.00  0.00    +0.277 C 
ENDBRANCH  18  21
BRANCH  16  23
ATOM     23  O   LIG A   1      -7.061  -3.366 125.087  0.00  0.00    -0.493 OA
ATOM     24  C   LIG A   1      -8.230  -4.143 124.847  0.00  0.00    +0.277 C 
ENDBRANCH  16  23
TORSDOF 3
ENDMDL
MODEL 2
REMARK VINA RESULT:      -6.6      2.853      5.872
REMARK  Name = NuBBE_269
REMARK  7 active torsions:
REMARK  status: ('A' for Active; 'I' for Inactive)
REMARK    1  A    between atoms: C_8  and  O_9
REMARK    2  A    between atoms: O_9  and  C_10
REMARK    3  A    between atoms: C_12  and  C_14
REMARK    4  A    between atoms: C_19  and  O_24
REMARK    5  A    between atoms: C_21  and  O_22
REMARK    6  A    between atoms: O_22  and  C_23
REMARK    7  A    between atoms: O_24  and  C_25
REMARK                            x       y       z     vdW  Elec       q    Type
REMARK                         _______ _______ _______ _____ _____    ______ ____
ROOT
ATOM      1 CL   LIG A   1      -4.750   4.630 121.719  0.00  0.00    -0.076 Cl
ATOM      2  C   LIG A   1      -6.228   3.860 122.169  0.00  0.00    +0.125 A 
ATOM      3  C   LIG A   1      -6.382   3.353 123.452  0.00  0.00    +0.159 A 
ATOM      4  O   LIG A   1      -5.423   3.428 124.432  0.00  0.00    -0.467 OA
ATOM      5  C   LIG A   1      -7.556   2.729 123.822  0.00  0.00    +0.107 A 
ATOM      6  C   LIG A   1      -7.384   2.350 125.209  0.00  0.00    +0.221 C 
ATOM      7  C   LIG A   1      -6.006   2.859 125.647  0.00  0.00    +0.231 C 
ATOM      8  C   LIG A   1      -6.115   4.002 126.655  0.00  0.00    +0.152 C 
ATOM      9  C   LIG A   1      -5.179   4.200 127.601  0.00  0.00    +0.091 C 
ATOM     10  C   LIG A   1      -5.073   1.717 126.120  0.00  0.00    +0.053 C 
ATOM     11  C   LIG A   1      -5.669   0.824 127.220  0.00  0.00    +0.013 C 
ATOM     12  C   LIG A   1      -3.742   2.314 126.599  0.00  0.00    +0.087 C 
ATOM     13  C   LIG A   1      -3.958   3.362 127.666  0.00  0.00    +0.160 C 
ATOM     14  O   LIG A   1      -3.128   3.583 128.544  0.00  0.00    -0.293 OA
ATOM     15  O   LIG A   1      -8.211   1.766 125.882  0.00  0.00    -0.287 OA
ATOM     16  C   LIG A   1      -7.298   3.743 121.265  0.00  0.00    +0.145 A 
ATOM     17  C   LIG A   1      -8.483   3.089 121.661  0.00  0.00    +0.093 A 
ATOM     18  C   LIG A   1      -8.630   2.583 122.958  0.00  0.00    +0.138 A 
ENDROOT
BRANCH   8  19
ATOM     19  O   LIG A   1      -7.235   4.799 126.477  0.00  0.00    -0.495 OA
ATOM     20  C   LIG A   1      -8.184   4.871 127.536  0.00  0.00    +0.277 C 
ENDBRANCH   8  19
BRANCH  18  21
ATOM     21  O   LIG A   1      -9.729   1.908 123.399  0.00  0.00    -0.494 OA
ATOM     22  C   LIG A   1     -10.076   0.728 122.683  0.00  0.00    +0.277 C 
ENDBRANCH  18  21
BRANCH  16  23
ATOM     23  O   LIG A   1      -7.107   4.223 119.993  0.00  0.00    -0.493 OA
ATOM     24  C   LIG A   1      -8.266   4.287 119.166  0.00  0.00    +0.277 C 
ENDBRANCH  16  23
TORSDOF 3
ENDMDL
MODEL 3
REMARK VINA RESULT:      -6.4      2.669      3.539
REMARK  Name = NuBBE_269
REMARK  7 active torsions:
REMARK  status: ('A' for Active; 'I' for Inactive)
REMARK    1  A    between atoms: C_8  and  O_9
REMARK    2  A    between atoms: O_9  and  C_10
REMARK    3  A    between atoms: C_12  and  C_14
REMARK    4  A    between atoms: C_19  and  O_24
REMARK    5  A    between atoms: C_21  and  O_22
REMARK    6  A    between atoms: O_22  and  C_23
REMARK    7  A    between atoms: O_24  and  C_25
REMARK                            x       y       z     vdW  Elec       q    Type
REMARK                         _______ _______ _______ _____ _____    ______ ____
ROOT
ATOM      1 CL   LIG A   1      -9.401  -0.082 123.348  0.00  0.00    -0.076 Cl
ATOM      2  C   LIG A   1      -8.725  -0.614 124.845  0.00  0.00    +0.125 A 
ATOM      3  C   LIG A   1      -7.885   0.226 125.562  0.00  0.00    +0.159 A 
ATOM      4  O   LIG A   1      -7.545   1.498 125.169  0.00  0.00    -0.467 OA
ATOM      5  C   LIG A   1      -7.332  -0.190 126.756  0.00  0.00    +0.107 A 
ATOM      6  C   LIG A   1      -6.542   0.923 127.237  0.00  0.00    +0.221 C 
ATOM      7  C   LIG A   1      -6.720   2.069 126.233  0.00  0.00    +0.231 C 
ATOM      8  C   LIG A   1      -7.517   3.228 126.829  0.00  0.00    +0.152 C 
ATOM      9  C   LIG A   1      -7.307   4.500 126.444  0.00  0.00    +0.091 C 
ATOM     10  C   LIG A   1      -5.381   2.514 125.595  0.00  0.00    +0.053 C 
ATOM     11  C   LIG A   1      -4.285   2.881 126.609  0.00  0.00    +0.013 C 
ATOM     12  C   LIG A   1      -5.636   3.701 124.655  0.00  0.00    +0.087 C 
ATOM     13  C   LIG A   1      -6.341   4.832 125.370  0.00  0.00    +0.160 C 
ATOM     14  O   LIG A   1      -6.185   6.007 125.048  0.00  0.00    -0.293 OA
ATOM     15  O   LIG A   1      -5.893   0.929 128.266  0.00  0.00    -0.287 OA
ATOM     16  C   LIG A   1      -9.016  -1.885 125.370  0.00  0.00    +0.145 A 
ATOM     17  C   LIG A   1      -8.429  -2.293 126.585  0.00  0.00    +0.093 A 
ATOM     18  C   LIG A   1      -7.585  -1.438 127.303  0.00  0.00    +0.138 A 
ENDROOT
BRANCH   8  19
ATOM     19  O   LIG A   1      -8.465   2.835 127.759  0.00  0.00    -0.495 OA
ATOM     20  C   LIG A   1      -8.427   3.431 129.052  0.00  0.00    +0.277 C 
ENDBRANCH   8  19
BRANCH  18  21
ATOM     21  O   LIG A   1      -6.954  -1.778 128.462  0.00  0.00    -0.494 OA
ATOM     22  C   LIG A   1      -7.788  -2.192 129.539  0.00  0.00    +0.277 C 
ENDBRANCH  18  21
BRANCH  16  23
ATOM     23  O   LIG A   1      -9.824  -2.708 124.624  0.00  0.00    -0.493 OA
ATOM     24  C   LIG A   1      -9.162  -3.568 123.702  0.00  0.00    +0.277 C 
ENDBRANCH  16  23
TORSDOF 3
ENDMDL
MODEL 4
REMARK VINA RESULT:      -6.4      2.618      6.064
REMARK  Name = NuBBE_269
REMARK  7 active torsions:
REMARK  status: ('A' for Active; 'I' for Inactive)
REMARK    1  A    between atoms: C_8  and  O_9
REMARK    2  A    between atoms: O_9  and  C_10
REMARK    3  A    between atoms: C_12  and  C_14
REMARK    4  A    between atoms: C_19  and  O_24
REMARK    5  A    between atoms: C_21  and  O_22
REMARK    6  A    between atoms: O_22  and  C_23
REMARK    7  A    between atoms: O_24  and  C_25
REMARK                            x       y       z     vdW  Elec       q    Type
REMARK                         _______ _______ _______ _____ _____    ______ ____
ROOT
ATOM      1 CL   LIG A   1      -5.635   2.707 128.647  0.00  0.00    -0.076 Cl
ATOM      2  C   LIG A   1      -5.765   3.235 127.008  0.00  0.00    +0.125 A 
ATOM      3  C   LIG A   1      -6.221   2.359 126.034  0.00  0.00    +0.159 A 
ATOM      4  O   LIG A   1      -6.604   1.063 126.277  0.00  0.00    -0.467 OA
ATOM      5  C   LIG A   1      -6.322   2.766 124.719  0.00  0.00    +0.107 A 
ATOM      6  C   LIG A   1      -6.844   1.630 123.990  0.00  0.00    +0.221 C 
ATOM      7  C   LIG A   1      -7.096   0.515 125.013  0.00  0.00    +0.231 C 
ATOM      8  C   LIG A   1      -8.587   0.245 125.205  0.00  0.00    +0.152 C 
ATOM      9  C   LIG A   1      -9.046  -0.979 125.526  0.00  0.00    +0.091 C 
ATOM     10  C   LIG A   1      -6.277  -0.765 124.711  0.00  0.00    +0.053 C 
ATOM     11  C   LIG A   1      -6.464  -1.317 123.290  0.00  0.00    +0.013 C 
ATOM     12  C   LIG A   1      -6.633  -1.848 125.740  0.00  0.00    +0.087 C 
ATOM     13  C   LIG A   1      -8.121  -2.108 125.779  0.00  0.00    +0.160 C 
ATOM     14  O   LIG A   1      -8.585  -3.207 126.073  0.00  0.00    -0.293 OA
ATOM     15  O   LIG A   1      -7.062   1.605 122.794  0.00  0.00    -0.287 OA
ATOM     16  C   LIG A   1      -5.428   4.547 126.632  0.00  0.00    +0.145 A 
ATOM     17  C   LIG A   1      -5.527   4.936 125.281  0.00  0.00    +0.093 A 
ATOM     18  C   LIG A   1      -5.991   4.047 124.304  0.00  0.00    +0.138 A 
ENDROOT
BRANCH   8  19
ATOM     19  O   LIG A   1      -9.384   1.367 125.043  0.00  0.00    -0.495 OA
ATOM     20  C   LIG A   1     -10.389   1.337 124.034  0.00  0.00    +0.277 C 
ENDBRANCH   8  19
BRANCH  18  21
ATOM     21  O   LIG A   1      -6.077   4.341 122.976  0.00  0.00    -0.494 OA
ATOM     22  C   LIG A   1      -4.845   4.543 122.293  0.00  0.00    +0.277 C 
ENDBRANCH  18  21
BRANCH  16  23
ATOM     23  O   LIG A   1      -4.948   5.383 127.611  0.00  0.00    -0.493 OA
ATOM     24  C   LIG A   1      -3.534   5.551 127.653  0.00  0.00    +0.277 C 
ENDBRANCH  16  23
TORSDOF 3
ENDMDL
MODEL 5
REMARK VINA RESULT:      -6.4      4.341      8.498
REMARK  Name = NuBBE_269
REMARK  7 active torsions:
REMARK  status: ('A' for Active; 'I' for Inactive)
REMARK    1  A    between atoms: C_8  and  O_9
REMARK    2  A    between atoms: O_9  and  C_10
REMARK    3  A    between atoms: C_12  and  C_14
REMARK    4  A    between atoms: C_19  and  O_24
REMARK    5  A    between atoms: C_21  and  O_22
REMARK    6  A    between atoms: O_22  and  C_23
REMARK    7  A    between atoms: O_24  and  C_25
REMARK                            x       y       z     vdW  Elec       q    Type
REMARK                         _______ _______ _______ _____ _____    ______ ____
ROOT
ATOM      1 CL   LIG A   1      -9.597  -4.404 127.938  0.00  0.00    -0.076 Cl
ATOM      2  C   LIG A   1      -8.619  -3.014 127.638  0.00  0.00    +0.125 A 
ATOM      3  C   LIG A   1      -7.667  -2.623 128.570  0.00  0.00    +0.159 A 
ATOM      4  O   LIG A   1      -7.423  -3.285 129.748  0.00  0.00    -0.467 OA
ATOM      5  C   LIG A   1      -6.885  -1.509 128.346  0.00  0.00    +0.107 A 
ATOM      6  C   LIG A   1      -6.001  -1.409 129.488  0.00  0.00    +0.221 C 
ATOM      7  C   LIG A   1      -6.299  -2.609 130.395  0.00  0.00    +0.231 C 
ATOM      8  C   LIG A   1      -5.143  -3.607 130.417  0.00  0.00    +0.152 C 
ATOM      9  C   LIG A   1      -4.879  -4.358 131.502  0.00  0.00    +0.091 C 
ATOM     10  C   LIG A   1      -6.764  -2.183 131.810  0.00  0.00    +0.053 C 
ATOM     11  C   LIG A   1      -5.809  -1.217 132.528  0.00  0.00    +0.013 C 
ATOM     12  C   LIG A   1      -6.979  -3.436 132.671  0.00  0.00    +0.087 C 
ATOM     13  C   LIG A   1      -5.743  -4.304 132.705  0.00  0.00    +0.160 C 
ATOM     14  O   LIG A   1      -5.466  -5.011 133.671  0.00  0.00    -0.293 OA
ATOM     15  O   LIG A   1      -5.166  -0.540 129.653  0.00  0.00    -0.287 OA
ATOM     16  C   LIG A   1      -8.753  -2.264 126.456  0.00  0.00    +0.145 A 
ATOM     17  C   LIG A   1      -7.951  -1.122 126.256  0.00  0.00    +0.093 A 
ATOM     18  C   LIG A   1      -6.992  -0.737 127.200  0.00  0.00    +0.138 A 
ENDROOT
BRANCH   8  19
ATOM     19  O   LIG A   1      -4.436  -3.669 129.227  0.00  0.00    -0.495 OA
ATOM     20  C   LIG A   1      -3.014  -3.606 129.285  0.00  0.00    +0.277 C 
ENDBRANCH   8  19
BRANCH  18  21
ATOM     21  O   LIG A   1      -6.209   0.373 127.091  0.00  0.00    -0.494 OA
ATOM     22  C   LIG A   1      -5.239   0.364 126.049  0.00  0.00    +0.277 C 
ENDBRANCH  18  21
BRANCH  16  23
ATOM     23  O   LIG A   1      -9.725  -2.653 125.567  0.00  0.00    -0.493 OA
ATOM     24  C   LIG A   1      -9.265  -3.141 124.310  0.00  0.00    +0.277 C 
ENDBRANCH  16  23
TORSDOF 3
ENDMDL
MODEL 6
REMARK VINA RESULT:      -6.3      7.448     10.058
REMARK  Name = NuBBE_269
REMARK  7 active torsions:
REMARK  status: ('A' for Active; 'I' for Inactive)
REMARK    1  A    between atoms: C_8  and  O_9
REMARK    2  A    between atoms: O_9  and  C_10
REMARK    3  A    between atoms: C_12  and  C_14
REMARK    4  A    between atoms: C_19  and  O_24
REMARK    5  A    between atoms: C_21  and  O_22
REMARK    6  A    between atoms: O_22  and  C_23
REMARK    7  A    between atoms: O_24  and  C_25
REMARK                            x       y       z     vdW  Elec       q    Type
REMARK                         _______ _______ _______ _____ _____    ______ ____
ROOT
ATOM      1 CL   LIG A   1      -4.116   8.348 129.881  0.00  0.00    -0.076 Cl
ATOM      2  C   LIG A   1      -4.298   7.291 131.234  0.00  0.00    +0.125 A 
ATOM      3  C   LIG A   1      -5.509   6.650 131.453  0.00  0.00    +0.159 A 
ATOM      4  O   LIG A   1      -6.612   6.784 130.645  0.00  0.00    -0.467 OA
ATOM      5  C   LIG A   1      -5.671   5.809 132.535  0.00  0.00    +0.107 A 
ATOM      6  C   LIG A   1      -7.024   5.303 132.447  0.00  0.00    +0.221 C 
ATOM      7  C   LIG A   1      -7.641   5.887 131.170  0.00  0.00    +0.231 C 
ATOM      8  C   LIG A   1      -7.869   4.815 130.106  0.00  0.00    +0.152 C 
ATOM      9  C   LIG A   1      -8.877   4.904 129.219  0.00  0.00    +0.091 C 
ATOM     10  C   LIG A   1      -8.901   6.741 131.455  0.00  0.00    +0.053 C 
ATOM     11  C   LIG A   1      -9.985   6.020 132.270  0.00  0.00    +0.013 C 
ATOM     12  C   LIG A   1      -9.491   7.234 130.127  0.00  0.00    +0.087 C 
ATOM     13  C   LIG A   1      -9.772   6.085 129.185  0.00  0.00    +0.160 C 
ATOM     14  O   LIG A   1     -10.676   6.126 128.355  0.00  0.00    -0.293 OA
ATOM     15  O   LIG A   1      -7.537   4.533 133.237  0.00  0.00    -0.287 OA
ATOM     16  C   LIG A   1      -3.236   7.048 132.123  0.00  0.00    +0.145 A 
ATOM     17  C   LIG A   1      -3.429   6.195 133.229  0.00  0.00    +0.093 A 
ATOM     18  C   LIG A   1      -4.653   5.551 133.441  0.00  0.00    +0.138 A 
ENDROOT
BRANCH   8  19
ATOM     19  O   LIG A   1      -6.940   3.787 130.139  0.00  0.00    -0.495 OA
ATOM     20  C   LIG A   1      -6.007   3.690 129.068  0.00  0.00    +0.277 C 
ENDBRANCH   8  19
BRANCH  18  21
ATOM     21  O   LIG A   1      -4.923   4.745 134.506  0.00  0.00    -0.494 OA
ATOM     22  C   LIG A   1      -5.129   5.395 135.755  0.00  0.00    +0.277 C 
ENDBRANCH  18  21
BRANCH  16  23
ATOM     23  O   LIG A   1      -2.059   7.720 131.902  0.00  0.00    -0.493 OA
ATOM     24  C   LIG A   1      -0.866   7.025 132.249  0.00  0.00    +0.277 C 
ENDBRANCH  16  23
TORSDOF 3
ENDMDL
MODEL 7
REMARK VINA RESULT:      -6.1      3.130      6.926
REMARK  Name = NuBBE_269
REMARK  7 active torsions:
REMARK  status: ('A' for Active; 'I' for Inactive)
REMARK    1  A    between atoms: C_8  and  O_9
REMARK    2  A    between atoms: O_9  and  C_10
REMARK    3  A    between atoms: C_12  and  C_14
REMARK    4  A    between atoms: C_19  and  O_24
REMARK    5  A    between atoms: C_21  and  O_22
REMARK    6  A    between atoms: O_22  and  C_23
REMARK    7  A    between atoms: O_24  and  C_25
REMARK                            x       y       z     vdW  Elec       q    Type
REMARK                         _______ _______ _______ _____ _____    ______ ____
ROOT
ATOM      1 CL   LIG A   1      -3.396   2.585 128.840  0.00  0.00    -0.076 Cl
ATOM      2  C   LIG A   1      -4.268   2.773 127.362  0.00  0.00    +0.125 A 
ATOM      3  C   LIG A   1      -5.087   1.751 126.906  0.00  0.00    +0.159 A 
ATOM      4  O   LIG A   1      -5.278   0.561 127.566  0.00  0.00    -0.467 OA
ATOM      5  C   LIG A   1      -5.784   1.886 125.722  0.00  0.00    +0.107 A 
ATOM      6  C   LIG A   1      -6.542   0.663 125.566  0.00  0.00    +0.221 C 
ATOM      7  C   LIG A   1      -6.269  -0.199 126.805  0.00  0.00    +0.231 C 
ATOM      8  C   LIG A   1      -7.503  -0.321 127.696  0.00  0.00    +0.152 C 
ATOM      9  C   LIG A   1      -7.730  -1.419 128.441  0.00  0.00    +0.091 C 
ATOM     10  C   LIG A   1      -5.634  -1.566 126.450  0.00  0.00    +0.053 C 
ATOM     11  C   LIG A   1      -6.425  -2.384 125.417  0.00  0.00    +0.013 C 
ATOM     12  C   LIG A   1      -5.452  -2.389 127.733  0.00  0.00    +0.087 C 
ATOM     13  C   LIG A   1      -6.754  -2.534 128.488  0.00  0.00    +0.160 C 
ATOM     14  O   LIG A   1      -7.000  -3.514 129.186  0.00  0.00    -0.293 OA
ATOM     15  O   LIG A   1      -7.275   0.408 124.629  0.00  0.00    -0.287 OA
ATOM     16  C   LIG A   1      -4.180   3.955 126.605  0.00  0.00    +0.145 A 
ATOM     17  C   LIG A   1      -4.890   4.065 125.392  0.00  0.00    +0.093 A 
ATOM     18  C   LIG A   1      -5.716   3.029 124.941  0.00  0.00    +0.138 A 
ENDROOT
BRANCH   8  19
ATOM     19  O   LIG A   1      -8.323   0.795 127.672  0.00  0.00    -0.495 OA
ATOM     20  C   LIG A   1      -8.378   1.614 128.836  0.00  0.00    +0.277 C 
ENDBRANCH   8  19
BRANCH  18  21
ATOM     21  O   LIG A   1      -6.402   3.050 123.763  0.00  0.00    -0.494 OA
ATOM     22  C   LIG A   1      -5.858   3.864 122.730  0.00  0.00    +0.277 C 
ENDBRANCH  18  21
BRANCH  16  23
ATOM     23  O   LIG A   1      -3.337   4.938 127.062  0.00  0.00    -0.493 OA
ATOM     24  C   LIG A   1      -3.945   5.989 127.806  0.00  0.00    +0.277 C 
ENDBRANCH  16  23
TORSDOF 3
ENDMDL
MODEL 8
REMARK VINA RESULT:      -6.0      2.811      5.037
REMARK  Name = NuBBE_269
REMARK  7 active torsions:
REMARK  status: ('A' for Active; 'I' for Inactive)
REMARK    1  A    between atoms: C_8  and  O_9
REMARK    2  A    between atoms: O_9  and  C_10
REMARK    3  A    between atoms: C_12  and  C_14
REMARK    4  A    between atoms: C_19  and  O_24
REMARK    5  A    between atoms: C_21  and  O_22
REMARK    6  A    between atoms: O_22  and  C_23
REMARK    7  A    between atoms: O_24  and  C_25
REMARK                            x       y       z     vdW  Elec       q    Type
REMARK                         _______ _______ _______ _____ _____    ______ ____
ROOT
ATOM      1 CL   LIG A   1      -9.068   3.382 129.295  0.00  0.00    -0.076 Cl
ATOM      2  C   LIG A   1      -8.467   1.771 129.142  0.00  0.00    +0.125 A 
ATOM      3  C   LIG A   1      -8.285   1.217 127.883  0.00  0.00    +0.159 A 
ATOM      4  O   LIG A   1      -8.542   1.875 126.705  0.00  0.00    -0.467 OA
ATOM      5  C   LIG A   1      -7.813  -0.073 127.747  0.00  0.00    +0.107 A 
ATOM      6  C   LIG A   1      -7.724  -0.315 126.322  0.00  0.00    +0.221 C 
ATOM      7  C   LIG A   1      -8.142   0.981 125.618  0.00  0.00    +0.231 C 
ATOM      8  C   LIG A   1      -6.964   1.651 124.913  0.00  0.00    +0.152 C 
ATOM      9  C   LIG A   1      -7.133   2.384 123.797  0.00  0.00    +0.091 C 
ATOM     10  C   LIG A   1      -9.373   0.788 124.698  0.00  0.00    +0.053 C 
ATOM     11  C   LIG A   1      -9.221  -0.337 123.663  0.00  0.00    +0.013 C 
ATOM     12  C   LIG A   1      -9.686   2.111 123.985  0.00  0.00    +0.087 C 
ATOM     13  C   LIG A   1      -8.482   2.636 123.237  0.00  0.00    +0.160 C 
ATOM     14  O   LIG A   1      -8.589   3.315 122.219  0.00  0.00    -0.293 OA
ATOM     15  O   LIG A   1      -7.353  -1.354 125.811  0.00  0.00    -0.287 OA
ATOM     16  C   LIG A   1      -8.141   1.000 130.271  0.00  0.00    +0.145 A 
ATOM     17  C   LIG A   1      -7.673  -0.320 130.108  0.00  0.00    +0.093 A 
ATOM     18  C   LIG A   1      -7.490  -0.870 128.834  0.00  0.00    +0.138 A 
ENDROOT
BRANCH   8  19
ATOM     19  O   LIG A   1      -5.746   1.449 125.544  0.00  0.00    -0.495 OA
ATOM     20  C   LIG A   1      -5.099   2.572 126.133  0.00  0.00    +0.277 C 
ENDBRANCH   8  19
BRANCH  18  21
ATOM     21  O   LIG A   1      -7.078  -2.148 128.601  0.00  0.00    -0.494 OA
ATOM     22  C   LIG A   1      -8.039  -3.173 128.827  0.00  0.00    +0.277 C 
ENDBRANCH  18  21
BRANCH  16  23
ATOM     23  O   LIG A   1      -8.362   1.560 131.506  0.00  0.00    -0.493 OA
ATOM     24  C   LIG A   1      -9.658   1.360 132.062  0.00  0.00    +0.277 C 
ENDBRANCH  16  23
TORSDOF 3
ENDMDL
MODEL 9
REMARK VINA RESULT:      -6.0      2.974      7.062
REMARK  Name = NuBBE_269
REMARK  7 active torsions:
REMARK  status: ('A' for Active; 'I' for Inactive)
REMARK    1  A    between atoms: C_8  and  O_9
REMARK    2  A    between atoms: O_9  and  C_10
REMARK    3  A    between atoms: C_12  and  C_14
REMARK    4  A    between atoms: C_19  and  O_24
REMARK    5  A    between atoms: C_21  and  O_22
REMARK    6  A    between atoms: O_22  and  C_23
REMARK    7  A    between atoms: O_24  and  C_25
REMARK                            x       y       z     vdW  Elec       q    Type
REMARK                         _______ _______ _______ _____ _____    ______ ____
ROOT
ATOM      1 CL   LIG A   1      -9.013  -4.040 127.707  0.00  0.00    -0.076 Cl
ATOM      2  C   LIG A   1      -8.259  -2.699 126.924  0.00  0.00    +0.125 A 
ATOM      3  C   LIG A   1      -7.794  -1.630 127.676  0.00  0.00    +0.159 A 
ATOM      4  O   LIG A   1      -7.877  -1.555 129.046  0.00  0.00    -0.467 OA
ATOM      5  C   LIG A   1      -7.197  -0.548 127.062  0.00  0.00    +0.107 A 
ATOM      6  C   LIG A   1      -6.818   0.355 128.128  0.00  0.00    +0.221 C 
ATOM      7  C   LIG A   1      -7.203  -0.321 129.450  0.00  0.00    +0.231 C 
ATOM      8  C   LIG A   1      -5.974  -0.739 130.254  0.00  0.00    +0.152 C 
ATOM      9  C   LIG A   1      -5.990  -0.773 131.600  0.00  0.00    +0.091 C 
ATOM     10  C   LIG A   1      -8.216   0.514 130.272  0.00  0.00    +0.053 C 
ATOM     11  C   LIG A   1      -7.775   1.961 130.541  0.00  0.00    +0.013 C 
ATOM     12  C   LIG A   1      -8.499  -0.198 131.602  0.00  0.00    +0.087 C 
ATOM     13  C   LIG A   1      -7.224  -0.476 132.364  0.00  0.00    +0.160 C 
ATOM     14  O   LIG A   1      -7.193  -0.524 133.591  0.00  0.00    -0.293 OA
ATOM     15  O   LIG A   1      -6.269   1.429 127.974  0.00  0.00    -0.287 OA
ATOM     16  C   LIG A   1      -8.090  -2.666 125.528  0.00  0.00    +0.145 A 
ATOM     17  C   LIG A   1      -7.488  -1.544 124.922  0.00  0.00    +0.093 A 
ATOM     18  C   LIG A   1      -7.020  -0.471 125.690  0.00  0.00    +0.138 A 
ENDROOT
BRANCH   8  19
ATOM     19  O   LIG A   1      -4.886  -1.091 129.472  0.00  0.00    -0.495 OA
ATOM     20  C   LIG A   1      -4.501  -2.461 129.432  0.00  0.00    +0.277 C 
ENDBRANCH   8  19
BRANCH  18  21
ATOM     21  O   LIG A   1      -6.464   0.659 125.170  0.00  0.00    -0.494 OA
ATOM     22  C   LIG A   1      -7.335   1.514 124.438  0.00  0.00    +0.277 C 
ENDBRANCH  18  21
BRANCH  16  23
ATOM     23  O   LIG A   1      -8.588  -3.721 124.805  0.00  0.00    -0.493 OA
ATOM     24  C   LIG A   1      -9.391  -3.385 123.677  0.00  0.00    +0.277 C 
ENDBRANCH  16  23
TORSDOF 3
ENDMDL
