MODEL 1
REMARK VINA RESULT:      -7.9      0.000      0.000
REMARK  Name = NuBBE_2035
REMARK  7 active torsions:
REMARK  status: ('A' for Active; 'I' for Inactive)
REMARK    1  A    between atoms: C_1  and  C_2
REMARK    2  A    between atoms: C_5  and  O_11
REMARK    3  A    between atoms: C_6  and  C_10
REMARK    4  A    between atoms: C_7  and  O_8
REMARK    5  A    between atoms: O_8  and  C_9
REMARK    6  A    between atoms: C_14  and  C_16
REMARK    7  A    between atoms: C_21  and  O_22
REMARK                            x       y       z     vdW  Elec       q    Type
REMARK                         _______ _______ _______ _____ _____    ______ ____
ROOT
ATOM      1  C   LIG A   1      -7.198  -1.697 122.769  0.00  0.00    +0.051 C 
ATOM      2  C   LIG A   1      -6.597  -1.174 124.054  0.00  0.00    +0.034 A 
ATOM      3  C   LIG A   1      -6.580   0.209 124.319  0.00  0.00    +0.134 A 
ATOM      4  C   LIG A   1      -6.038   0.703 125.509  0.00  0.00    +0.036 A 
ATOM      5  C   LIG A   1      -5.578  -0.213 126.465  0.00  0.00    +0.130 A 
ATOM      6  C   LIG A   1      -5.574  -1.605 126.241  0.00  0.00    +0.033 A 
ATOM      7  C   LIG A   1      -6.064  -2.081 125.006  0.00  0.00    +0.133 A 
ATOM      8  C   LIG A   1      -5.105  -2.507 127.354  0.00  0.00    +0.051 C 
ATOM      9  C   LIG A   1      -5.969   2.185 125.741  0.00  0.00    +0.046 C 
ATOM     10  C   LIG A   1      -5.979   2.932 124.421  0.00  0.00    +0.054 C 
ATOM     11  C   LIG A   1      -7.156   2.434 123.590  0.00  0.00    +0.207 C 
ATOM     12  O   LIG A   1      -7.079   1.022 123.336  0.00  0.00    -0.483 OA
ENDROOT
BRANCH  11  13
ATOM     13  C   LIG A   1      -7.185   3.151 122.250  0.00  0.00    +0.038 A 
ATOM     14  C   LIG A   1      -6.041   3.826 121.781  0.00  0.00    +0.060 A 
ATOM     15  C   LIG A   1      -6.098   4.460 120.562  0.00  0.00    +0.167 A 
ATOM     16  C   LIG A   1      -7.248   4.459 119.802  0.00  0.00    +0.170 A 
ATOM     17  C   LIG A   1      -8.396   3.834 120.228  0.00  0.00    +0.095 A 
ATOM     18  C   LIG A   1      -8.360   3.183 121.463  0.00  0.00    +0.127 A 
ATOM     19  O   LIG A   1      -7.092   5.136 118.633  0.00  0.00    -0.453 OA
ATOM     20  C   LIG A   1      -5.713   5.549 118.738  0.00  0.00    +0.466 C 
ATOM     21  O   LIG A   1      -5.083   5.138 119.968  0.00  0.00    -0.453 OA
BRANCH  18  22
ATOM     22  O   LIG A   1      -9.483   2.564 121.939  0.00  0.00    -0.506 OA
ATOM     23  H   LIG A   1     -10.209   2.705 121.306  0.00  0.00    +0.292 HD
ENDBRANCH  18  22
ENDBRANCH  11  13
BRANCH   7  24
ATOM     24  O   LIG A   1      -6.166  -3.404 124.644  0.00  0.00    -0.494 OA
ATOM     25  C   LIG A   1      -5.027  -4.019 124.058  0.00  0.00    +0.277 C 
ENDBRANCH   7  24
BRANCH   5  26
ATOM     26  O   LIG A   1      -5.109   0.233 127.676  0.00  0.00    -0.506 OA
ATOM     27  H   LIG A   1      -5.724   0.889 128.037  0.00  0.00    +0.292 HD
ENDBRANCH   5  26
TORSDOF 4
ENDMDL
MODEL 2
REMARK VINA RESULT:      -7.8      7.992      9.323
REMARK  Name = NuBBE_2035
REMARK  7 active torsions:
REMARK  status: ('A' for Active; 'I' for Inactive)
REMARK    1  A    between atoms: C_1  and  C_2
REMARK    2  A    between atoms: C_5  and  O_11
REMARK    3  A    between atoms: C_6  and  C_10
REMARK    4  A    between atoms: C_7  and  O_8
REMARK    5  A    between atoms: O_8  and  C_9
REMARK    6  A    between atoms: C_14  and  C_16
REMARK    7  A    between atoms: C_21  and  O_22
REMARK                            x       y       z     vdW  Elec       q    Type
REMARK                         _______ _______ _______ _____ _____    ______ ____
ROOT
ATOM      1  C   LIG A   1      -9.765   1.954 132.244  0.00  0.00    +0.051 C 
ATOM      2  C   LIG A   1      -8.489   2.717 132.521  0.00  0.00    +0.034 A 
ATOM      3  C   LIG A   1      -8.416   4.098 132.253  0.00  0.00    +0.134 A 
ATOM      4  C   LIG A   1      -7.246   4.816 132.516  0.00  0.00    +0.036 A 
ATOM      5  C   LIG A   1      -6.172   4.147 133.120  0.00  0.00    +0.130 A 
ATOM      6  C   LIG A   1      -6.201   2.767 133.403  0.00  0.00    +0.033 A 
ATOM      7  C   LIG A   1      -7.366   2.045 133.069  0.00  0.00    +0.133 A 
ATOM      8  C   LIG A   1      -5.013   2.154 134.099  0.00  0.00    +0.051 C 
ATOM      9  C   LIG A   1      -7.167   6.273 132.161  0.00  0.00    +0.046 C 
ATOM     10  C   LIG A   1      -8.158   6.608 131.063  0.00  0.00    +0.054 C 
ATOM     11  C   LIG A   1      -9.530   6.088 131.472  0.00  0.00    +0.207 C 
ATOM     12  O   LIG A   1      -9.527   4.668 131.691  0.00  0.00    -0.483 OA
ENDROOT
BRANCH  11  13
ATOM     13  C   LIG A   1     -10.546   6.392 130.382  0.00  0.00    +0.038 A 
ATOM     14  C   LIG A   1     -10.125   6.577 129.051  0.00  0.00    +0.060 A 
ATOM     15  C   LIG A   1     -11.069   6.845 128.088  0.00  0.00    +0.167 A 
ATOM     16  C   LIG A   1     -12.408   6.948 128.399  0.00  0.00    +0.170 A 
ATOM     17  C   LIG A   1     -12.864   6.799 129.688  0.00  0.00    +0.095 A 
ATOM     18  C   LIG A   1     -11.922   6.525 130.682  0.00  0.00    +0.127 A 
ATOM     19  O   LIG A   1     -13.171   7.212 127.305  0.00  0.00    -0.453 OA
ATOM     20  C   LIG A   1     -12.165   7.248 126.271  0.00  0.00    +0.466 C 
ATOM     21  O   LIG A   1     -10.827   7.034 126.765  0.00  0.00    -0.453 OA
BRANCH  18  22
ATOM     22  O   LIG A   1     -12.325   6.388 131.981  0.00  0.00    -0.506 OA
ATOM     23  H   LIG A   1     -13.275   6.593 132.037  0.00  0.00    +0.292 HD
ENDBRANCH  18  22
ENDBRANCH  11  13
BRANCH   7  24
ATOM     24  O   LIG A   1      -7.574   0.706 133.311  0.00  0.00    -0.494 OA
ATOM     25  C   LIG A   1      -7.007  -0.226 132.401  0.00  0.00    +0.277 C 
ENDBRANCH   7  24
BRANCH   5  26
ATOM     26  O   LIG A   1      -5.035   4.838 133.462  0.00  0.00    -0.506 OA
ATOM     27  H   LIG A   1      -4.319   4.211 133.640  0.00  0.00    +0.292 HD
ENDBRANCH   5  26
TORSDOF 4
ENDMDL
MODEL 3
REMARK VINA RESULT:      -7.5      6.391      9.160
REMARK  Name = NuBBE_2035
REMARK  7 active torsions:
REMARK  status: ('A' for Active; 'I' for Inactive)
REMARK    1  A    between atoms: C_1  and  C_2
REMARK    2  A    between atoms: C_5  and  O_11
REMARK    3  A    between atoms: C_6  and  C_10
REMARK    4  A    between atoms: C_7  and  O_8
REMARK    5  A    between atoms: O_8  and  C_9
REMARK    6  A    between atoms: C_14  and  C_16
REMARK    7  A    between atoms: C_21  and  O_22
REMARK                            x       y       z     vdW  Elec       q    Type
REMARK                         _______ _______ _______ _____ _____    ______ ____
ROOT
ATOM      1  C   LIG A   1     -10.475   7.314 127.130  0.00  0.00    +0.051 C 
ATOM      2  C   LIG A   1     -10.730   6.901 128.563  0.00  0.00    +0.034 A 
ATOM      3  C   LIG A   1      -9.965   5.876 129.153  0.00  0.00    +0.134 A 
ATOM      4  C   LIG A   1     -10.183   5.494 130.479  0.00  0.00    +0.036 A 
ATOM      5  C   LIG A   1     -11.131   6.202 131.232  0.00  0.00    +0.130 A 
ATOM      6  C   LIG A   1     -11.920   7.231 130.682  0.00  0.00    +0.033 A 
ATOM      7  C   LIG A   1     -11.732   7.559 129.322  0.00  0.00    +0.133 A 
ATOM      8  C   LIG A   1     -12.875   7.964 131.589  0.00  0.00    +0.051 C 
ATOM      9  C   LIG A   1      -9.401   4.354 131.068  0.00  0.00    +0.046 C 
ATOM     10  C   LIG A   1      -8.901   3.431 129.974  0.00  0.00    +0.054 C 
ATOM     11  C   LIG A   1      -8.183   4.268 128.923  0.00  0.00    +0.207 C 
ATOM     12  O   LIG A   1      -9.042   5.264 128.346  0.00  0.00    -0.483 OA
ENDROOT
BRANCH  11  13
ATOM     13  C   LIG A   1      -7.684   3.372 127.799  0.00  0.00    +0.038 A 
ATOM     14  C   LIG A   1      -8.201   2.072 127.645  0.00  0.00    +0.060 A 
ATOM     15  C   LIG A   1      -7.733   1.289 126.616  0.00  0.00    +0.167 A 
ATOM     16  C   LIG A   1      -6.764   1.745 125.747  0.00  0.00    +0.170 A 
ATOM     17  C   LIG A   1      -6.212   2.998 125.872  0.00  0.00    +0.095 A 
ATOM     18  C   LIG A   1      -6.674   3.810 126.910  0.00  0.00    +0.127 A 
ATOM     19  O   LIG A   1      -6.446   0.820 124.802  0.00  0.00    -0.453 OA
ATOM     20  C   LIG A   1      -7.332  -0.260 125.166  0.00  0.00    +0.466 C 
ATOM     21  O   LIG A   1      -8.138   0.026 126.326  0.00  0.00    -0.453 OA
BRANCH  18  22
ATOM     22  O   LIG A   1      -6.142   5.057 127.087  0.00  0.00    -0.506 OA
ATOM     23  H   LIG A   1      -6.728   5.564 127.676  0.00  0.00    +0.292 HD
ENDBRANCH  18  22
ENDBRANCH  11  13
BRANCH   7  24
ATOM     24  O   LIG A   1     -12.388   8.558 128.642  0.00  0.00    -0.494 OA
ATOM     25  C   LIG A   1     -13.646   8.246 128.059  0.00  0.00    +0.277 C 
ENDBRANCH   7  24
BRANCH   5  26
ATOM     26  O   LIG A   1     -11.317   5.904 132.559  0.00  0.00    -0.506 OA
ATOM     27  H   LIG A   1     -11.266   6.718 133.082  0.00  0.00    +0.292 HD
ENDBRANCH   5  26
TORSDOF 4
ENDMDL
MODEL 4
REMARK VINA RESULT:      -7.5      4.665      9.680
REMARK  Name = NuBBE_2035
REMARK  7 active torsions:
REMARK  status: ('A' for Active; 'I' for Inactive)
REMARK    1  A    between atoms: C_1  and  C_2
REMARK    2  A    between atoms: C_5  and  O_11
REMARK    3  A    between atoms: C_6  and  C_10
REMARK    4  A    between atoms: C_7  and  O_8
REMARK    5  A    between atoms: O_8  and  C_9
REMARK    6  A    between atoms: C_14  and  C_16
REMARK    7  A    between atoms: C_21  and  O_22
REMARK                            x       y       z     vdW  Elec       q    Type
REMARK                         _______ _______ _______ _____ _____    ______ ____
ROOT
ATOM      1  C   LIG A   1      -5.203  -0.925 125.785  0.00  0.00    +0.051 C 
ATOM      2  C   LIG A   1      -6.536  -1.640 125.732  0.00  0.00    +0.034 A 
ATOM      3  C   LIG A   1      -7.109  -2.159 126.909  0.00  0.00    +0.134 A 
ATOM      4  C   LIG A   1      -8.345  -2.810 126.875  0.00  0.00    +0.036 A 
ATOM      5  C   LIG A   1      -9.036  -2.871 125.656  0.00  0.00    +0.130 A 
ATOM      6  C   LIG A   1      -8.499  -2.367 124.454  0.00  0.00    +0.033 A 
ATOM      7  C   LIG A   1      -7.220  -1.772 124.497  0.00  0.00    +0.133 A 
ATOM      8  C   LIG A   1      -9.343  -2.437 123.208  0.00  0.00    +0.051 C 
ATOM      9  C   LIG A   1      -8.907  -3.415 128.129  0.00  0.00    +0.046 C 
ATOM     10  C   LIG A   1      -7.797  -3.720 129.117  0.00  0.00    +0.054 C 
ATOM     11  C   LIG A   1      -6.948  -2.468 129.295  0.00  0.00    +0.207 C 
ATOM     12  O   LIG A   1      -6.372  -2.024 128.056  0.00  0.00    -0.483 OA
ENDROOT
BRANCH  11  13
ATOM     13  C   LIG A   1      -5.813  -2.745 130.267  0.00  0.00    +0.038 A 
ATOM     14  C   LIG A   1      -5.795  -3.937 131.017  0.00  0.00    +0.060 A 
ATOM     15  C   LIG A   1      -4.751  -4.160 131.883  0.00  0.00    +0.167 A 
ATOM     16  C   LIG A   1      -3.736  -3.241 132.042  0.00  0.00    +0.170 A 
ATOM     17  C   LIG A   1      -3.723  -2.053 131.350  0.00  0.00    +0.095 A 
ATOM     18  C   LIG A   1      -4.773  -1.806 130.464  0.00  0.00    +0.127 A 
ATOM     19  O   LIG A   1      -2.803  -3.655 132.940  0.00  0.00    -0.453 OA
ATOM     20  C   LIG A   1      -3.338  -4.942 133.316  0.00  0.00    +0.466 C 
ATOM     21  O   LIG A   1      -4.582  -5.260 132.662  0.00  0.00    -0.453 OA
BRANCH  18  22
ATOM     22  O   LIG A   1      -4.814  -0.630 129.768  0.00  0.00    -0.506 OA
ATOM     23  H   LIG A   1      -3.901  -0.327 129.613  0.00  0.00    +0.292 HD
ENDBRANCH  18  22
ENDBRANCH  11  13
BRANCH   7  24
ATOM     24  O   LIG A   1      -6.570  -1.198 123.428  0.00  0.00    -0.494 OA
ATOM     25  C   LIG A   1      -5.975  -2.066 122.472  0.00  0.00    +0.277 C 
ENDBRANCH   7  24
BRANCH   5  26
ATOM     26  O   LIG A   1     -10.286  -3.436 125.601  0.00  0.00    -0.506 OA
ATOM     27  H   LIG A   1     -10.203  -4.382 125.407  0.00  0.00    +0.292 HD
ENDBRANCH   5  26
TORSDOF 4
ENDMDL
MODEL 5
REMARK VINA RESULT:      -7.4      6.937      9.075
REMARK  Name = NuBBE_2035
REMARK  7 active torsions:
REMARK  status: ('A' for Active; 'I' for Inactive)
REMARK    1  A    between atoms: C_1  and  C_2
REMARK    2  A    between atoms: C_5  and  O_11
REMARK    3  A    between atoms: C_6  and  C_10
REMARK    4  A    between atoms: C_7  and  O_8
REMARK    5  A    between atoms: O_8  and  C_9
REMARK    6  A    between atoms: C_14  and  C_16
REMARK    7  A    between atoms: C_21  and  O_22
REMARK                            x       y       z     vdW  Elec       q    Type
REMARK                         _______ _______ _______ _____ _____    ______ ____
ROOT
ATOM      1  C   LIG A   1      -7.665   3.685 127.259  0.00  0.00    +0.051 C 
ATOM      2  C   LIG A   1      -6.496   4.177 128.084  0.00  0.00    +0.034 A 
ATOM      3  C   LIG A   1      -6.720   4.898 129.272  0.00  0.00    +0.134 A 
ATOM      4  C   LIG A   1      -5.648   5.346 130.049  0.00  0.00    +0.036 A 
ATOM      5  C   LIG A   1      -4.347   4.999 129.658  0.00  0.00    +0.130 A 
ATOM      6  C   LIG A   1      -4.077   4.281 128.476  0.00  0.00    +0.033 A 
ATOM      7  C   LIG A   1      -5.169   3.894 127.670  0.00  0.00    +0.133 A 
ATOM      8  C   LIG A   1      -2.647   3.914 128.171  0.00  0.00    +0.051 C 
ATOM      9  C   LIG A   1      -5.907   6.172 131.277  0.00  0.00    +0.046 C 
ATOM     10  C   LIG A   1      -7.252   6.866 131.177  0.00  0.00    +0.054 C 
ATOM     11  C   LIG A   1      -8.310   5.827 130.828  0.00  0.00    +0.207 C 
ATOM     12  O   LIG A   1      -8.027   5.163 129.587  0.00  0.00    -0.483 OA
ENDROOT
BRANCH  11  13
ATOM     13  C   LIG A   1      -9.671   6.494 130.703  0.00  0.00    +0.038 A 
ATOM     14  C   LIG A   1      -9.942   7.355 129.621  0.00  0.00    +0.060 A 
ATOM     15  C   LIG A   1     -11.184   7.938 129.533  0.00  0.00    +0.167 A 
ATOM     16  C   LIG A   1     -12.157   7.709 130.483  0.00  0.00    +0.170 A 
ATOM     17  C   LIG A   1     -11.931   6.897 131.568  0.00  0.00    +0.095 A 
ATOM     18  C   LIG A   1     -10.677   6.293 131.677  0.00  0.00    +0.127 A 
ATOM     19  O   LIG A   1     -13.310   8.375 130.207  0.00  0.00    -0.453 OA
ATOM     20  C   LIG A   1     -12.958   9.035 128.973  0.00  0.00    +0.466 C 
ATOM     21  O   LIG A   1     -11.604   8.775 128.550  0.00  0.00    -0.453 OA
BRANCH  18  22
ATOM     22  O   LIG A   1     -10.397   5.492 132.749  0.00  0.00    -0.506 OA
ATOM     23  H   LIG A   1     -10.836   4.633 132.619  0.00  0.00    +0.292 HD
ENDBRANCH  18  22
ENDBRANCH  11  13
BRANCH   7  24
ATOM     24  O   LIG A   1      -5.085   3.159 126.510  0.00  0.00    -0.494 OA
ATOM     25  C   LIG A   1      -4.844   3.860 125.298  0.00  0.00    +0.277 C 
ENDBRANCH   7  24
BRANCH   5  26
ATOM     26  O   LIG A   1      -3.275   5.358 130.437  0.00  0.00    -0.506 OA
ATOM     27  H   LIG A   1      -2.509   5.533 129.870  0.00  0.00    +0.292 HD
ENDBRANCH   5  26
TORSDOF 4
ENDMDL
MODEL 6
REMARK VINA RESULT:      -7.4      3.469      6.487
REMARK  Name = NuBBE_2035
REMARK  7 active torsions:
REMARK  status: ('A' for Active; 'I' for Inactive)
REMARK    1  A    between atoms: C_1  and  C_2
REMARK    2  A    between atoms: C_5  and  O_11
REMARK    3  A    between atoms: C_6  and  C_10
REMARK    4  A    between atoms: C_7  and  O_8
REMARK    5  A    between atoms: O_8  and  C_9
REMARK    6  A    between atoms: C_14  and  C_16
REMARK    7  A    between atoms: C_21  and  O_22
REMARK                            x       y       z     vdW  Elec       q    Type
REMARK                         _______ _______ _______ _____ _____    ______ ____
ROOT
ATOM      1  C   LIG A   1      -7.055   0.007 126.442  0.00  0.00    +0.051 C 
ATOM      2  C   LIG A   1      -7.563   0.787 125.250  0.00  0.00    +0.034 A 
ATOM      3  C   LIG A   1      -6.883   1.942 124.816  0.00  0.00    +0.134 A 
ATOM      4  C   LIG A   1      -7.336   2.664 123.708  0.00  0.00    +0.036 A 
ATOM      5  C   LIG A   1      -8.438   2.173 122.994  0.00  0.00    +0.130 A 
ATOM      6  C   LIG A   1      -9.149   1.024 123.394  0.00  0.00    +0.033 A 
ATOM      7  C   LIG A   1      -8.717   0.345 124.554  0.00  0.00    +0.133 A 
ATOM      8  C   LIG A   1     -10.289   0.550 122.529  0.00  0.00    +0.051 C 
ATOM      9  C   LIG A   1      -6.636   3.930 123.303  0.00  0.00    +0.046 C 
ATOM     10  C   LIG A   1      -5.898   4.532 124.484  0.00  0.00    +0.054 C 
ATOM     11  C   LIG A   1      -5.027   3.452 125.113  0.00  0.00    +0.207 C 
ATOM     12  O   LIG A   1      -5.799   2.326 125.561  0.00  0.00    -0.483 OA
ENDROOT
BRANCH  11  13
ATOM     13  C   LIG A   1      -4.285   4.018 126.314  0.00  0.00    +0.038 A 
ATOM     14  C   LIG A   1      -4.651   5.269 126.849  0.00  0.00    +0.060 A 
ATOM     15  C   LIG A   1      -3.964   5.750 127.938  0.00  0.00    +0.167 A 
ATOM     16  C   LIG A   1      -2.925   5.045 128.505  0.00  0.00    +0.170 A 
ATOM     17  C   LIG A   1      -2.517   3.831 128.004  0.00  0.00    +0.095 A 
ATOM     18  C   LIG A   1      -3.201   3.323 126.899  0.00  0.00    +0.127 A 
ATOM     19  O   LIG A   1      -2.386   5.692 129.573  0.00  0.00    -0.453 OA
ATOM     20  C   LIG A   1      -3.211   6.876 129.621  0.00  0.00    +0.466 C 
ATOM     21  O   LIG A   1      -4.203   6.926 128.575  0.00  0.00    -0.453 OA
BRANCH  18  22
ATOM     22  O   LIG A   1      -2.819   2.129 126.352  0.00  0.00    -0.506 OA
ATOM     23  H   LIG A   1      -3.100   2.109 125.420  0.00  0.00    +0.292 HD
ENDBRANCH  18  22
ENDBRANCH  11  13
BRANCH   7  24
ATOM     24  O   LIG A   1      -9.272  -0.809 125.057  0.00  0.00    -0.494 OA
ATOM     25  C   LIG A   1      -8.887  -2.041 124.464  0.00  0.00    +0.277 C 
ENDBRANCH   7  24
BRANCH   5  26
ATOM     26  O   LIG A   1      -8.863   2.815 121.857  0.00  0.00    -0.506 OA
ATOM     27  H   LIG A   1      -9.744   3.189 122.009  0.00  0.00    +0.292 HD
ENDBRANCH   5  26
TORSDOF 4
ENDMDL
MODEL 7
REMARK VINA RESULT:      -7.1      3.805      9.656
REMARK  Name = NuBBE_2035
REMARK  7 active torsions:
REMARK  status: ('A' for Active; 'I' for Inactive)
REMARK    1  A    between atoms: C_1  and  C_2
REMARK    2  A    between atoms: C_5  and  O_11
REMARK    3  A    between atoms: C_6  and  C_10
REMARK    4  A    between atoms: C_7  and  O_8
REMARK    5  A    between atoms: O_8  and  C_9
REMARK    6  A    between atoms: C_14  and  C_16
REMARK    7  A    between atoms: C_21  and  O_22
REMARK                            x       y       z     vdW  Elec       q    Type
REMARK                         _______ _______ _______ _____ _____    ______ ____
ROOT
ATOM      1  C   LIG A   1      -6.002   0.224 126.465  0.00  0.00    +0.051 C 
ATOM      2  C   LIG A   1      -7.017  -0.764 125.934  0.00  0.00    +0.034 A 
ATOM      3  C   LIG A   1      -7.649  -1.670 126.808  0.00  0.00    +0.134 A 
ATOM      4  C   LIG A   1      -8.598  -2.579 126.331  0.00  0.00    +0.036 A 
ATOM      5  C   LIG A   1      -8.960  -2.520 124.978  0.00  0.00    +0.130 A 
ATOM      6  C   LIG A   1      -8.352  -1.632 124.069  0.00  0.00    +0.033 A 
ATOM      7  C   LIG A   1      -7.348  -0.767 124.555  0.00  0.00    +0.133 A 
ATOM      8  C   LIG A   1      -8.849  -1.612 122.645  0.00  0.00    +0.051 C 
ATOM      9  C   LIG A   1      -9.210  -3.581 127.267  0.00  0.00    +0.046 C 
ATOM     10  C   LIG A   1      -8.299  -3.827 128.455  0.00  0.00    +0.054 C 
ATOM     11  C   LIG A   1      -7.920  -2.481 129.062  0.00  0.00    +0.207 C 
ATOM     12  O   LIG A   1      -7.250  -1.632 128.118  0.00  0.00    -0.483 OA
ENDROOT
BRANCH  11  13
ATOM     13  C   LIG A   1      -6.991  -2.690 130.247  0.00  0.00    +0.038 A 
ATOM     14  C   LIG A   1      -6.476  -3.971 130.528  0.00  0.00    +0.060 A 
ATOM     15  C   LIG A   1      -5.634  -4.126 131.604  0.00  0.00    +0.167 A 
ATOM     16  C   LIG A   1      -5.295  -3.063 132.413  0.00  0.00    +0.170 A 
ATOM     17  C   LIG A   1      -5.791  -1.800 132.193  0.00  0.00    +0.095 A 
ATOM     18  C   LIG A   1      -6.648  -1.620 131.105  0.00  0.00    +0.127 A 
ATOM     19  O   LIG A   1      -4.450  -3.428 133.414  0.00  0.00    -0.453 OA
ATOM     20  C   LIG A   1      -4.284  -4.834 133.133  0.00  0.00    +0.466 C 
ATOM     21  O   LIG A   1      -5.047  -5.286 131.996  0.00  0.00    -0.453 OA
BRANCH  18  22
ATOM     22  O   LIG A   1      -7.182  -0.386 130.857  0.00  0.00    -0.506 OA
ATOM     23  H   LIG A   1      -7.017  -0.157 129.925  0.00  0.00    +0.292 HD
ENDBRANCH  18  22
ENDBRANCH  11  13
BRANCH   7  24
ATOM     24  O   LIG A   1      -6.685   0.184 123.814  0.00  0.00    -0.494 OA
ATOM     25  C   LIG A   1      -7.380   1.384 123.503  0.00  0.00    +0.277 C 
ENDBRANCH   7  24
BRANCH   5  26
ATOM     26  O   LIG A   1      -9.943  -3.347 124.492  0.00  0.00    -0.506 OA
ATOM     27  H   LIG A   1      -9.605  -4.253 124.442  0.00  0.00    +0.292 HD
ENDBRANCH   5  26
TORSDOF 4
ENDMDL
MODEL 8
REMARK VINA RESULT:      -7.0      5.571      8.275
REMARK  Name = NuBBE_2035
REMARK  7 active torsions:
REMARK  status: ('A' for Active; 'I' for Inactive)
REMARK    1  A    between atoms: C_1  and  C_2
REMARK    2  A    between atoms: C_5  and  O_11
REMARK    3  A    between atoms: C_6  and  C_10
REMARK    4  A    between atoms: C_7  and  O_8
REMARK    5  A    between atoms: O_8  and  C_9
REMARK    6  A    between atoms: C_14  and  C_16
REMARK    7  A    between atoms: C_21  and  O_22
REMARK                            x       y       z     vdW  Elec       q    Type
REMARK                         _______ _______ _______ _____ _____    ______ ____
ROOT
ATOM      1  C   LIG A   1      -5.506  -5.453 130.737  0.00  0.00    +0.051 C 
ATOM      2  C   LIG A   1      -5.918  -4.248 131.555  0.00  0.00    +0.034 A 
ATOM      3  C   LIG A   1      -6.757  -3.265 130.996  0.00  0.00    +0.134 A 
ATOM      4  C   LIG A   1      -7.154  -2.154 131.746  0.00  0.00    +0.036 A 
ATOM      5  C   LIG A   1      -6.758  -2.078 133.089  0.00  0.00    +0.130 A 
ATOM      6  C   LIG A   1      -5.918  -3.038 133.688  0.00  0.00    +0.033 A 
ATOM      7  C   LIG A   1      -5.473  -4.117 132.895  0.00  0.00    +0.133 A 
ATOM      8  C   LIG A   1      -5.592  -2.890 135.152  0.00  0.00    +0.051 C 
ATOM      9  C   LIG A   1      -7.994  -1.083 131.111  0.00  0.00    +0.046 C 
ATOM     10  C   LIG A   1      -7.814  -1.089 129.605  0.00  0.00    +0.054 C 
ATOM     11  C   LIG A   1      -8.032  -2.509 129.095  0.00  0.00    +0.207 C 
ATOM     12  O   LIG A   1      -7.115  -3.443 129.686  0.00  0.00    -0.483 OA
ENDROOT
BRANCH  11  13
ATOM     13  C   LIG A   1      -7.841  -2.554 127.587  0.00  0.00    +0.038 A 
ATOM     14  C   LIG A   1      -8.939  -2.800 126.740  0.00  0.00    +0.060 A 
ATOM     15  C   LIG A   1      -8.734  -2.829 125.381  0.00  0.00    +0.167 A 
ATOM     16  C   LIG A   1      -7.482  -2.636 124.836  0.00  0.00    +0.170 A 
ATOM     17  C   LIG A   1      -6.377  -2.416 125.624  0.00  0.00    +0.095 A 
ATOM     18  C   LIG A   1      -6.563  -2.381 127.007  0.00  0.00    +0.127 A 
ATOM     19  O   LIG A   1      -7.498  -2.699 123.477  0.00  0.00    -0.453 OA
ATOM     20  C   LIG A   1      -8.900  -2.938 123.230  0.00  0.00    +0.466 C 
ATOM     21  O   LIG A   1      -9.685  -3.040 124.435  0.00  0.00    -0.453 OA
BRANCH  18  22
ATOM     22  O   LIG A   1      -5.491  -2.185 127.833  0.00  0.00    -0.506 OA
ATOM     23  H   LIG A   1      -4.911  -2.965 127.782  0.00  0.00    +0.292 HD
ENDBRANCH  18  22
ENDBRANCH  11  13
BRANCH   7  24
ATOM     24  O   LIG A   1      -4.684  -5.157 133.332  0.00  0.00    -0.494 OA
ATOM     25  C   LIG A   1      -3.286  -4.925 133.440  0.00  0.00    +0.277 C 
ENDBRANCH   7  24
BRANCH   5  26
ATOM     26  O   LIG A   1      -7.192  -1.040 133.877  0.00  0.00    -0.506 OA
ATOM     27  H   LIG A   1      -6.905  -1.187 134.790  0.00  0.00    +0.292 HD
ENDBRANCH   5  26
TORSDOF 4
ENDMDL
MODEL 9
REMARK VINA RESULT:      -6.9      6.637      8.274
REMARK  Name = NuBBE_2035
REMARK  7 active torsions:
REMARK  status: ('A' for Active; 'I' for Inactive)
REMARK    1  A    between atoms: C_1  and  C_2
REMARK    2  A    between atoms: C_5  and  O_11
REMARK    3  A    between atoms: C_6  and  C_10
REMARK    4  A    between atoms: C_7  and  O_8
REMARK    5  A    between atoms: O_8  and  C_9
REMARK    6  A    between atoms: C_14  and  C_16
REMARK    7  A    between atoms: C_21  and  O_22
REMARK                            x       y       z     vdW  Elec       q    Type
REMARK                         _______ _______ _______ _____ _____    ______ ____
ROOT
ATOM      1  C   LIG A   1      -8.563   1.450 127.765  0.00  0.00    +0.051 C 
ATOM      2  C   LIG A   1      -8.267   1.200 129.227  0.00  0.00    +0.034 A 
ATOM      3  C   LIG A   1      -8.852   2.011 130.219  0.00  0.00    +0.134 A 
ATOM      4  C   LIG A   1      -8.596   1.781 131.574  0.00  0.00    +0.036 A 
ATOM      5  C   LIG A   1      -7.802   0.680 131.927  0.00  0.00    +0.130 A 
ATOM      6  C   LIG A   1      -7.196  -0.155 130.968  0.00  0.00    +0.033 A 
ATOM      7  C   LIG A   1      -7.412   0.132 129.604  0.00  0.00    +0.133 A 
ATOM      8  C   LIG A   1      -6.402  -1.342 131.453  0.00  0.00    +0.051 C 
ATOM      9  C   LIG A   1      -9.176   2.699 132.611  0.00  0.00    +0.046 C 
ATOM     10  C   LIG A   1      -9.485   4.056 132.009  0.00  0.00    +0.054 C 
ATOM     11  C   LIG A   1     -10.318   3.850 130.750  0.00  0.00    +0.207 C 
ATOM     12  O   LIG A   1      -9.637   3.043 129.776  0.00  0.00    -0.483 OA
ENDROOT
BRANCH  11  13
ATOM     13  C   LIG A   1     -10.631   5.193 130.109  0.00  0.00    +0.038 A 
ATOM     14  C   LIG A   1     -11.948   5.692 130.112  0.00  0.00    +0.060 A 
ATOM     15  C   LIG A   1     -12.197   6.912 129.529  0.00  0.00    +0.167 A 
ATOM     16  C   LIG A   1     -11.193   7.645 128.935  0.00  0.00    +0.170 A 
ATOM     17  C   LIG A   1      -9.897   7.189 128.886  0.00  0.00    +0.095 A 
ATOM     18  C   LIG A   1      -9.621   5.953 129.473  0.00  0.00    +0.127 A 
ATOM     19  O   LIG A   1     -11.648   8.821 128.425  0.00  0.00    -0.453 OA
ATOM     20  C   LIG A   1     -13.046   8.749 128.777  0.00  0.00    +0.466 C 
ATOM     21  O   LIG A   1     -13.403   7.532 129.462  0.00  0.00    -0.453 OA
BRANCH  18  22
ATOM     22  O   LIG A   1      -8.351   5.448 129.433  0.00  0.00    -0.506 OA
ATOM     23  H   LIG A   1      -8.260   4.895 128.637  0.00  0.00    +0.292 HD
ENDBRANCH  18  22
ENDBRANCH  11  13
BRANCH   7  24
ATOM     24  O   LIG A   1      -6.928  -0.602 128.546  0.00  0.00    -0.494 OA
ATOM     25  C   LIG A   1      -5.576  -0.397 128.162  0.00  0.00    +0.277 C 
ENDBRANCH   7  24
BRANCH   5  26
ATOM     26  O   LIG A   1      -7.592   0.380 133.250  0.00  0.00    -0.506 OA
ATOM     27  H   LIG A   1      -6.960  -0.351 133.318  0.00  0.00    +0.292 HD
ENDBRANCH   5  26
TORSDOF 4
ENDMDL
