MODEL 1
REMARK VINA RESULT:      -8.7      0.000      0.000
REMARK  Name = NuBBE_1131
REMARK  13 active torsions:
REMARK  status: ('A' for Active; 'I' for Inactive)
REMARK    1  A    between atoms: C_1  and  C_2
REMARK    2  A    between atoms: C_3  and  C_25
REMARK    3  A    between atoms: C_7  and  C_24
REMARK    4  A    between atoms: C_12  and  C_13
REMARK    5  A    between atoms: C_12  and  C_23
REMARK    6  A    between atoms: C_25  and  C_27
REMARK    7  A    between atoms: C_25  and  C_28
REMARK    8  A    between atoms: C_28  and  C_29
REMARK    9  A    between atoms: C_29  and  C_30
REMARK   10  A    between atoms: C_30  and  C_31
REMARK   11  A    between atoms: C_31  and  C_32
REMARK   12  A    between atoms: C_31  and  C_33
REMARK   13  A    between atoms: C_33  and  O_34
REMARK                            x       y       z     vdW  Elec       q    Type
REMARK                         _______ _______ _______ _____ _____    ______ ____
ROOT
ATOM      1  C   LIG A   1      -9.380  -3.064 123.360  0.00  0.00    +0.012 C 
ATOM      2  C   LIG A   1      -8.748  -2.185 124.481  0.00  0.00    -0.023 C 
ATOM      3  C   LIG A   1      -8.769  -0.678 123.902  0.00  0.00    -0.002 C 
ATOM      4  C   LIG A   1      -7.286  -0.315 123.682  0.00  0.00    +0.005 C 
ATOM      5  C   LIG A   1      -6.542  -1.641 123.614  0.00  0.00    +0.008 C 
ATOM      6  C   LIG A   1      -7.207  -2.531 124.689  0.00  0.00    -0.023 C 
ATOM      7  C   LIG A   1      -6.710  -2.091 126.121  0.00  0.00    +0.002 C 
ATOM      8  C   LIG A   1      -5.271  -2.510 126.464  0.00  0.00    +0.005 C 
ATOM      9  C   LIG A   1      -4.834  -1.836 127.765  0.00  0.00    +0.005 C 
ATOM     10  C   LIG A   1      -5.605  -2.408 128.965  0.00  0.00    +0.009 C 
ATOM     11  C   LIG A   1      -5.300  -1.715 130.330  0.00  0.00    +0.027 C 
ATOM     12  C   LIG A   1      -3.804  -1.845 130.666  0.00  0.00    +0.019 C 
ATOM     13  C   LIG A   1      -6.125  -2.426 131.419  0.00  0.00    +0.139 C 
ATOM     14  C   LIG A   1      -7.582  -2.738 131.150  0.00  0.00    +0.075 C 
ATOM     15  C   LIG A   1      -7.761  -3.389 129.787  0.00  0.00    +0.015 C 
ATOM     16  C   LIG A   1      -7.114  -2.530 128.721  0.00  0.00    -0.019 C 
ATOM     17  C   LIG A   1      -7.915  -1.343 128.253  0.00  0.00    +0.015 C 
ATOM     18  C   LIG A   1      -7.653  -2.474 127.272  0.00  0.00    -0.019 C 
ATOM     19  C   LIG A   1      -8.868  -3.257 126.841  0.00  0.00    +0.008 C 
ATOM     20  C   LIG A   1      -9.586  -2.461 125.757  0.00  0.00    +0.008 C 
ATOM     21  O   LIG A   1      -5.657  -2.643 132.556  0.00  0.00    -0.297 OA
ATOM     22  C   LIG A   1      -5.664  -0.219 130.377  0.00  0.00    +0.019 C 
ATOM     23  C   LIG A   1      -6.809  -3.996 124.381  0.00  0.00    +0.012 C 
ENDROOT
BRANCH   3  24
ATOM     24  C   LIG A   1      -9.565   0.476 124.605  0.00  0.00    -0.010 C 
ATOM     25  C   LIG A   1      -9.865   1.652 123.657  0.00  0.00    +0.008 C 
BRANCH  24  26
ATOM     26  C   LIG A   1      -8.868   1.054 125.893  0.00  0.00    +0.008 C 
BRANCH  26  27
ATOM     27  C   LIG A   1      -8.203   2.439 125.741  0.00  0.00    +0.031 C 
BRANCH  27  28
ATOM     28  C   LIG A   1      -6.682   2.459 125.889  0.00  0.00    -0.072 C 
ATOM     29  C   LIG A   1      -6.069   1.563 126.687  0.00  0.00    +0.008 C 
BRANCH  28  30
ATOM     30  C   LIG A   1      -5.830   3.427 125.058  0.00  0.00    +0.037 C 
ATOM     31  C   LIG A   1      -6.262   3.508 123.587  0.00  0.00    +0.014 C 
BRANCH  30  32
ATOM     32  C   LIG A   1      -5.752   4.832 125.672  0.00  0.00    +0.163 C 
BRANCH  32  33
ATOM     33  O   LIG A   1      -6.576   5.740 124.945  0.00  0.00    -0.394 OA
ATOM     34  H   LIG A   1      -6.996   6.326 125.598  0.00  0.00    +0.209 HD
ENDBRANCH  32  33
ENDBRANCH  30  32
ENDBRANCH  28  30
ENDBRANCH  27  28
ENDBRANCH  26  27
ENDBRANCH  24  26
ENDBRANCH   3  24
TORSDOF 7
ENDMDL
MODEL 2
REMARK VINA RESULT:      -8.4      1.544      6.005
REMARK  Name = NuBBE_1131
REMARK  13 active torsions:
REMARK  status: ('A' for Active; 'I' for Inactive)
REMARK    1  A    between atoms: C_1  and  C_2
REMARK    2  A    between atoms: C_3  and  C_25
REMARK    3  A    between atoms: C_7  and  C_24
REMARK    4  A    between atoms: C_12  and  C_13
REMARK    5  A    between atoms: C_12  and  C_23
REMARK    6  A    between atoms: C_25  and  C_27
REMARK    7  A    between atoms: C_25  and  C_28
REMARK    8  A    between atoms: C_28  and  C_29
REMARK    9  A    between atoms: C_29  and  C_30
REMARK   10  A    between atoms: C_30  and  C_31
REMARK   11  A    between atoms: C_31  and  C_32
REMARK   12  A    between atoms: C_31  and  C_33
REMARK   13  A    between atoms: C_33  and  O_34
REMARK                            x       y       z     vdW  Elec       q    Type
REMARK                         _______ _______ _______ _____ _____    ______ ____
ROOT
ATOM      1  C   LIG A   1      -6.353  -4.022 124.222  0.00  0.00    +0.012 C 
ATOM      2  C   LIG A   1      -6.888  -2.827 125.066  0.00  0.00    -0.023 C 
ATOM      3  C   LIG A   1      -8.132  -3.422 125.906  0.00  0.00    -0.002 C 
ATOM      4  C   LIG A   1      -9.378  -2.723 125.322  0.00  0.00    +0.005 C 
ATOM      5  C   LIG A   1      -8.961  -2.213 123.951  0.00  0.00    +0.008 C 
ATOM      6  C   LIG A   1      -7.515  -1.696 124.136  0.00  0.00    -0.023 C 
ATOM      7  C   LIG A   1      -7.546  -0.300 124.873  0.00  0.00    +0.002 C 
ATOM      8  C   LIG A   1      -8.007   0.881 124.003  0.00  0.00    +0.005 C 
ATOM      9  C   LIG A   1      -8.210   2.118 124.880  0.00  0.00    +0.005 C 
ATOM     10  C   LIG A   1      -6.867   2.643 125.409  0.00  0.00    +0.009 C 
ATOM     11  C   LIG A   1      -6.977   3.847 126.395  0.00  0.00    +0.027 C 
ATOM     12  C   LIG A   1      -7.672   5.035 125.704  0.00  0.00    +0.019 C 
ATOM     13  C   LIG A   1      -5.550   4.264 126.798  0.00  0.00    +0.139 C 
ATOM     14  C   LIG A   1      -4.552   3.192 127.178  0.00  0.00    +0.075 C 
ATOM     15  C   LIG A   1      -4.546   2.062 126.160  0.00  0.00    +0.015 C 
ATOM     16  C   LIG A   1      -5.955   1.542 125.965  0.00  0.00    -0.019 C 
ATOM     17  C   LIG A   1      -6.458   0.586 127.015  0.00  0.00    +0.015 C 
ATOM     18  C   LIG A   1      -6.244   0.066 125.602  0.00  0.00    -0.019 C 
ATOM     19  C   LIG A   1      -5.139  -0.947 125.443  0.00  0.00    +0.008 C 
ATOM     20  C   LIG A   1      -5.674  -2.306 125.879  0.00  0.00    +0.008 C 
ATOM     21  O   LIG A   1      -5.234   5.464 126.934  0.00  0.00    -0.297 OA
ATOM     22  C   LIG A   1      -7.751   3.538 127.690  0.00  0.00    +0.019 C 
ATOM     23  C   LIG A   1      -6.888  -1.574 122.725  0.00  0.00    +0.012 C 
ENDROOT
BRANCH   3  24
ATOM     24  C   LIG A   1      -8.146  -3.449 127.474  0.00  0.00    -0.010 C 
ATOM     25  C   LIG A   1      -9.386  -4.162 128.044  0.00  0.00    +0.008 C 
BRANCH  24  26
ATOM     26  C   LIG A   1      -8.047  -2.029 128.147  0.00  0.00    +0.008 C 
BRANCH  26  27
ATOM     27  C   LIG A   1      -7.513  -2.001 129.596  0.00  0.00    +0.031 C 
BRANCH  27  28
ATOM     28  C   LIG A   1      -6.166  -2.688 129.815  0.00  0.00    -0.072 C 
ATOM     29  C   LIG A   1      -6.111  -3.889 130.426  0.00  0.00    +0.008 C 
BRANCH  28  30
ATOM     30  C   LIG A   1      -4.876  -2.073 129.256  0.00  0.00    +0.037 C 
ATOM     31  C   LIG A   1      -4.512  -0.731 129.906  0.00  0.00    +0.014 C 
BRANCH  30  32
ATOM     32  C   LIG A   1      -3.683  -3.037 129.311  0.00  0.00    +0.163 C 
BRANCH  32  33
ATOM     33  O   LIG A   1      -2.500  -2.344 129.699  0.00  0.00    -0.394 OA
ATOM     34  H   LIG A   1      -2.767  -1.442 129.945  0.00  0.00    +0.209 HD
ENDBRANCH  32  33
ENDBRANCH  30  32
ENDBRANCH  28  30
ENDBRANCH  27  28
ENDBRANCH  26  27
ENDBRANCH  24  26
ENDBRANCH   3  24
TORSDOF 7
ENDMDL
MODEL 3
REMARK VINA RESULT:      -8.2      2.734      7.955
REMARK  Name = NuBBE_1131
REMARK  13 active torsions:
REMARK  status: ('A' for Active; 'I' for Inactive)
REMARK    1  A    between atoms: C_1  and  C_2
REMARK    2  A    between atoms: C_3  and  C_25
REMARK    3  A    between atoms: C_7  and  C_24
REMARK    4  A    between atoms: C_12  and  C_13
REMARK    5  A    between atoms: C_12  and  C_23
REMARK    6  A    between atoms: C_25  and  C_27
REMARK    7  A    between atoms: C_25  and  C_28
REMARK    8  A    between atoms: C_28  and  C_29
REMARK    9  A    between atoms: C_29  and  C_30
REMARK   10  A    between atoms: C_30  and  C_31
REMARK   11  A    between atoms: C_31  and  C_32
REMARK   12  A    between atoms: C_31  and  C_33
REMARK   13  A    between atoms: C_33  and  O_34
REMARK                            x       y       z     vdW  Elec       q    Type
REMARK                         _______ _______ _______ _____ _____    ______ ____
ROOT
ATOM      1  C   LIG A   1      -8.317   1.617 128.568  0.00  0.00    +0.012 C 
ATOM      2  C   LIG A   1      -7.509   1.498 127.241  0.00  0.00    -0.023 C 
ATOM      3  C   LIG A   1      -6.402   0.356 127.518  0.00  0.00    -0.002 C 
ATOM      4  C   LIG A   1      -5.051   1.101 127.513  0.00  0.00    +0.005 C 
ATOM      5  C   LIG A   1      -5.386   2.565 127.759  0.00  0.00    +0.008 C 
ATOM      6  C   LIG A   1      -6.677   2.824 126.948  0.00  0.00    -0.023 C 
ATOM      7  C   LIG A   1      -6.320   2.951 125.416  0.00  0.00    +0.002 C 
ATOM      8  C   LIG A   1      -5.637   4.269 125.016  0.00  0.00    +0.005 C 
ATOM      9  C   LIG A   1      -5.143   4.176 123.572  0.00  0.00    +0.005 C 
ATOM     10  C   LIG A   1      -6.322   4.142 122.589  0.00  0.00    +0.009 C 
ATOM     11  C   LIG A   1      -5.922   3.949 121.093  0.00  0.00    +0.027 C 
ATOM     12  C   LIG A   1      -5.005   5.098 120.638  0.00  0.00    +0.019 C 
ATOM     13  C   LIG A   1      -7.211   3.970 120.249  0.00  0.00    +0.139 C 
ATOM     14  C   LIG A   1      -8.409   3.171 120.719  0.00  0.00    +0.075 C 
ATOM     15  C   LIG A   1      -8.691   3.421 122.192  0.00  0.00    +0.015 C 
ATOM     16  C   LIG A   1      -7.437   3.172 123.003  0.00  0.00    -0.019 C 
ATOM     17  C   LIG A   1      -7.125   1.731 123.313  0.00  0.00    +0.015 C 
ATOM     18  C   LIG A   1      -7.488   2.658 124.461  0.00  0.00    -0.019 C 
ATOM     19  C   LIG A   1      -8.793   2.355 125.154  0.00  0.00    +0.008 C 
ATOM     20  C   LIG A   1      -8.555   1.210 126.132  0.00  0.00    +0.008 C 
ATOM     21  O   LIG A   1      -7.253   4.528 119.134  0.00  0.00    -0.297 OA
ATOM     22  C   LIG A   1      -5.198   2.622 120.796  0.00  0.00    +0.019 C 
ATOM     23  C   LIG A   1      -7.303   4.134 127.490  0.00  0.00    +0.012 C 
ENDROOT
BRANCH   3  24
ATOM     24  C   LIG A   1      -6.349  -0.976 126.691  0.00  0.00    -0.010 C 
ATOM     25  C   LIG A   1      -5.889  -2.180 127.533  0.00  0.00    +0.008 C 
BRANCH  24  26
ATOM     26  C   LIG A   1      -5.442  -0.905 125.406  0.00  0.00    +0.008 C 
BRANCH  26  27
ATOM     27  C   LIG A   1      -6.093  -1.380 124.088  0.00  0.00    +0.031 C 
BRANCH  27  28
ATOM     28  C   LIG A   1      -6.367  -2.880 123.994  0.00  0.00    -0.072 C 
ATOM     29  C   LIG A   1      -5.346  -3.759 124.032  0.00  0.00    +0.008 C 
BRANCH  28  30
ATOM     30  C   LIG A   1      -7.807  -3.410 123.957  0.00  0.00    +0.037 C 
ATOM     31  C   LIG A   1      -8.369  -3.739 125.347  0.00  0.00    +0.014 C 
BRANCH  30  32
ATOM     32  C   LIG A   1      -8.765  -2.481 123.197  0.00  0.00    +0.163 C 
BRANCH  32  33
ATOM     33  O   LIG A   1      -9.574  -1.744 124.110  0.00  0.00    -0.394 OA
ATOM     34  H   LIG A   1      -9.030  -1.007 124.440  0.00  0.00    +0.209 HD
ENDBRANCH  32  33
ENDBRANCH  30  32
ENDBRANCH  28  30
ENDBRANCH  27  28
ENDBRANCH  26  27
ENDBRANCH  24  26
ENDBRANCH   3  24
TORSDOF 7
ENDMDL
MODEL 4
REMARK VINA RESULT:      -8.1      3.404      6.836
REMARK  Name = NuBBE_1131
REMARK  13 active torsions:
REMARK  status: ('A' for Active; 'I' for Inactive)
REMARK    1  A    between atoms: C_1  and  C_2
REMARK    2  A    between atoms: C_3  and  C_25
REMARK    3  A    between atoms: C_7  and  C_24
REMARK    4  A    between atoms: C_12  and  C_13
REMARK    5  A    between atoms: C_12  and  C_23
REMARK    6  A    between atoms: C_25  and  C_27
REMARK    7  A    between atoms: C_25  and  C_28
REMARK    8  A    between atoms: C_28  and  C_29
REMARK    9  A    between atoms: C_29  and  C_30
REMARK   10  A    between atoms: C_30  and  C_31
REMARK   11  A    between atoms: C_31  and  C_32
REMARK   12  A    between atoms: C_31  and  C_33
REMARK   13  A    between atoms: C_33  and  O_34
REMARK                            x       y       z     vdW  Elec       q    Type
REMARK                         _______ _______ _______ _____ _____    ______ ____
ROOT
ATOM      1  C   LIG A   1      -4.702  -2.445 131.532  0.00  0.00    +0.012 C 
ATOM      2  C   LIG A   1      -5.644  -1.848 130.444  0.00  0.00    -0.023 C 
ATOM      3  C   LIG A   1      -6.469  -0.678 131.190  0.00  0.00    -0.002 C 
ATOM      4  C   LIG A   1      -7.924  -1.189 131.243  0.00  0.00    +0.005 C 
ATOM      5  C   LIG A   1      -7.841  -2.696 131.053  0.00  0.00    +0.008 C 
ATOM      6  C   LIG A   1      -6.742  -2.907 129.985  0.00  0.00    -0.023 C 
ATOM      7  C   LIG A   1      -7.319  -2.552 128.559  0.00  0.00    +0.002 C 
ATOM      8  C   LIG A   1      -8.285  -3.595 127.974  0.00  0.00    +0.005 C 
ATOM      9  C   LIG A   1      -8.943  -3.037 126.711  0.00  0.00    +0.005 C 
ATOM     10  C   LIG A   1      -7.922  -2.905 125.572  0.00  0.00    +0.009 C 
ATOM     11  C   LIG A   1      -8.476  -2.251 124.268  0.00  0.00    +0.027 C 
ATOM     12  C   LIG A   1      -9.646  -3.084 123.714  0.00  0.00    +0.019 C 
ATOM     13  C   LIG A   1      -7.339  -2.227 123.228  0.00  0.00    +0.139 C 
ATOM     14  C   LIG A   1      -5.961  -1.771 123.658  0.00  0.00    +0.075 C 
ATOM     15  C   LIG A   1      -5.535  -2.456 124.948  0.00  0.00    +0.015 C 
ATOM     16  C   LIG A   1      -6.600  -2.261 126.007  0.00  0.00    -0.019 C 
ATOM     17  C   LIG A   1      -6.590  -0.931 126.716  0.00  0.00    +0.015 C 
ATOM     18  C   LIG A   1      -6.256  -2.182 127.513  0.00  0.00    -0.019 C 
ATOM     19  C   LIG A   1      -4.837  -2.274 128.014  0.00  0.00    +0.008 C 
ATOM     20  C   LIG A   1      -4.721  -1.421 129.272  0.00  0.00    +0.008 C 
ATOM     21  O   LIG A   1      -7.554  -2.456 122.020  0.00  0.00    -0.297 OA
ATOM     22  C   LIG A   1      -8.971  -0.804 124.445  0.00  0.00    +0.019 C 
ATOM     23  C   LIG A   1      -6.307  -4.391 130.063  0.00  0.00    +0.012 C 
ENDROOT
BRANCH   3  24
ATOM     24  C   LIG A   1      -6.381   0.822 130.743  0.00  0.00    -0.010 C 
ATOM     25  C   LIG A   1      -5.808   1.736 131.842  0.00  0.00    +0.008 C 
BRANCH  24  26
ATOM     26  C   LIG A   1      -7.749   1.437 130.264  0.00  0.00    +0.008 C 
BRANCH  26  27
ATOM     27  C   LIG A   1      -8.156   2.777 130.915  0.00  0.00    +0.031 C 
BRANCH  27  28
ATOM     28  C   LIG A   1      -9.253   2.688 131.975  0.00  0.00    -0.072 C 
ATOM     29  C   LIG A   1     -10.013   1.579 132.070  0.00  0.00    +0.008 C 
BRANCH  28  30
ATOM     30  C   LIG A   1      -9.436   3.811 133.005  0.00  0.00    +0.037 C 
ATOM     31  C   LIG A   1      -8.351   3.821 134.091  0.00  0.00    +0.014 C 
BRANCH  30  32
ATOM     32  C   LIG A   1      -9.562   5.197 132.360  0.00  0.00    +0.163 C 
BRANCH  32  33
ATOM     33  O   LIG A   1     -10.754   5.845 132.798  0.00  0.00    -0.394 OA
ATOM     34  H   LIG A   1     -11.406   5.146 132.979  0.00  0.00    +0.209 HD
ENDBRANCH  32  33
ENDBRANCH  30  32
ENDBRANCH  28  30
ENDBRANCH  27  28
ENDBRANCH  26  27
ENDBRANCH  24  26
ENDBRANCH   3  24
TORSDOF 7
ENDMDL
MODEL 5
REMARK VINA RESULT:      -8.0      2.316      5.937
REMARK  Name = NuBBE_1131
REMARK  13 active torsions:
REMARK  status: ('A' for Active; 'I' for Inactive)
REMARK    1  A    between atoms: C_1  and  C_2
REMARK    2  A    between atoms: C_3  and  C_25
REMARK    3  A    between atoms: C_7  and  C_24
REMARK    4  A    between atoms: C_12  and  C_13
REMARK    5  A    between atoms: C_12  and  C_23
REMARK    6  A    between atoms: C_25  and  C_27
REMARK    7  A    between atoms: C_25  and  C_28
REMARK    8  A    between atoms: C_28  and  C_29
REMARK    9  A    between atoms: C_29  and  C_30
REMARK   10  A    between atoms: C_30  and  C_31
REMARK   11  A    between atoms: C_31  and  C_32
REMARK   12  A    between atoms: C_31  and  C_33
REMARK   13  A    between atoms: C_33  and  O_34
REMARK                            x       y       z     vdW  Elec       q    Type
REMARK                         _______ _______ _______ _____ _____    ______ ____
ROOT
ATOM      1  C   LIG A   1      -4.794  -2.209 131.580  0.00  0.00    +0.012 C 
ATOM      2  C   LIG A   1      -5.769  -1.686 130.483  0.00  0.00    -0.023 C 
ATOM      3  C   LIG A   1      -6.682  -0.577 131.218  0.00  0.00    -0.002 C 
ATOM      4  C   LIG A   1      -8.097  -1.191 131.262  0.00  0.00    +0.005 C 
ATOM      5  C   LIG A   1      -7.903  -2.689 131.079  0.00  0.00    +0.008 C 
ATOM      6  C   LIG A   1      -6.784  -2.824 130.020  0.00  0.00    -0.023 C 
ATOM      7  C   LIG A   1      -7.373  -2.518 128.588  0.00  0.00    +0.002 C 
ATOM      8  C   LIG A   1      -8.256  -3.630 128.000  0.00  0.00    +0.005 C 
ATOM      9  C   LIG A   1      -8.943  -3.126 126.730  0.00  0.00    +0.005 C 
ATOM     10  C   LIG A   1      -7.924  -2.925 125.598  0.00  0.00    +0.009 C 
ATOM     11  C   LIG A   1      -8.514  -2.318 124.287  0.00  0.00    +0.027 C 
ATOM     12  C   LIG A   1      -9.616  -3.236 123.728  0.00  0.00    +0.019 C 
ATOM     13  C   LIG A   1      -7.374  -2.215 123.256  0.00  0.00    +0.139 C 
ATOM     14  C   LIG A   1      -6.036  -1.659 123.695  0.00  0.00    +0.075 C 
ATOM     15  C   LIG A   1      -5.571  -2.306 124.991  0.00  0.00    +0.015 C 
ATOM     16  C   LIG A   1      -6.656  -2.184 126.040  0.00  0.00    -0.019 C 
ATOM     17  C   LIG A   1      -6.749  -0.855 126.744  0.00  0.00    +0.015 C 
ATOM     18  C   LIG A   1      -6.332  -2.075 127.549  0.00  0.00    -0.019 C 
ATOM     19  C   LIG A   1      -4.913  -2.062 128.061  0.00  0.00    +0.008 C 
ATOM     20  C   LIG A   1      -4.870  -1.198 129.316  0.00  0.00    +0.008 C 
ATOM     21  O   LIG A   1      -7.561  -2.463 122.047  0.00  0.00    -0.297 OA
ATOM     22  C   LIG A   1      -9.115  -0.909 124.454  0.00  0.00    +0.019 C 
ATOM     23  C   LIG A   1      -6.242  -4.272 130.108  0.00  0.00    +0.012 C 
ENDROOT
BRANCH   3  24
ATOM     24  C   LIG A   1      -6.700   0.925 130.765  0.00  0.00    -0.010 C 
ATOM     25  C   LIG A   1      -6.200   1.882 131.863  0.00  0.00    +0.008 C 
BRANCH  24  26
ATOM     26  C   LIG A   1      -8.106   1.438 130.276  0.00  0.00    +0.008 C 
BRANCH  26  27
ATOM     27  C   LIG A   1      -8.273   1.612 128.751  0.00  0.00    +0.031 C 
BRANCH  27  28
ATOM     28  C   LIG A   1      -8.011   3.019 128.217  0.00  0.00    -0.072 C 
ATOM     29  C   LIG A   1      -8.261   4.094 128.991  0.00  0.00    +0.008 C 
BRANCH  28  30
ATOM     30  C   LIG A   1      -7.367   3.224 126.839  0.00  0.00    +0.037 C 
ATOM     31  C   LIG A   1      -5.927   2.698 126.757  0.00  0.00    +0.014 C 
BRANCH  30  32
ATOM     32  C   LIG A   1      -8.213   2.650 125.694  0.00  0.00    +0.163 C 
BRANCH  32  33
ATOM     33  O   LIG A   1      -8.997   3.676 125.089  0.00  0.00    -0.394 OA
ATOM     34  H   LIG A   1      -8.723   4.517 125.494  0.00  0.00    +0.209 HD
ENDBRANCH  32  33
ENDBRANCH  30  32
ENDBRANCH  28  30
ENDBRANCH  27  28
ENDBRANCH  26  27
ENDBRANCH  24  26
ENDBRANCH   3  24
TORSDOF 7
ENDMDL
MODEL 6
REMARK VINA RESULT:      -7.8      2.765      6.544
REMARK  Name = NuBBE_1131
REMARK  13 active torsions:
REMARK  status: ('A' for Active; 'I' for Inactive)
REMARK    1  A    between atoms: C_1  and  C_2
REMARK    2  A    between atoms: C_3  and  C_25
REMARK    3  A    between atoms: C_7  and  C_24
REMARK    4  A    between atoms: C_12  and  C_13
REMARK    5  A    between atoms: C_12  and  C_23
REMARK    6  A    between atoms: C_25  and  C_27
REMARK    7  A    between atoms: C_25  and  C_28
REMARK    8  A    between atoms: C_28  and  C_29
REMARK    9  A    between atoms: C_29  and  C_30
REMARK   10  A    between atoms: C_30  and  C_31
REMARK   11  A    between atoms: C_31  and  C_32
REMARK   12  A    between atoms: C_31  and  C_33
REMARK   13  A    between atoms: C_33  and  O_34
REMARK                            x       y       z     vdW  Elec       q    Type
REMARK                         _______ _______ _______ _____ _____    ______ ____
ROOT
ATOM      1  C   LIG A   1      -4.083  -3.014 132.088  0.00  0.00    +0.012 C 
ATOM      2  C   LIG A   1      -5.066  -2.291 131.120  0.00  0.00    -0.023 C 
ATOM      3  C   LIG A   1      -5.786  -1.155 132.014  0.00  0.00    -0.002 C 
ATOM      4  C   LIG A   1      -7.256  -1.609 132.126  0.00  0.00    +0.005 C 
ATOM      5  C   LIG A   1      -7.255  -3.097 131.810  0.00  0.00    +0.008 C 
ATOM      6  C   LIG A   1      -6.240  -3.262 130.655  0.00  0.00    -0.023 C 
ATOM      7  C   LIG A   1      -6.892  -2.767 129.305  0.00  0.00    +0.002 C 
ATOM      8  C   LIG A   1      -7.942  -3.717 128.706  0.00  0.00    +0.005 C 
ATOM      9  C   LIG A   1      -8.655  -3.030 127.541  0.00  0.00    +0.005 C 
ATOM     10  C   LIG A   1      -7.705  -2.844 126.348  0.00  0.00    +0.009 C 
ATOM     11  C   LIG A   1      -8.313  -2.062 125.143  0.00  0.00    +0.027 C 
ATOM     12  C   LIG A   1      -9.554  -2.798 124.606  0.00  0.00    +0.019 C 
ATOM     13  C   LIG A   1      -7.247  -1.996 124.032  0.00  0.00    +0.139 C 
ATOM     14  C   LIG A   1      -5.825  -1.634 124.401  0.00  0.00    +0.075 C 
ATOM     15  C   LIG A   1      -5.346  -2.441 125.599  0.00  0.00    +0.015 C 
ATOM     16  C   LIG A   1      -6.329  -2.292 126.741  0.00  0.00    -0.019 C 
ATOM     17  C   LIG A   1      -6.212  -1.028 127.553  0.00  0.00    +0.015 C 
ATOM     18  C   LIG A   1      -5.884  -2.353 128.222  0.00  0.00    -0.019 C 
ATOM     19  C   LIG A   1      -4.441  -2.544 128.614  0.00  0.00    +0.008 C 
ATOM     20  C   LIG A   1      -4.204  -1.805 129.925  0.00  0.00    +0.008 C 
ATOM     21  O   LIG A   1      -7.551  -2.115 122.827  0.00  0.00    -0.297 OA
ATOM     22  C   LIG A   1      -8.729  -0.615 125.470  0.00  0.00    +0.019 C 
ATOM     23  C   LIG A   1      -5.868  -4.764 130.582  0.00  0.00    +0.012 C 
ENDROOT
BRANCH   3  24
ATOM     24  C   LIG A   1      -5.659   0.373 131.684  0.00  0.00    -0.010 C 
ATOM     25  C   LIG A   1      -5.588   1.249 132.949  0.00  0.00    +0.008 C 
BRANCH  24  26
ATOM     26  C   LIG A   1      -6.807   0.936 130.766  0.00  0.00    +0.008 C 
BRANCH  26  27
ATOM     27  C   LIG A   1      -7.491   2.233 131.251  0.00  0.00    +0.031 C 
BRANCH  27  28
ATOM     28  C   LIG A   1      -9.010   2.274 131.096  0.00  0.00    -0.072 C 
ATOM     29  C   LIG A   1      -9.797   1.608 131.964  0.00  0.00    +0.008 C 
BRANCH  28  30
ATOM     30  C   LIG A   1      -9.661   3.151 130.018  0.00  0.00    +0.037 C 
ATOM     31  C   LIG A   1     -11.051   3.669 130.413  0.00  0.00    +0.014 C 
BRANCH  30  32
ATOM     32  C   LIG A   1      -8.762   4.313 129.572  0.00  0.00    +0.163 C 
BRANCH  32  33
ATOM     33  O   LIG A   1      -8.714   4.389 128.149  0.00  0.00    -0.394 OA
ATOM     34  H   LIG A   1      -7.777   4.338 127.894  0.00  0.00    +0.209 HD
ENDBRANCH  32  33
ENDBRANCH  30  32
ENDBRANCH  28  30
ENDBRANCH  27  28
ENDBRANCH  26  27
ENDBRANCH  24  26
ENDBRANCH   3  24
TORSDOF 7
ENDMDL
MODEL 7
REMARK VINA RESULT:      -7.8      3.145      6.112
REMARK  Name = NuBBE_1131
REMARK  13 active torsions:
REMARK  status: ('A' for Active; 'I' for Inactive)
REMARK    1  A    between atoms: C_1  and  C_2
REMARK    2  A    between atoms: C_3  and  C_25
REMARK    3  A    between atoms: C_7  and  C_24
REMARK    4  A    between atoms: C_12  and  C_13
REMARK    5  A    between atoms: C_12  and  C_23
REMARK    6  A    between atoms: C_25  and  C_27
REMARK    7  A    between atoms: C_25  and  C_28
REMARK    8  A    between atoms: C_28  and  C_29
REMARK    9  A    between atoms: C_29  and  C_30
REMARK   10  A    between atoms: C_30  and  C_31
REMARK   11  A    between atoms: C_31  and  C_32
REMARK   12  A    between atoms: C_31  and  C_33
REMARK   13  A    between atoms: C_33  and  O_34
REMARK                            x       y       z     vdW  Elec       q    Type
REMARK                         _______ _______ _______ _____ _____    ______ ____
ROOT
ATOM      1  C   LIG A   1      -5.830  -4.065 130.765  0.00  0.00    +0.012 C 
ATOM      2  C   LIG A   1      -6.433  -2.734 130.226  0.00  0.00    -0.023 C 
ATOM      3  C   LIG A   1      -6.880  -3.053 128.708  0.00  0.00    -0.002 C 
ATOM      4  C   LIG A   1      -5.926  -2.219 127.828  0.00  0.00    +0.005 C 
ATOM      5  C   LIG A   1      -4.727  -1.898 128.708  0.00  0.00    +0.008 C 
ATOM      6  C   LIG A   1      -5.320  -1.601 130.104  0.00  0.00    -0.023 C 
ATOM      7  C   LIG A   1      -5.966  -0.161 130.106  0.00  0.00    +0.002 C 
ATOM      8  C   LIG A   1      -4.959   1.001 130.132  0.00  0.00    +0.005 C 
ATOM      9  C   LIG A   1      -5.692   2.324 129.903  0.00  0.00    +0.005 C 
ATOM     10  C   LIG A   1      -6.582   2.674 131.105  0.00  0.00    +0.009 C 
ATOM     11  C   LIG A   1      -7.448   3.960 130.926  0.00  0.00    +0.027 C 
ATOM     12  C   LIG A   1      -6.541   5.179 130.680  0.00  0.00    +0.019 C 
ATOM     13  C   LIG A   1      -8.247   4.180 132.225  0.00  0.00    +0.139 C 
ATOM     14  C   LIG A   1      -8.946   2.999 132.865  0.00  0.00    +0.075 C 
ATOM     15  C   LIG A   1      -8.015   1.801 132.968  0.00  0.00    +0.015 C 
ATOM     16  C   LIG A   1      -7.423   1.494 131.608  0.00  0.00    -0.019 C 
ATOM     17  C   LIG A   1      -8.305   0.721 130.663  0.00  0.00    +0.015 C 
ATOM     18  C   LIG A   1      -7.041   0.057 131.183  0.00  0.00    -0.019 C 
ATOM     19  C   LIG A   1      -7.255  -1.127 132.092  0.00  0.00    +0.008 C 
ATOM     20  C   LIG A   1      -7.556  -2.343 131.223  0.00  0.00    +0.008 C 
ATOM     21  O   LIG A   1      -8.431   5.322 132.692  0.00  0.00    -0.297 OA
ATOM     22  C   LIG A   1      -8.461   3.886 129.767  0.00  0.00    +0.019 C 
ATOM     23  C   LIG A   1      -4.159  -1.698 131.125  0.00  0.00    +0.012 C 
ENDROOT
BRANCH   3  24
ATOM     24  C   LIG A   1      -8.372  -2.945 128.235  0.00  0.00    -0.010 C 
ATOM     25  C   LIG A   1      -9.048  -4.321 128.087  0.00  0.00    +0.008 C 
BRANCH  24  26
ATOM     26  C   LIG A   1      -8.568  -2.158 126.886  0.00  0.00    +0.008 C 
BRANCH  26  27
ATOM     27  C   LIG A   1      -9.375  -2.885 125.788  0.00  0.00    +0.031 C 
BRANCH  27  28
ATOM     28  C   LIG A   1      -8.740  -2.887 124.398  0.00  0.00    -0.072 C 
ATOM     29  C   LIG A   1      -9.474  -3.229 123.320  0.00  0.00    +0.008 C 
BRANCH  28  30
ATOM     30  C   LIG A   1      -7.297  -2.405 124.198  0.00  0.00    +0.037 C 
ATOM     31  C   LIG A   1      -6.265  -3.542 124.244  0.00  0.00    +0.014 C 
BRANCH  30  32
ATOM     32  C   LIG A   1      -7.119  -1.570 122.923  0.00  0.00    +0.163 C 
BRANCH  32  33
ATOM     33  O   LIG A   1      -5.999  -2.035 122.174  0.00  0.00    -0.394 OA
ATOM     34  H   LIG A   1      -5.270  -2.165 122.805  0.00  0.00    +0.209 HD
ENDBRANCH  32  33
ENDBRANCH  30  32
ENDBRANCH  28  30
ENDBRANCH  27  28
ENDBRANCH  26  27
ENDBRANCH  24  26
ENDBRANCH   3  24
TORSDOF 7
ENDMDL
MODEL 8
REMARK VINA RESULT:      -7.7      2.441      7.037
REMARK  Name = NuBBE_1131
REMARK  13 active torsions:
REMARK  status: ('A' for Active; 'I' for Inactive)
REMARK    1  A    between atoms: C_1  and  C_2
REMARK    2  A    between atoms: C_3  and  C_25
REMARK    3  A    between atoms: C_7  and  C_24
REMARK    4  A    between atoms: C_12  and  C_13
REMARK    5  A    between atoms: C_12  and  C_23
REMARK    6  A    between atoms: C_25  and  C_27
REMARK    7  A    between atoms: C_25  and  C_28
REMARK    8  A    between atoms: C_28  and  C_29
REMARK    9  A    between atoms: C_29  and  C_30
REMARK   10  A    between atoms: C_30  and  C_31
REMARK   11  A    between atoms: C_31  and  C_32
REMARK   12  A    between atoms: C_31  and  C_33
REMARK   13  A    between atoms: C_33  and  O_34
REMARK                            x       y       z     vdW  Elec       q    Type
REMARK                         _______ _______ _______ _____ _____    ______ ____
ROOT
ATOM      1  C   LIG A   1      -7.384   3.744 129.571  0.00  0.00    +0.012 C 
ATOM      2  C   LIG A   1      -7.373   2.275 129.052  0.00  0.00    -0.023 C 
ATOM      3  C   LIG A   1      -7.299   1.355 130.376  0.00  0.00    -0.002 C 
ATOM      4  C   LIG A   1      -5.905   0.696 130.326  0.00  0.00    +0.005 C 
ATOM      5  C   LIG A   1      -5.073   1.559 129.389  0.00  0.00    +0.008 C 
ATOM      6  C   LIG A   1      -6.037   1.955 128.246  0.00  0.00    -0.023 C 
ATOM      7  C   LIG A   1      -6.234   0.728 127.273  0.00  0.00    +0.002 C 
ATOM      8  C   LIG A   1      -5.039   0.433 126.352  0.00  0.00    +0.005 C 
ATOM      9  C   LIG A   1      -5.260  -0.898 125.631  0.00  0.00    +0.005 C 
ATOM     10  C   LIG A   1      -6.402  -0.787 124.611  0.00  0.00    +0.009 C 
ATOM     11  C   LIG A   1      -6.770  -2.122 123.892  0.00  0.00    +0.027 C 
ATOM     12  C   LIG A   1      -5.549  -2.665 123.127  0.00  0.00    +0.019 C 
ATOM     13  C   LIG A   1      -7.901  -1.826 122.889  0.00  0.00    +0.139 C 
ATOM     14  C   LIG A   1      -9.071  -0.974 123.332  0.00  0.00    +0.075 C 
ATOM     15  C   LIG A   1      -8.595   0.287 124.038  0.00  0.00    +0.015 C 
ATOM     16  C   LIG A   1      -7.648  -0.082 125.161  0.00  0.00    -0.019 C 
ATOM     17  C   LIG A   1      -8.292  -0.548 126.441  0.00  0.00    +0.015 C 
ATOM     18  C   LIG A   1      -7.530   0.767 126.449  0.00  0.00    -0.019 C 
ATOM     19  C   LIG A   1      -8.367   2.002 126.669  0.00  0.00    +0.008 C 
ATOM     20  C   LIG A   1      -8.638   2.131 128.164  0.00  0.00    +0.008 C 
ATOM     21  O   LIG A   1      -7.936  -2.368 121.765  0.00  0.00    -0.297 OA
ATOM     22  C   LIG A   1      -7.268  -3.234 124.834  0.00  0.00    +0.019 C 
ATOM     23  C   LIG A   1      -5.402   3.161 127.509  0.00  0.00    +0.012 C 
ENDROOT
BRANCH   3  24
ATOM     24  C   LIG A   1      -8.428   0.331 130.747  0.00  0.00    -0.010 C 
ATOM     25  C   LIG A   1      -9.311   0.818 131.912  0.00  0.00    +0.008 C 
BRANCH  24  26
ATOM     26  C   LIG A   1      -7.904  -1.110 131.103  0.00  0.00    +0.008 C 
BRANCH  26  27
ATOM     27  C   LIG A   1      -7.901  -2.136 129.948  0.00  0.00    +0.031 C 
BRANCH  27  28
ATOM     28  C   LIG A   1      -6.560  -2.812 129.672  0.00  0.00    -0.072 C 
ATOM     29  C   LIG A   1      -6.051  -2.821 128.423  0.00  0.00    +0.008 C 
BRANCH  28  30
ATOM     30  C   LIG A   1      -5.730  -3.399 130.821  0.00  0.00    +0.037 C 
ATOM     31  C   LIG A   1      -5.539  -4.919 130.718  0.00  0.00    +0.014 C 
BRANCH  30  32
ATOM     32  C   LIG A   1      -4.376  -2.699 130.997  0.00  0.00    +0.163 C 
BRANCH  32  33
ATOM     33  O   LIG A   1      -3.326  -3.659 131.093  0.00  0.00    -0.394 OA
ATOM     34  H   LIG A   1      -3.725  -4.483 131.421  0.00  0.00    +0.209 HD
ENDBRANCH  32  33
ENDBRANCH  30  32
ENDBRANCH  28  30
ENDBRANCH  27  28
ENDBRANCH  26  27
ENDBRANCH  24  26
ENDBRANCH   3  24
TORSDOF 7
ENDMDL
MODEL 9
REMARK VINA RESULT:      -7.6      2.399      6.100
REMARK  Name = NuBBE_1131
REMARK  13 active torsions:
REMARK  status: ('A' for Active; 'I' for Inactive)
REMARK    1  A    between atoms: C_1  and  C_2
REMARK    2  A    between atoms: C_3  and  C_25
REMARK    3  A    between atoms: C_7  and  C_24
REMARK    4  A    between atoms: C_12  and  C_13
REMARK    5  A    between atoms: C_12  and  C_23
REMARK    6  A    between atoms: C_25  and  C_27
REMARK    7  A    between atoms: C_25  and  C_28
REMARK    8  A    between atoms: C_28  and  C_29
REMARK    9  A    between atoms: C_29  and  C_30
REMARK   10  A    between atoms: C_30  and  C_31
REMARK   11  A    between atoms: C_31  and  C_32
REMARK   12  A    between atoms: C_31  and  C_33
REMARK   13  A    between atoms: C_33  and  O_34
REMARK                            x       y       z     vdW  Elec       q    Type
REMARK                         _______ _______ _______ _____ _____    ______ ____
ROOT
ATOM      1  C   LIG A   1      -4.412  -2.430 132.086  0.00  0.00    +0.012 C 
ATOM      2  C   LIG A   1      -5.422  -1.864 131.043  0.00  0.00    -0.023 C 
ATOM      3  C   LIG A   1      -6.312  -0.788 131.853  0.00  0.00    -0.002 C 
ATOM      4  C   LIG A   1      -7.724  -1.406 131.917  0.00  0.00    +0.005 C 
ATOM      5  C   LIG A   1      -7.535  -2.895 131.666  0.00  0.00    +0.008 C 
ATOM      6  C   LIG A   1      -6.451  -2.983 130.567  0.00  0.00    -0.023 C 
ATOM      7  C   LIG A   1      -7.087  -2.619 129.169  0.00  0.00    +0.002 C 
ATOM      8  C   LIG A   1      -7.988  -3.708 128.564  0.00  0.00    +0.005 C 
ATOM      9  C   LIG A   1      -8.716  -3.153 127.339  0.00  0.00    +0.005 C 
ATOM     10  C   LIG A   1      -7.735  -2.902 126.184  0.00  0.00    +0.009 C 
ATOM     11  C   LIG A   1      -8.367  -2.242 124.919  0.00  0.00    +0.027 C 
ATOM     12  C   LIG A   1      -9.486  -3.138 124.358  0.00  0.00    +0.019 C 
ATOM     13  C   LIG A   1      -7.261  -2.094 123.857  0.00  0.00    +0.139 C 
ATOM     14  C   LIG A   1      -5.910  -1.554 124.275  0.00  0.00    +0.075 C 
ATOM     15  C   LIG A   1      -5.403  -2.254 125.527  0.00  0.00    +0.015 C 
ATOM     16  C   LIG A   1      -6.453  -2.178 126.615  0.00  0.00    -0.019 C 
ATOM     17  C   LIG A   1      -6.524  -0.879 127.376  0.00  0.00    +0.015 C 
ATOM     18  C   LIG A   1      -6.080  -2.131 128.116  0.00  0.00    -0.019 C 
ATOM     19  C   LIG A   1      -4.645  -2.137 128.582  0.00  0.00    +0.008 C 
ATOM     20  C   LIG A   1      -4.562  -1.325 129.870  0.00  0.00    +0.008 C 
ATOM     21  O   LIG A   1      -7.488  -2.293 122.645  0.00  0.00    -0.297 OA
ATOM     22  C   LIG A   1      -8.963  -0.843 125.164  0.00  0.00    +0.019 C 
ATOM     23  C   LIG A   1      -5.905  -4.433 130.577  0.00  0.00    +0.012 C 
ENDROOT
BRANCH   3  24
ATOM     24  C   LIG A   1      -6.346   0.731 131.464  0.00  0.00    -0.010 C 
ATOM     25  C   LIG A   1      -7.084   1.594 132.505  0.00  0.00    +0.008 C 
BRANCH  24  26
ATOM     26  C   LIG A   1      -6.977   1.025 130.052  0.00  0.00    +0.008 C 
BRANCH  26  27
ATOM     27  C   LIG A   1      -6.487   2.307 129.343  0.00  0.00    +0.031 C 
BRANCH  27  28
ATOM     28  C   LIG A   1      -4.989   2.365 129.050  0.00  0.00    -0.072 C 
ATOM     29  C   LIG A   1      -4.105   2.469 130.062  0.00  0.00    +0.008 C 
BRANCH  28  30
ATOM     30  C   LIG A   1      -4.468   2.205 127.615  0.00  0.00    +0.037 C 
ATOM     31  C   LIG A   1      -5.543   2.452 126.547  0.00  0.00    +0.014 C 
BRANCH  30  32
ATOM     32  C   LIG A   1      -3.226   3.061 127.333  0.00  0.00    +0.163 C 
BRANCH  32  33
ATOM     33  O   LIG A   1      -2.263   2.315 126.593  0.00  0.00    -0.394 OA
ATOM     34  H   LIG A   1      -2.756   1.675 126.051  0.00  0.00    +0.209 HD
ENDBRANCH  32  33
ENDBRANCH  30  32
ENDBRANCH  28  30
ENDBRANCH  27  28
ENDBRANCH  26  27
ENDBRANCH  24  26
ENDBRANCH   3  24
TORSDOF 7
ENDMDL
