MODEL 1
REMARK VINA RESULT:      -7.3      0.000      0.000
REMARK  Name = NuBBE_2457
REMARK  12 active torsions:
REMARK  status: ('A' for Active; 'I' for Inactive)
REMARK    1  A    between atoms: C_1  and  O_2
REMARK    2  A    between atoms: O_2  and  C_3
REMARK    3  A    between atoms: C_4  and  O_5
REMARK    4  A    between atoms: O_5  and  C_6
REMARK    5  A    between atoms: C_9  and  C_11
REMARK    6  A    between atoms: C_14  and  O_15
REMARK    7  A    between atoms: C_16  and  O_17
REMARK    8  A    between atoms: O_17  and  C_18
REMARK    9  A    between atoms: C_20  and  C_22
REMARK   10  A    between atoms: C_22  and  O_23
REMARK   11  A    between atoms: C_24  and  C_26
REMARK   12  A    between atoms: C_26  and  O_27
REMARK                            x       y       z     vdW  Elec       q    Type
REMARK                         _______ _______ _______ _____ _____    ______ ____
ROOT
ATOM      1  C   LIG A   1      -7.404   2.231 124.670  0.00  0.00    +0.162 A 
ATOM      2  C   LIG A   1      -8.129   1.787 125.786  0.00  0.00    +0.162 A 
ATOM      3  C   LIG A   1      -8.374   0.422 125.940  0.00  0.00    +0.053 A 
ATOM      4  C   LIG A   1      -7.869  -0.530 125.029  0.00  0.00    -0.033 A 
ATOM      5  C   LIG A   1      -8.152  -2.011 125.276  0.00  0.00    +0.055 C 
ATOM      6  C   LIG A   1      -7.700  -2.971 124.135  0.00  0.00    +0.032 C 
ATOM      7  C   LIG A   1      -6.469  -2.467 123.329  0.00  0.00    +0.025 C 
ATOM      8  C   LIG A   1      -6.662  -1.027 122.849  0.00  0.00    +0.041 C 
ATOM      9  C   LIG A   1      -7.137  -0.084 123.920  0.00  0.00    -0.040 A 
ATOM     10  C   LIG A   1      -6.916   1.295 123.749  0.00  0.00    +0.053 A 
ENDROOT
BRANCH   5  11
ATOM     11  C   LIG A   1      -7.769  -2.514 126.676  0.00  0.00    -0.036 A 
ATOM     12  C   LIG A   1      -8.722  -3.222 127.430  0.00  0.00    +0.008 A 
ATOM     13  C   LIG A   1      -8.470  -3.574 128.758  0.00  0.00    +0.049 A 
ATOM     14  C   LIG A   1      -7.259  -3.217 129.349  0.00  0.00    +0.159 A 
ATOM     15  C   LIG A   1      -6.283  -2.530 128.620  0.00  0.00    +0.162 A 
ATOM     16  C   LIG A   1      -6.533  -2.213 127.279  0.00  0.00    +0.053 A 
BRANCH  14  17
ATOM     17  O   LIG A   1      -7.031  -3.510 130.668  0.00  0.00    -0.503 OA
ATOM     18  H   LIG A   1      -7.614  -4.236 130.937  0.00  0.00    +0.292 HD
ENDBRANCH  14  17
BRANCH  15  19
ATOM     19  O   LIG A   1      -5.119  -2.223 129.276  0.00  0.00    -0.491 OA
ATOM     20  C   LIG A   1      -4.017  -3.090 129.028  0.00  0.00    +0.277 C 
ENDBRANCH  15  19
ENDBRANCH   5  11
BRANCH   1  22
ATOM     21  C   LIG A   1      -5.944   3.994 124.029  0.00  0.00    +0.277 C 
ATOM     22  O   LIG A   1      -7.190   3.583 124.574  0.00  0.00    -0.491 OA
ENDBRANCH   1  22
BRANCH   2  23
ATOM     23  O   LIG A   1      -8.585   2.758 126.645  0.00  0.00    -0.491 OA
ATOM     24  C   LIG A   1      -7.930   2.875 127.899  0.00  0.00    +0.277 C 
ENDBRANCH   2  23
BRANCH   6  25
ATOM     25  C   LIG A   1      -8.907  -3.213 123.198  0.00  0.00    +0.160 C 
BRANCH  25  26
ATOM     26  O   LIG A   1     -10.137  -3.230 123.908  0.00  0.00    -0.395 OA
ATOM     27  H   LIG A   1     -10.755  -2.638 123.441  0.00  0.00    +0.209 HD
ENDBRANCH  25  26
ENDBRANCH   6  25
BRANCH   7  28
ATOM     28  C   LIG A   1      -5.137  -2.625 124.071  0.00  0.00    +0.160 C 
BRANCH  28  29
ATOM     29  O   LIG A   1      -4.412  -3.712 123.510  0.00  0.00    -0.395 OA
ATOM     30  H   LIG A   1      -3.721  -3.954 124.152  0.00  0.00    +0.209 HD
ENDBRANCH  28  29
ENDBRANCH   7  28
TORSDOF 9
ENDMDL
MODEL 2
REMARK VINA RESULT:      -7.0      2.973      8.144
REMARK  Name = NuBBE_2457
REMARK  12 active torsions:
REMARK  status: ('A' for Active; 'I' for Inactive)
REMARK    1  A    between atoms: C_1  and  O_2
REMARK    2  A    between atoms: O_2  and  C_3
REMARK    3  A    between atoms: C_4  and  O_5
REMARK    4  A    between atoms: O_5  and  C_6
REMARK    5  A    between atoms: C_9  and  C_11
REMARK    6  A    between atoms: C_14  and  O_15
REMARK    7  A    between atoms: C_16  and  O_17
REMARK    8  A    between atoms: O_17  and  C_18
REMARK    9  A    between atoms: C_20  and  C_22
REMARK   10  A    between atoms: C_22  and  O_23
REMARK   11  A    between atoms: C_24  and  C_26
REMARK   12  A    between atoms: C_26  and  O_27
REMARK                            x       y       z     vdW  Elec       q    Type
REMARK                         _______ _______ _______ _____ _____    ______ ____
ROOT
ATOM      1  C   LIG A   1      -6.392  -0.946 124.864  0.00  0.00    +0.162 A 
ATOM      2  C   LIG A   1      -7.005  -0.538 123.669  0.00  0.00    +0.162 A 
ATOM      3  C   LIG A   1      -7.205   0.823 123.436  0.00  0.00    +0.053 A 
ATOM      4  C   LIG A   1      -6.762   1.804 124.348  0.00  0.00    -0.033 A 
ATOM      5  C   LIG A   1      -6.989   3.278 124.013  0.00  0.00    +0.055 C 
ATOM      6  C   LIG A   1      -6.620   4.279 125.149  0.00  0.00    +0.032 C 
ATOM      7  C   LIG A   1      -5.478   3.789 126.083  0.00  0.00    +0.025 C 
ATOM      8  C   LIG A   1      -5.744   2.375 126.605  0.00  0.00    +0.041 C 
ATOM      9  C   LIG A   1      -6.142   1.394 125.536  0.00  0.00    -0.040 A 
ATOM     10  C   LIG A   1      -5.968   0.021 125.784  0.00  0.00    +0.053 A 
ENDROOT
BRANCH   5  11
ATOM     11  C   LIG A   1      -6.472   3.711 122.633  0.00  0.00    -0.036 A 
ATOM     12  C   LIG A   1      -5.204   4.312 122.539  0.00  0.00    +0.008 A 
ATOM     13  C   LIG A   1      -4.752   4.849 121.331  0.00  0.00    +0.049 A 
ATOM     14  C   LIG A   1      -5.568   4.794 120.203  0.00  0.00    +0.159 A 
ATOM     15  C   LIG A   1      -6.826   4.185 120.259  0.00  0.00    +0.162 A 
ATOM     16  C   LIG A   1      -7.254   3.619 121.466  0.00  0.00    +0.053 A 
BRANCH  14  17
ATOM     17  O   LIG A   1      -5.153   5.370 119.031  0.00  0.00    -0.503 OA
ATOM     18  H   LIG A   1      -5.912   5.462 118.436  0.00  0.00    +0.292 HD
ENDBRANCH  14  17
BRANCH  15  19
ATOM     19  O   LIG A   1      -7.562   4.169 119.102  0.00  0.00    -0.491 OA
ATOM     20  C   LIG A   1      -8.974   4.240 119.261  0.00  0.00    +0.277 C 
ENDBRANCH  15  19
ENDBRANCH   5  11
BRANCH   1  22
ATOM     21  C   LIG A   1      -7.103  -2.944 125.938  0.00  0.00    +0.277 C 
ATOM     22  O   LIG A   1      -6.217  -2.297 125.036  0.00  0.00    -0.491 OA
ENDBRANCH   1  22
BRANCH   2  23
ATOM     23  O   LIG A   1      -7.404  -1.538 122.815  0.00  0.00    -0.491 OA
ATOM     24  C   LIG A   1      -8.794  -1.823 122.752  0.00  0.00    +0.277 C 
ENDBRANCH   2  23
BRANCH   6  25
ATOM     25  C   LIG A   1      -7.900   4.584 125.963  0.00  0.00    +0.160 C 
BRANCH  25  26
ATOM     26  O   LIG A   1      -9.075   4.178 125.276  0.00  0.00    -0.395 OA
ATOM     27  H   LIG A   1      -9.243   3.245 125.506  0.00  0.00    +0.209 HD
ENDBRANCH  25  26
ENDBRANCH   6  25
BRANCH   7  28
ATOM     28  C   LIG A   1      -4.081   3.889 125.459  0.00  0.00    +0.160 C 
BRANCH  28  29
ATOM     29  O   LIG A   1      -3.109   3.981 126.493  0.00  0.00    -0.395 OA
ATOM     30  H   LIG A   1      -2.932   4.928 126.633  0.00  0.00    +0.209 HD
ENDBRANCH  28  29
ENDBRANCH   7  28
TORSDOF 9
ENDMDL
MODEL 3
REMARK VINA RESULT:      -6.9      1.845      6.049
REMARK  Name = NuBBE_2457
REMARK  12 active torsions:
REMARK  status: ('A' for Active; 'I' for Inactive)
REMARK    1  A    between atoms: C_1  and  O_2
REMARK    2  A    between atoms: O_2  and  C_3
REMARK    3  A    between atoms: C_4  and  O_5
REMARK    4  A    between atoms: O_5  and  C_6
REMARK    5  A    between atoms: C_9  and  C_11
REMARK    6  A    between atoms: C_14  and  O_15
REMARK    7  A    between atoms: C_16  and  O_17
REMARK    8  A    between atoms: O_17  and  C_18
REMARK    9  A    between atoms: C_20  and  C_22
REMARK   10  A    between atoms: C_22  and  O_23
REMARK   11  A    between atoms: C_24  and  C_26
REMARK   12  A    between atoms: C_26  and  O_27
REMARK                            x       y       z     vdW  Elec       q    Type
REMARK                         _______ _______ _______ _____ _____    ______ ____
ROOT
ATOM      1  C   LIG A   1      -7.893  -1.924 128.278  0.00  0.00    +0.162 A 
ATOM      2  C   LIG A   1      -7.321  -0.677 127.986  0.00  0.00    +0.162 A 
ATOM      3  C   LIG A   1      -6.930  -0.397 126.676  0.00  0.00    +0.053 A 
ATOM      4  C   LIG A   1      -7.142  -1.316 125.627  0.00  0.00    -0.033 A 
ATOM      5  C   LIG A   1      -6.716  -0.931 124.210  0.00  0.00    +0.055 C 
ATOM      6  C   LIG A   1      -6.835  -2.068 123.151  0.00  0.00    +0.032 C 
ATOM      7  C   LIG A   1      -7.962  -3.097 123.446  0.00  0.00    +0.025 C 
ATOM      8  C   LIG A   1      -7.878  -3.630 124.878  0.00  0.00    +0.041 C 
ATOM      9  C   LIG A   1      -7.723  -2.558 125.921  0.00  0.00    -0.040 A 
ATOM     10  C   LIG A   1      -8.088  -2.850 127.247  0.00  0.00    +0.053 A 
ENDROOT
BRANCH   5  11
ATOM     11  C   LIG A   1      -7.267   0.415 123.717  0.00  0.00    -0.036 A 
ATOM     12  C   LIG A   1      -8.658   0.578 123.591  0.00  0.00    +0.008 A 
ATOM     13  C   LIG A   1      -9.197   1.730 123.015  0.00  0.00    +0.049 A 
ATOM     14  C   LIG A   1      -8.347   2.734 122.553  0.00  0.00    +0.159 A 
ATOM     15  C   LIG A   1      -6.960   2.612 122.682  0.00  0.00    +0.162 A 
ATOM     16  C   LIG A   1      -6.432   1.467 123.294  0.00  0.00    +0.053 A 
BRANCH  14  17
ATOM     17  O   LIG A   1      -8.869   3.839 121.935  0.00  0.00    -0.503 OA
ATOM     18  H   LIG A   1      -9.834   3.833 122.035  0.00  0.00    +0.292 HD
ENDBRANCH  14  17
BRANCH  15  19
ATOM     19  O   LIG A   1      -6.197   3.647 122.208  0.00  0.00    -0.491 OA
ATOM     20  C   LIG A   1      -5.515   3.408 120.982  0.00  0.00    +0.277 C 
ENDBRANCH  15  19
ENDBRANCH   5  11
BRANCH   1  22
ATOM     21  C   LIG A   1      -7.525  -3.121 130.299  0.00  0.00    +0.277 C 
ATOM     22  O   LIG A   1      -8.262  -2.140 129.583  0.00  0.00    -0.491 OA
ENDBRANCH   1  22
BRANCH   2  23
ATOM     23  O   LIG A   1      -7.150   0.182 129.045  0.00  0.00    -0.491 OA
ATOM     24  C   LIG A   1      -8.009   1.312 129.110  0.00  0.00    +0.277 C 
ENDBRANCH   2  23
BRANCH   6  25
ATOM     25  C   LIG A   1      -5.463  -2.774 123.041  0.00  0.00    +0.160 C 
BRANCH  25  26
ATOM     26  O   LIG A   1      -4.626  -2.486 124.153  0.00  0.00    -0.395 OA
ATOM     27  H   LIG A   1      -5.192  -2.137 124.865  0.00  0.00    +0.209 HD
ENDBRANCH  25  26
ENDBRANCH   6  25
BRANCH   7  28
ATOM     28  C   LIG A   1      -9.371  -2.578 123.135  0.00  0.00    +0.160 C 
BRANCH  28  29
ATOM     29  O   LIG A   1     -10.319  -3.606 123.395  0.00  0.00    -0.395 OA
ATOM     30  H   LIG A   1     -10.206  -3.868 124.326  0.00  0.00    +0.209 HD
ENDBRANCH  28  29
ENDBRANCH   7  28
TORSDOF 9
ENDMDL
MODEL 4
REMARK VINA RESULT:      -6.5      6.563     10.364
REMARK  Name = NuBBE_2457
REMARK  12 active torsions:
REMARK  status: ('A' for Active; 'I' for Inactive)
REMARK    1  A    between atoms: C_1  and  O_2
REMARK    2  A    between atoms: O_2  and  C_3
REMARK    3  A    between atoms: C_4  and  O_5
REMARK    4  A    between atoms: O_5  and  C_6
REMARK    5  A    between atoms: C_9  and  C_11
REMARK    6  A    between atoms: C_14  and  O_15
REMARK    7  A    between atoms: C_16  and  O_17
REMARK    8  A    between atoms: O_17  and  C_18
REMARK    9  A    between atoms: C_20  and  C_22
REMARK   10  A    between atoms: C_22  and  O_23
REMARK   11  A    between atoms: C_24  and  C_26
REMARK   12  A    between atoms: C_26  and  O_27
REMARK                            x       y       z     vdW  Elec       q    Type
REMARK                         _______ _______ _______ _____ _____    ______ ____
ROOT
ATOM      1  C   LIG A   1      -3.127   3.583 128.264  0.00  0.00    +0.162 A 
ATOM      2  C   LIG A   1      -3.903   2.998 129.276  0.00  0.00    +0.162 A 
ATOM      3  C   LIG A   1      -4.199   3.739 130.421  0.00  0.00    +0.053 A 
ATOM      4  C   LIG A   1      -3.781   5.078 130.567  0.00  0.00    -0.033 A 
ATOM      5  C   LIG A   1      -4.166   5.838 131.836  0.00  0.00    +0.055 C 
ATOM      6  C   LIG A   1      -3.521   7.249 131.984  0.00  0.00    +0.032 C 
ATOM      7  C   LIG A   1      -3.219   7.956 130.632  0.00  0.00    +0.025 C 
ATOM      8  C   LIG A   1      -2.437   7.045 129.683  0.00  0.00    +0.041 C 
ATOM      9  C   LIG A   1      -3.013   5.662 129.550  0.00  0.00    -0.040 A 
ATOM     10  C   LIG A   1      -2.690   4.905 128.409  0.00  0.00    +0.053 A 
ENDROOT
BRANCH   5  11
ATOM     11  C   LIG A   1      -5.666   5.820 132.165  0.00  0.00    -0.036 A 
ATOM     12  C   LIG A   1      -6.575   6.347 131.230  0.00  0.00    +0.008 A 
ATOM     13  C   LIG A   1      -7.930   6.481 131.544  0.00  0.00    +0.049 A 
ATOM     14  C   LIG A   1      -8.390   6.093 132.801  0.00  0.00    +0.159 A 
ATOM     15  C   LIG A   1      -7.515   5.547 133.745  0.00  0.00    +0.162 A 
ATOM     16  C   LIG A   1      -6.165   5.384 133.407  0.00  0.00    +0.053 A 
BRANCH  14  17
ATOM     17  O   LIG A   1      -9.706   6.277 133.132  0.00  0.00    -0.503 OA
ATOM     18  H   LIG A   1     -10.061   7.021 132.622  0.00  0.00    +0.292 HD
ENDBRANCH  14  17
BRANCH  15  19
ATOM     19  O   LIG A   1      -8.051   5.185 134.954  0.00  0.00    -0.491 OA
ATOM     20  C   LIG A   1      -7.457   5.780 136.102  0.00  0.00    +0.277 C 
ENDBRANCH  15  19
ENDBRANCH   5  11
BRANCH   1  22
ATOM     21  C   LIG A   1      -1.655   3.060 126.472  0.00  0.00    +0.277 C 
ATOM     22  O   LIG A   1      -2.873   2.809 127.159  0.00  0.00    -0.491 OA
ENDBRANCH   1  22
BRANCH   2  23
ATOM     23  O   LIG A   1      -4.293   1.696 129.072  0.00  0.00    -0.491 OA
ATOM     24  C   LIG A   1      -4.357   0.852 130.213  0.00  0.00    +0.277 C 
ENDBRANCH   2  23
BRANCH   6  25
ATOM     25  C   LIG A   1      -2.233   7.108 132.828  0.00  0.00    +0.160 C 
BRANCH  25  26
ATOM     26  O   LIG A   1      -1.486   8.316 132.865  0.00  0.00    -0.395 OA
ATOM     27  H   LIG A   1      -2.057   9.004 133.251  0.00  0.00    +0.209 HD
ENDBRANCH  25  26
ENDBRANCH   6  25
BRANCH   7  28
ATOM     28  C   LIG A   1      -4.463   8.530 129.943  0.00  0.00    +0.160 C 
BRANCH  28  29
ATOM     29  O   LIG A   1      -4.191   9.858 129.512  0.00  0.00    -0.395 OA
ATOM     30  H   LIG A   1      -4.804  10.443 129.990  0.00  0.00    +0.209 HD
ENDBRANCH  28  29
ENDBRANCH   7  28
TORSDOF 9
ENDMDL
MODEL 5
REMARK VINA RESULT:      -6.3      1.703      5.992
REMARK  Name = NuBBE_2457
REMARK  12 active torsions:
REMARK  status: ('A' for Active; 'I' for Inactive)
REMARK    1  A    between atoms: C_1  and  O_2
REMARK    2  A    between atoms: O_2  and  C_3
REMARK    3  A    between atoms: C_4  and  O_5
REMARK    4  A    between atoms: O_5  and  C_6
REMARK    5  A    between atoms: C_9  and  C_11
REMARK    6  A    between atoms: C_14  and  O_15
REMARK    7  A    between atoms: C_16  and  O_17
REMARK    8  A    between atoms: O_17  and  C_18
REMARK    9  A    between atoms: C_20  and  C_22
REMARK   10  A    between atoms: C_22  and  O_23
REMARK   11  A    between atoms: C_24  and  C_26
REMARK   12  A    between atoms: C_26  and  O_27
REMARK                            x       y       z     vdW  Elec       q    Type
REMARK                         _______ _______ _______ _____ _____    ______ ____
ROOT
ATOM      1  C   LIG A   1      -7.606  -1.993 129.391  0.00  0.00    +0.162 A 
ATOM      2  C   LIG A   1      -6.856  -0.875 128.995  0.00  0.00    +0.162 A 
ATOM      3  C   LIG A   1      -6.490  -0.740 127.656  0.00  0.00    +0.053 A 
ATOM      4  C   LIG A   1      -6.898  -1.671 126.678  0.00  0.00    -0.033 A 
ATOM      5  C   LIG A   1      -6.485  -1.444 125.224  0.00  0.00    +0.055 C 
ATOM      6  C   LIG A   1      -6.837  -2.606 124.246  0.00  0.00    +0.032 C 
ATOM      7  C   LIG A   1      -8.099  -3.419 124.651  0.00  0.00    +0.025 C 
ATOM      8  C   LIG A   1      -8.031  -3.874 126.111  0.00  0.00    +0.041 C 
ATOM      9  C   LIG A   1      -7.655  -2.782 127.075  0.00  0.00    -0.040 A 
ATOM     10  C   LIG A   1      -7.997  -2.934 128.431  0.00  0.00    +0.053 A 
ENDROOT
BRANCH   5  11
ATOM     11  C   LIG A   1      -6.836  -0.057 124.666  0.00  0.00    -0.036 A 
ATOM     12  C   LIG A   1      -6.133   1.066 125.139  0.00  0.00    +0.008 A 
ATOM     13  C   LIG A   1      -6.511   2.358 124.768  0.00  0.00    +0.049 A 
ATOM     14  C   LIG A   1      -7.602   2.542 123.920  0.00  0.00    +0.159 A 
ATOM     15  C   LIG A   1      -8.309   1.446 123.416  0.00  0.00    +0.162 A 
ATOM     16  C   LIG A   1      -7.899   0.153 123.767  0.00  0.00    +0.053 A 
BRANCH  14  17
ATOM     17  O   LIG A   1      -8.011   3.810 123.600  0.00  0.00    -0.503 OA
ATOM     18  H   LIG A   1      -8.749   3.757 122.973  0.00  0.00    +0.292 HD
ENDBRANCH  14  17
BRANCH  15  19
ATOM     19  O   LIG A   1      -9.364   1.715 122.583  0.00  0.00    -0.491 OA
ATOM     20  C   LIG A   1     -10.386   0.726 122.532  0.00  0.00    +0.277 C 
ENDBRANCH  15  19
ENDBRANCH   5  11
BRANCH   1  22
ATOM     21  C   LIG A   1      -7.283  -3.070 131.485  0.00  0.00    +0.277 C 
ATOM     22  O   LIG A   1      -7.940  -2.070 130.720  0.00  0.00    -0.491 OA
ENDBRANCH   1  22
BRANCH   2  23
ATOM     23  O   LIG A   1      -6.498   0.005 129.989  0.00  0.00    -0.491 OA
ATOM     24  C   LIG A   1      -6.962   1.342 129.870  0.00  0.00    +0.277 C 
ENDBRANCH   2  23
BRANCH   6  25
ATOM     25  C   LIG A   1      -5.603  -3.532 124.130  0.00  0.00    +0.160 C 
BRANCH  25  26
ATOM     26  O   LIG A   1      -4.534  -2.909 123.431  0.00  0.00    -0.395 OA
ATOM     27  H   LIG A   1      -4.173  -2.211 124.008  0.00  0.00    +0.209 HD
ENDBRANCH  25  26
ENDBRANCH   6  25
BRANCH   7  28
ATOM     28  C   LIG A   1      -9.419  -2.696 124.362  0.00  0.00    +0.160 C 
BRANCH  28  29
ATOM     29  O   LIG A   1     -10.163  -3.440 123.405  0.00  0.00    -0.395 OA
ATOM     30  H   LIG A   1     -11.105  -3.271 123.584  0.00  0.00    +0.209 HD
ENDBRANCH  28  29
ENDBRANCH   7  28
TORSDOF 9
ENDMDL
MODEL 6
REMARK VINA RESULT:      -6.3      6.096     10.222
REMARK  Name = NuBBE_2457
REMARK  12 active torsions:
REMARK  status: ('A' for Active; 'I' for Inactive)
REMARK    1  A    between atoms: C_1  and  O_2
REMARK    2  A    between atoms: O_2  and  C_3
REMARK    3  A    between atoms: C_4  and  O_5
REMARK    4  A    between atoms: O_5  and  C_6
REMARK    5  A    between atoms: C_9  and  C_11
REMARK    6  A    between atoms: C_14  and  O_15
REMARK    7  A    between atoms: C_16  and  O_17
REMARK    8  A    between atoms: O_17  and  C_18
REMARK    9  A    between atoms: C_20  and  C_22
REMARK   10  A    between atoms: C_22  and  O_23
REMARK   11  A    between atoms: C_24  and  C_26
REMARK   12  A    between atoms: C_26  and  O_27
REMARK                            x       y       z     vdW  Elec       q    Type
REMARK                         _______ _______ _______ _____ _____    ______ ____
ROOT
ATOM      1  C   LIG A   1      -3.626   3.418 128.583  0.00  0.00    +0.162 A 
ATOM      2  C   LIG A   1      -4.484   2.977 129.602  0.00  0.00    +0.162 A 
ATOM      3  C   LIG A   1      -4.721   3.805 130.699  0.00  0.00    +0.053 A 
ATOM      4  C   LIG A   1      -4.161   5.097 130.788  0.00  0.00    -0.033 A 
ATOM      5  C   LIG A   1      -4.488   5.962 132.005  0.00  0.00    +0.055 C 
ATOM      6  C   LIG A   1      -3.696   7.301 132.098  0.00  0.00    +0.032 C 
ATOM      7  C   LIG A   1      -3.289   7.897 130.721  0.00  0.00    +0.025 C 
ATOM      8  C   LIG A   1      -2.592   6.857 129.841  0.00  0.00    +0.041 C 
ATOM      9  C   LIG A   1      -3.312   5.539 129.763  0.00  0.00    -0.040 A 
ATOM     10  C   LIG A   1      -3.050   4.691 128.672  0.00  0.00    +0.053 A 
ENDROOT
BRANCH   5  11
ATOM     11  C   LIG A   1      -5.988   6.124 132.294  0.00  0.00    -0.036 A 
ATOM     12  C   LIG A   1      -6.500   5.661 133.519  0.00  0.00    +0.008 A 
ATOM     13  C   LIG A   1      -7.874   5.659 133.767  0.00  0.00    +0.049 A 
ATOM     14  C   LIG A   1      -8.754   6.117 132.788  0.00  0.00    +0.159 A 
ATOM     15  C   LIG A   1      -8.275   6.602 131.568  0.00  0.00    +0.162 A 
ATOM     16  C   LIG A   1      -6.893   6.633 131.343  0.00  0.00    +0.053 A 
BRANCH  14  17
ATOM     17  O   LIG A   1     -10.105   6.062 133.006  0.00  0.00    -0.503 OA
ATOM     18  H   LIG A   1     -10.278   6.143 133.957  0.00  0.00    +0.292 HD
ENDBRANCH  14  17
BRANCH  15  19
ATOM     19  O   LIG A   1      -9.208   7.040 130.663  0.00  0.00    -0.491 OA
ATOM     20  C   LIG A   1      -9.527   6.136 129.611  0.00  0.00    +0.277 C 
ENDBRANCH  15  19
ENDBRANCH   5  11
BRANCH   1  22
ATOM     21  C   LIG A   1      -2.748   3.087 126.399  0.00  0.00    +0.277 C 
ATOM     22  O   LIG A   1      -3.435   2.563 127.527  0.00  0.00    -0.491 OA
ENDBRANCH   1  22
BRANCH   2  23
ATOM     23  O   LIG A   1      -5.009   1.715 129.455  0.00  0.00    -0.491 OA
ATOM     24  C   LIG A   1      -6.420   1.584 129.551  0.00  0.00    +0.277 C 
ENDBRANCH   2  23
BRANCH   6  25
ATOM     25  C   LIG A   1      -2.449   7.066 132.983  0.00  0.00    +0.160 C 
BRANCH  25  26
ATOM     26  O   LIG A   1      -2.661   6.036 133.938  0.00  0.00    -0.395 OA
ATOM     27  H   LIG A   1      -1.786   5.708 134.216  0.00  0.00    +0.209 HD
ENDBRANCH  25  26
ENDBRANCH   6  25
BRANCH   7  28
ATOM     28  C   LIG A   1      -4.447   8.564 129.969  0.00  0.00    +0.160 C 
BRANCH  28  29
ATOM     29  O   LIG A   1      -4.066   9.882 129.593  0.00  0.00    -0.395 OA
ATOM     30  H   LIG A   1      -3.204  10.058 130.010  0.00  0.00    +0.209 HD
ENDBRANCH  28  29
ENDBRANCH   7  28
TORSDOF 9
ENDMDL
MODEL 7
REMARK VINA RESULT:      -6.2      3.055      6.867
REMARK  Name = NuBBE_2457
REMARK  12 active torsions:
REMARK  status: ('A' for Active; 'I' for Inactive)
REMARK    1  A    between atoms: C_1  and  O_2
REMARK    2  A    between atoms: O_2  and  C_3
REMARK    3  A    between atoms: C_4  and  O_5
REMARK    4  A    between atoms: O_5  and  C_6
REMARK    5  A    between atoms: C_9  and  C_11
REMARK    6  A    between atoms: C_14  and  O_15
REMARK    7  A    between atoms: C_16  and  O_17
REMARK    8  A    between atoms: O_17  and  C_18
REMARK    9  A    between atoms: C_20  and  C_22
REMARK   10  A    between atoms: C_22  and  O_23
REMARK   11  A    between atoms: C_24  and  C_26
REMARK   12  A    between atoms: C_26  and  O_27
REMARK                            x       y       z     vdW  Elec       q    Type
REMARK                         _______ _______ _______ _____ _____    ______ ____
ROOT
ATOM      1  C   LIG A   1      -7.333  -0.800 126.181  0.00  0.00    +0.162 A 
ATOM      2  C   LIG A   1      -5.987  -0.586 126.515  0.00  0.00    +0.162 A 
ATOM      3  C   LIG A   1      -5.387   0.628 126.181  0.00  0.00    +0.053 A 
ATOM      4  C   LIG A   1      -6.111   1.667 125.560  0.00  0.00    -0.033 A 
ATOM      5  C   LIG A   1      -5.397   2.982 125.249  0.00  0.00    +0.055 C 
ATOM      6  C   LIG A   1      -6.226   4.006 124.416  0.00  0.00    +0.032 C 
ATOM      7  C   LIG A   1      -7.762   3.908 124.634  0.00  0.00    +0.025 C 
ATOM      8  C   LIG A   1      -8.264   2.471 124.474  0.00  0.00    +0.041 C 
ATOM      9  C   LIG A   1      -7.458   1.454 125.236  0.00  0.00    -0.040 A 
ATOM     10  C   LIG A   1      -8.054   0.218 125.546  0.00  0.00    +0.053 A 
ENDROOT
BRANCH   5  11
ATOM     11  C   LIG A   1      -4.675   3.620 126.445  0.00  0.00    -0.036 A 
ATOM     12  C   LIG A   1      -3.272   3.720 126.420  0.00  0.00    +0.008 A 
ATOM     13  C   LIG A   1      -2.564   4.160 127.540  0.00  0.00    +0.049 A 
ATOM     14  C   LIG A   1      -3.253   4.503 128.702  0.00  0.00    +0.159 A 
ATOM     15  C   LIG A   1      -4.648   4.435 128.752  0.00  0.00    +0.162 A 
ATOM     16  C   LIG A   1      -5.351   4.025 127.612  0.00  0.00    +0.053 A 
BRANCH  14  17
ATOM     17  O   LIG A   1      -2.558   4.881 129.821  0.00  0.00    -0.503 OA
ATOM     18  H   LIG A   1      -3.103   4.713 130.605  0.00  0.00    +0.292 HD
ENDBRANCH  14  17
BRANCH  15  19
ATOM     19  O   LIG A   1      -5.247   4.797 129.932  0.00  0.00    -0.491 OA
ATOM     20  C   LIG A   1      -6.670   4.779 129.939  0.00  0.00    +0.277 C 
ENDBRANCH  15  19
ENDBRANCH   5  11
BRANCH   1  22
ATOM     21  C   LIG A   1      -9.076  -2.389 125.892  0.00  0.00    +0.277 C 
ATOM     22  O   LIG A   1      -7.870  -2.011 126.540  0.00  0.00    -0.491 OA
ENDBRANCH   1  22
BRANCH   2  23
ATOM     23  O   LIG A   1      -5.336  -1.629 127.130  0.00  0.00    -0.491 OA
ATOM     24  C   LIG A   1      -5.136  -1.533 128.533  0.00  0.00    +0.277 C 
ENDBRANCH   2  23
BRANCH   6  25
ATOM     25  C   LIG A   1      -5.872   3.815 122.922  0.00  0.00    +0.160 C 
BRANCH  25  26
ATOM     26  O   LIG A   1      -5.076   4.882 122.424  0.00  0.00    -0.395 OA
ATOM     27  H   LIG A   1      -5.439   5.139 121.557  0.00  0.00    +0.209 HD
ENDBRANCH  25  26
ENDBRANCH   6  25
BRANCH   7  28
ATOM     28  C   LIG A   1      -8.238   4.511 125.961  0.00  0.00    +0.160 C 
BRANCH  28  29
ATOM     29  O   LIG A   1      -8.879   5.756 125.708  0.00  0.00    -0.395 OA
ATOM     30  H   LIG A   1      -9.804   5.557 125.478  0.00  0.00    +0.209 HD
ENDBRANCH  28  29
ENDBRANCH   7  28
TORSDOF 9
ENDMDL
MODEL 8
REMARK VINA RESULT:      -6.2      2.859      7.504
REMARK  Name = NuBBE_2457
REMARK  12 active torsions:
REMARK  status: ('A' for Active; 'I' for Inactive)
REMARK    1  A    between atoms: C_1  and  O_2
REMARK    2  A    between atoms: O_2  and  C_3
REMARK    3  A    between atoms: C_4  and  O_5
REMARK    4  A    between atoms: O_5  and  C_6
REMARK    5  A    between atoms: C_9  and  C_11
REMARK    6  A    between atoms: C_14  and  O_15
REMARK    7  A    between atoms: C_16  and  O_17
REMARK    8  A    between atoms: O_17  and  C_18
REMARK    9  A    between atoms: C_20  and  C_22
REMARK   10  A    between atoms: C_22  and  O_23
REMARK   11  A    between atoms: C_24  and  C_26
REMARK   12  A    between atoms: C_26  and  O_27
REMARK                            x       y       z     vdW  Elec       q    Type
REMARK                         _______ _______ _______ _____ _____    ______ ____
ROOT
ATOM      1  C   LIG A   1      -5.775  -1.675 124.805  0.00  0.00    +0.162 A 
ATOM      2  C   LIG A   1      -6.787  -1.345 123.891  0.00  0.00    +0.162 A 
ATOM      3  C   LIG A   1      -7.308  -0.051 123.889  0.00  0.00    +0.053 A 
ATOM      4  C   LIG A   1      -6.811   0.950 124.749  0.00  0.00    -0.033 A 
ATOM      5  C   LIG A   1      -7.410   2.354 124.673  0.00  0.00    +0.055 C 
ATOM      6  C   LIG A   1      -6.916   3.345 125.770  0.00  0.00    +0.032 C 
ATOM      7  C   LIG A   1      -5.473   3.067 126.277  0.00  0.00    +0.025 C 
ATOM      8  C   LIG A   1      -5.290   1.602 126.678  0.00  0.00    +0.041 C 
ATOM      9  C   LIG A   1      -5.793   0.620 125.656  0.00  0.00    -0.040 A 
ATOM     10  C   LIG A   1      -5.289  -0.693 125.677  0.00  0.00    +0.053 A 
ENDROOT
BRANCH   5  11
ATOM     11  C   LIG A   1      -7.428   2.970 123.266  0.00  0.00    -0.036 A 
ATOM     12  C   LIG A   1      -8.656   3.086 122.589  0.00  0.00    +0.008 A 
ATOM     13  C   LIG A   1      -8.704   3.506 121.258  0.00  0.00    +0.049 A 
ATOM     14  C   LIG A   1      -7.522   3.811 120.586  0.00  0.00    +0.159 A 
ATOM     15  C   LIG A   1      -6.287   3.725 121.237  0.00  0.00    +0.162 A 
ATOM     16  C   LIG A   1      -6.253   3.337 122.583  0.00  0.00    +0.053 A 
BRANCH  14  17
ATOM     17  O   LIG A   1      -7.561   4.168 119.264  0.00  0.00    -0.503 OA
ATOM     18  H   LIG A   1      -6.673   4.435 118.981  0.00  0.00    +0.292 HD
ENDBRANCH  14  17
BRANCH  15  19
ATOM     19  O   LIG A   1      -5.174   4.050 120.506  0.00  0.00    -0.491 OA
ATOM     20  C   LIG A   1      -4.896   5.440 120.378  0.00  0.00    +0.277 C 
ENDBRANCH  15  19
ENDBRANCH   5  11
BRANCH   1  22
ATOM     21  C   LIG A   1      -4.439  -3.280 123.670  0.00  0.00    +0.277 C 
ATOM     22  O   LIG A   1      -5.298  -2.961 124.756  0.00  0.00    -0.491 OA
ENDBRANCH   1  22
BRANCH   2  23
ATOM     23  O   LIG A   1      -7.223  -2.357 123.070  0.00  0.00    -0.491 OA
ATOM     24  C   LIG A   1      -8.627  -2.531 122.942  0.00  0.00    +0.277 C 
ENDBRANCH   2  23
BRANCH   6  25
ATOM     25  C   LIG A   1      -7.925   3.312 126.943  0.00  0.00    +0.160 C 
BRANCH  25  26
ATOM     26  O   LIG A   1      -8.854   2.245 126.815  0.00  0.00    -0.395 OA
ATOM     27  H   LIG A   1      -9.667   2.609 126.419  0.00  0.00    +0.209 HD
ENDBRANCH  25  26
ENDBRANCH   6  25
BRANCH   7  28
ATOM     28  C   LIG A   1      -4.378   3.509 125.299  0.00  0.00    +0.160 C 
BRANCH  28  29
ATOM     29  O   LIG A   1      -3.169   3.730 126.016  0.00  0.00    -0.395 OA
ATOM     30  H   LIG A   1      -2.896   4.646 125.835  0.00  0.00    +0.209 HD
ENDBRANCH  28  29
ENDBRANCH   7  28
TORSDOF 9
ENDMDL
MODEL 9
REMARK VINA RESULT:      -6.1      2.721      5.472
REMARK  Name = NuBBE_2457
REMARK  12 active torsions:
REMARK  status: ('A' for Active; 'I' for Inactive)
REMARK    1  A    between atoms: C_1  and  O_2
REMARK    2  A    between atoms: O_2  and  C_3
REMARK    3  A    between atoms: C_4  and  O_5
REMARK    4  A    between atoms: O_5  and  C_6
REMARK    5  A    between atoms: C_9  and  C_11
REMARK    6  A    between atoms: C_14  and  O_15
REMARK    7  A    between atoms: C_16  and  O_17
REMARK    8  A    between atoms: O_17  and  C_18
REMARK    9  A    between atoms: C_20  and  C_22
REMARK   10  A    between atoms: C_22  and  O_23
REMARK   11  A    between atoms: C_24  and  C_26
REMARK   12  A    between atoms: C_26  and  O_27
REMARK                            x       y       z     vdW  Elec       q    Type
REMARK                         _______ _______ _______ _____ _____    ______ ____
ROOT
ATOM      1  C   LIG A   1      -7.767   3.968 130.567  0.00  0.00    +0.162 A 
ATOM      2  C   LIG A   1      -8.840   3.102 130.304  0.00  0.00    +0.162 A 
ATOM      3  C   LIG A   1      -8.939   2.504 129.047  0.00  0.00    +0.053 A 
ATOM      4  C   LIG A   1      -7.963   2.707 128.050  0.00  0.00    -0.033 A 
ATOM      5  C   LIG A   1      -8.121   1.996 126.706  0.00  0.00    +0.055 C 
ATOM      6  C   LIG A   1      -7.090   2.409 125.613  0.00  0.00    +0.032 C 
ATOM      7  C   LIG A   1      -5.712   2.860 126.175  0.00  0.00    +0.025 C 
ATOM      8  C   LIG A   1      -5.870   3.917 127.270  0.00  0.00    +0.041 C 
ATOM      9  C   LIG A   1      -6.888   3.565 128.319  0.00  0.00    -0.040 A 
ATOM     10  C   LIG A   1      -6.805   4.191 129.576  0.00  0.00    +0.053 A 
ENDROOT
BRANCH   5  11
ATOM     11  C   LIG A   1      -8.325   0.477 126.802  0.00  0.00    -0.036 A 
ATOM     12  C   LIG A   1      -7.685  -0.232 127.835  0.00  0.00    +0.008 A 
ATOM     13  C   LIG A   1      -7.726  -1.628 127.879  0.00  0.00    +0.049 A 
ATOM     14  C   LIG A   1      -8.405  -2.331 126.886  0.00  0.00    +0.159 A 
ATOM     15  C   LIG A   1      -9.068  -1.655 125.858  0.00  0.00    +0.162 A 
ATOM     16  C   LIG A   1      -9.051  -0.254 125.843  0.00  0.00    +0.053 A 
BRANCH  14  17
ATOM     17  O   LIG A   1      -8.398  -3.701 126.895  0.00  0.00    -0.503 OA
ATOM     18  H   LIG A   1      -9.218  -4.025 126.492  0.00  0.00    +0.292 HD
ENDBRANCH  14  17
BRANCH  15  19
ATOM     19  O   LIG A   1      -9.717  -2.423 124.926  0.00  0.00    -0.491 OA
ATOM     20  C   LIG A   1      -9.067  -2.556 123.667  0.00  0.00    +0.277 C 
ENDBRANCH  15  19
ENDBRANCH   5  11
BRANCH   1  22
ATOM     21  C   LIG A   1      -7.660   5.940 131.889  0.00  0.00    +0.277 C 
ATOM     22  O   LIG A   1      -7.719   4.522 131.822  0.00  0.00    -0.491 OA
ENDBRANCH   1  22
BRANCH   2  23
ATOM     23  O   LIG A   1      -9.753   2.933 131.317  0.00  0.00    -0.491 OA
ATOM     24  C   LIG A   1      -9.800   1.659 131.944  0.00  0.00    +0.277 C 
ENDBRANCH   2  23
BRANCH   6  25
ATOM     25  C   LIG A   1      -7.721   3.526 124.748  0.00  0.00    +0.160 C 
BRANCH  25  26
ATOM     26  O   LIG A   1      -9.086   3.745 125.075  0.00  0.00    -0.395 OA
ATOM     27  H   LIG A   1      -9.624   3.384 124.348  0.00  0.00    +0.209 HD
ENDBRANCH  25  26
ENDBRANCH   6  25
BRANCH   7  28
ATOM     28  C   LIG A   1      -4.831   1.701 126.654  0.00  0.00    +0.160 C 
BRANCH  28  29
ATOM     29  O   LIG A   1      -3.462   2.053 126.495  0.00  0.00    -0.395 OA
ATOM     30  H   LIG A   1      -3.389   2.530 125.649  0.00  0.00    +0.209 HD
ENDBRANCH  28  29
ENDBRANCH   7  28
TORSDOF 9
ENDMDL
