MODEL 1
REMARK VINA RESULT:      -7.1      0.000      0.000
REMARK  Name = NuBBE_2421
REMARK  8 active torsions:
REMARK  status: ('A' for Active; 'I' for Inactive)
REMARK    1  A    between atoms: O_1  and  C_2
REMARK    2  A    between atoms: O_1  and  C_3
REMARK    3  A    between atoms: C_11  and  O_12
REMARK    4  A    between atoms: C_13  and  O_16
REMARK    5  A    between atoms: O_16  and  C_17
REMARK    6  A    between atoms: N_18  and  C_19
REMARK    7  A    between atoms: C_24  and  O_25
REMARK    8  A    between atoms: O_25  and  C_26
REMARK                            x       y       z     vdW  Elec       q    Type
REMARK                         _______ _______ _______ _____ _____    ______ ____
ROOT
ATOM      1  C   LIG A   1      -6.490   3.462 123.456  0.00  0.00    +0.170 A 
ATOM      2  C   LIG A   1      -6.316   2.869 124.737  0.00  0.00    +0.036 A 
ATOM      3  C   LIG A   1      -6.988   1.643 124.998  0.00  0.00    -0.015 A 
ATOM      4  C   LIG A   1      -6.690   0.932 126.323  0.00  0.00    +0.092 C 
ATOM      5  C   LIG A   1      -5.145   0.950 126.469  0.00  0.00    +0.059 C 
ATOM      6  C   LIG A   1      -4.699   2.399 126.571  0.00  0.00    -0.034 A 
ATOM      7  C   LIG A   1      -5.382   3.377 125.793  0.00  0.00    +0.034 A 
ATOM      8  C   LIG A   1      -5.173   4.731 126.152  0.00  0.00    +0.167 A 
ATOM      9  C   LIG A   1      -4.213   5.092 127.110  0.00  0.00    +0.162 A 
ATOM     10  C   LIG A   1      -3.467   4.098 127.752  0.00  0.00    +0.050 A 
ATOM     11  C   LIG A   1      -3.715   2.755 127.493  0.00  0.00    +0.008 A 
ATOM     12  N   LIG A   1      -7.247  -0.443 126.423  0.00  0.00    -0.298 NA
ATOM     13  C   LIG A   1      -7.277  -0.889 127.822  0.00  0.00    +0.105 C 
ATOM     14  C   LIG A   1      -8.619  -0.467 125.888  0.00  0.00    +0.089 C 
ATOM     15  C   LIG A   1      -8.609  -0.182 124.385  0.00  0.00    +0.051 C 
ATOM     16  C   LIG A   1      -7.878   1.094 124.069  0.00  0.00    -0.037 A 
ATOM     17  C   LIG A   1      -8.035   1.701 122.818  0.00  0.00    +0.053 A 
ATOM     18  C   LIG A   1      -7.350   2.879 122.501  0.00  0.00    +0.162 A 
ENDROOT
BRANCH   1  19
ATOM     19  O   LIG A   1      -5.866   4.675 123.271  0.00  0.00    -0.491 OA
ATOM     20  C   LIG A   1      -4.738   4.716 122.403  0.00  0.00    +0.277 C 
ENDBRANCH   1  19
BRANCH   8  21
ATOM     21  O   LIG A   1      -5.993   5.715 125.652  0.00  0.00    -0.503 OA
ATOM     22  H   LIG A   1      -6.679   5.899 126.316  0.00  0.00    +0.292 HD
ENDBRANCH   8  21
BRANCH   9  23
ATOM     23  O   LIG A   1      -3.920   6.352 127.569  0.00  0.00    -0.491 OA
ATOM     24  C   LIG A   1      -2.650   6.536 128.180  0.00  0.00    +0.277 C 
ENDBRANCH   9  23
BRANCH  18  25
ATOM     25  O   LIG A   1      -7.455   3.472 121.270  0.00  0.00    -0.491 OA
ATOM     26  C   LIG A   1      -8.764   3.755 120.792  0.00  0.00    +0.277 C 
ENDBRANCH  18  25
TORSDOF 4
ENDMDL
MODEL 2
REMARK VINA RESULT:      -6.8      2.654      4.460
REMARK  Name = NuBBE_2421
REMARK  8 active torsions:
REMARK  status: ('A' for Active; 'I' for Inactive)
REMARK    1  A    between atoms: O_1  and  C_2
REMARK    2  A    between atoms: O_1  and  C_3
REMARK    3  A    between atoms: C_11  and  O_12
REMARK    4  A    between atoms: C_13  and  O_16
REMARK    5  A    between atoms: O_16  and  C_17
REMARK    6  A    between atoms: N_18  and  C_19
REMARK    7  A    between atoms: C_24  and  O_25
REMARK    8  A    between atoms: O_25  and  C_26
REMARK                            x       y       z     vdW  Elec       q    Type
REMARK                         _______ _______ _______ _____ _____    ______ ____
ROOT
ATOM      1  C   LIG A   1      -8.457  -0.657 125.407  0.00  0.00    +0.170 A 
ATOM      2  C   LIG A   1      -7.753  -0.376 126.611  0.00  0.00    +0.036 A 
ATOM      3  C   LIG A   1      -7.686  -1.400 127.595  0.00  0.00    -0.015 A 
ATOM      4  C   LIG A   1      -6.810  -1.149 128.829  0.00  0.00    +0.092 C 
ATOM      5  C   LIG A   1      -5.471  -0.587 128.283  0.00  0.00    +0.059 C 
ATOM      6  C   LIG A   1      -5.759   0.740 127.601  0.00  0.00    -0.034 A 
ATOM      7  C   LIG A   1      -6.974   0.877 126.870  0.00  0.00    +0.034 A 
ATOM      8  C   LIG A   1      -7.364   2.197 126.536  0.00  0.00    +0.167 A 
ATOM      9  C   LIG A   1      -6.515   3.290 126.763  0.00  0.00    +0.162 A 
ATOM     10  C   LIG A   1      -5.267   3.085 127.362  0.00  0.00    +0.050 A 
ATOM     11  C   LIG A   1      -4.894   1.816 127.791  0.00  0.00    +0.008 A 
ATOM     12  N   LIG A   1      -6.608  -2.342 129.694  0.00  0.00    -0.298 NA
ATOM     13  C   LIG A   1      -6.124  -1.943 131.021  0.00  0.00    +0.105 C 
ATOM     14  C   LIG A   1      -7.882  -3.066 129.851  0.00  0.00    +0.089 C 
ATOM     15  C   LIG A   1      -8.328  -3.654 128.511  0.00  0.00    +0.051 C 
ATOM     16  C   LIG A   1      -8.381  -2.603 127.436  0.00  0.00    -0.037 A 
ATOM     17  C   LIG A   1      -9.070  -2.852 126.245  0.00  0.00    +0.053 A 
ATOM     18  C   LIG A   1      -9.115  -1.893 125.228  0.00  0.00    +0.162 A 
ENDROOT
BRANCH   1  19
ATOM     19  O   LIG A   1      -8.542   0.383 124.509  0.00  0.00    -0.491 OA
ATOM     20  C   LIG A   1      -7.668   0.363 123.386  0.00  0.00    +0.277 C 
ENDBRANCH   1  19
BRANCH   8  21
ATOM     21  O   LIG A   1      -8.639   2.449 126.086  0.00  0.00    -0.503 OA
ATOM     22  H   LIG A   1      -8.727   2.057 125.200  0.00  0.00    +0.292 HD
ENDBRANCH   8  21
BRANCH   9  23
ATOM     23  O   LIG A   1      -6.767   4.616 126.511  0.00  0.00    -0.491 OA
ATOM     24  C   LIG A   1      -6.385   5.114 125.237  0.00  0.00    +0.277 C 
ENDBRANCH   9  23
BRANCH  18  25
ATOM     25  O   LIG A   1      -9.750  -2.126 124.036  0.00  0.00    -0.491 OA
ATOM     26  C   LIG A   1      -9.328  -3.256 123.283  0.00  0.00    +0.277 C 
ENDBRANCH  18  25
TORSDOF 4
ENDMDL
MODEL 3
REMARK VINA RESULT:      -6.6      2.709      4.805
REMARK  Name = NuBBE_2421
REMARK  8 active torsions:
REMARK  status: ('A' for Active; 'I' for Inactive)
REMARK    1  A    between atoms: O_1  and  C_2
REMARK    2  A    between atoms: O_1  and  C_3
REMARK    3  A    between atoms: C_11  and  O_12
REMARK    4  A    between atoms: C_13  and  O_16
REMARK    5  A    between atoms: O_16  and  C_17
REMARK    6  A    between atoms: N_18  and  C_19
REMARK    7  A    between atoms: C_24  and  O_25
REMARK    8  A    between atoms: O_25  and  C_26
REMARK                            x       y       z     vdW  Elec       q    Type
REMARK                         _______ _______ _______ _____ _____    ______ ____
ROOT
ATOM      1  C   LIG A   1      -7.599  -1.566 124.880  0.00  0.00    +0.170 A 
ATOM      2  C   LIG A   1      -7.221  -0.712 125.953  0.00  0.00    +0.036 A 
ATOM      3  C   LIG A   1      -7.343  -1.217 127.277  0.00  0.00    -0.015 A 
ATOM      4  C   LIG A   1      -6.803  -0.353 128.423  0.00  0.00    +0.092 C 
ATOM      5  C   LIG A   1      -5.401   0.125 127.962  0.00  0.00    +0.059 C 
ATOM      6  C   LIG A   1      -5.581   0.994 126.728  0.00  0.00    -0.034 A 
ATOM      7  C   LIG A   1      -6.589   0.636 125.788  0.00  0.00    +0.034 A 
ATOM      8  C   LIG A   1      -6.951   1.627 124.843  0.00  0.00    +0.167 A 
ATOM      9  C   LIG A   1      -6.236   2.829 124.734  0.00  0.00    +0.162 A 
ATOM     10  C   LIG A   1      -5.161   3.076 125.594  0.00  0.00    +0.050 A 
ATOM     11  C   LIG A   1      -4.840   2.167 126.597  0.00  0.00    +0.008 A 
ATOM     12  N   LIG A   1      -6.757  -1.039 129.742  0.00  0.00    -0.298 NA
ATOM     13  C   LIG A   1      -6.626  -0.062 130.830  0.00  0.00    +0.105 C 
ATOM     14  C   LIG A   1      -7.993  -1.814 129.946  0.00  0.00    +0.089 C 
ATOM     15  C   LIG A   1      -8.075  -2.960 128.936  0.00  0.00    +0.051 C 
ATOM     16  C   LIG A   1      -7.919  -2.467 127.524  0.00  0.00    -0.037 A 
ATOM     17  C   LIG A   1      -8.288  -3.284 126.451  0.00  0.00    +0.053 A 
ATOM     18  C   LIG A   1      -8.134  -2.847 125.131  0.00  0.00    +0.162 A 
ENDROOT
BRANCH   1  19
ATOM     19  O   LIG A   1      -7.517  -1.014 123.621  0.00  0.00    -0.491 OA
ATOM     20  C   LIG A   1      -6.463  -1.453 122.771  0.00  0.00    +0.277 C 
ENDBRANCH   1  19
BRANCH   8  21
ATOM     21  O   LIG A   1      -8.092   1.480 124.088  0.00  0.00    -0.503 OA
ATOM     22  H   LIG A   1      -8.654   0.815 124.523  0.00  0.00    +0.292 HD
ENDBRANCH   8  21
BRANCH   9  23
ATOM     23  O   LIG A   1      -6.485   3.879 123.885  0.00  0.00    -0.491 OA
ATOM     24  C   LIG A   1      -5.446   4.244 122.988  0.00  0.00    +0.277 C 
ENDBRANCH   9  23
BRANCH  18  25
ATOM     25  O   LIG A   1      -8.451  -3.642 124.060  0.00  0.00    -0.491 OA
ATOM     26  C   LIG A   1      -9.724  -3.446 123.457  0.00  0.00    +0.277 C 
ENDBRANCH  18  25
TORSDOF 4
ENDMDL
MODEL 4
REMARK VINA RESULT:      -6.5      3.388      5.919
REMARK  Name = NuBBE_2421
REMARK  8 active torsions:
REMARK  status: ('A' for Active; 'I' for Inactive)
REMARK    1  A    between atoms: O_1  and  C_2
REMARK    2  A    between atoms: O_1  and  C_3
REMARK    3  A    between atoms: C_11  and  O_12
REMARK    4  A    between atoms: C_13  and  O_16
REMARK    5  A    between atoms: O_16  and  C_17
REMARK    6  A    between atoms: N_18  and  C_19
REMARK    7  A    between atoms: C_24  and  O_25
REMARK    8  A    between atoms: O_25  and  C_26
REMARK                            x       y       z     vdW  Elec       q    Type
REMARK                         _______ _______ _______ _____ _____    ______ ____
ROOT
ATOM      1  C   LIG A   1      -7.260  -1.271 128.689  0.00  0.00    +0.170 A 
ATOM      2  C   LIG A   1      -7.466  -0.606 127.448  0.00  0.00    +0.036 A 
ATOM      3  C   LIG A   1      -8.182  -1.301 126.434  0.00  0.00    -0.015 A 
ATOM      4  C   LIG A   1      -8.527  -0.535 125.151  0.00  0.00    +0.092 C 
ATOM      5  C   LIG A   1      -9.088   0.834 125.619  0.00  0.00    +0.059 C 
ATOM      6  C   LIG A   1      -7.981   1.571 126.354  0.00  0.00    -0.034 A 
ATOM      7  C   LIG A   1      -7.089   0.817 127.169  0.00  0.00    +0.034 A 
ATOM      8  C   LIG A   1      -5.893   1.465 127.564  0.00  0.00    +0.167 A 
ATOM      9  C   LIG A   1      -5.682   2.828 127.309  0.00  0.00    +0.162 A 
ATOM     10  C   LIG A   1      -6.654   3.562 126.621  0.00  0.00    +0.050 A 
ATOM     11  C   LIG A   1      -7.796   2.935 126.134  0.00  0.00    +0.008 A 
ATOM     12  N   LIG A   1      -9.466  -1.247 124.243  0.00  0.00    -0.298 NA
ATOM     13  C   LIG A   1      -9.428  -0.661 122.896  0.00  0.00    +0.105 C 
ATOM     14  C   LIG A   1      -9.093  -2.669 124.154  0.00  0.00    +0.089 C 
ATOM     15  C   LIG A   1      -9.294  -3.357 125.505  0.00  0.00    +0.051 C 
ATOM     16  C   LIG A   1      -8.575  -2.631 126.608  0.00  0.00    -0.037 A 
ATOM     17  C   LIG A   1      -8.355  -3.263 127.837  0.00  0.00    +0.053 A 
ATOM     18  C   LIG A   1      -7.702  -2.597 128.879  0.00  0.00    +0.162 A 
ENDROOT
BRANCH   1  19
ATOM     19  O   LIG A   1      -6.514  -0.581 129.617  0.00  0.00    -0.491 OA
ATOM     20  C   LIG A   1      -7.203   0.019 130.709  0.00  0.00    +0.277 C 
ENDBRANCH   1  19
BRANCH   8  21
ATOM     21  O   LIG A   1      -4.858   0.738 128.106  0.00  0.00    -0.503 OA
ATOM     22  H   LIG A   1      -4.571   1.189 128.919  0.00  0.00    +0.292 HD
ENDBRANCH   8  21
BRANCH   9  23
ATOM     23  O   LIG A   1      -4.572   3.577 127.612  0.00  0.00    -0.491 OA
ATOM     24  C   LIG A   1      -3.586   3.707 126.598  0.00  0.00    +0.277 C 
ENDBRANCH   9  23
BRANCH  18  25
ATOM     25  O   LIG A   1      -7.509  -3.178 130.105  0.00  0.00    -0.491 OA
ATOM     26  C   LIG A   1      -6.387  -4.039 130.249  0.00  0.00    +0.277 C 
ENDBRANCH  18  25
TORSDOF 4
ENDMDL
MODEL 5
REMARK VINA RESULT:      -6.5      4.144      6.739
REMARK  Name = NuBBE_2421
REMARK  8 active torsions:
REMARK  status: ('A' for Active; 'I' for Inactive)
REMARK    1  A    between atoms: O_1  and  C_2
REMARK    2  A    between atoms: O_1  and  C_3
REMARK    3  A    between atoms: C_11  and  O_12
REMARK    4  A    between atoms: C_13  and  O_16
REMARK    5  A    between atoms: O_16  and  C_17
REMARK    6  A    between atoms: N_18  and  C_19
REMARK    7  A    between atoms: C_24  and  O_25
REMARK    8  A    between atoms: O_25  and  C_26
REMARK                            x       y       z     vdW  Elec       q    Type
REMARK                         _______ _______ _______ _____ _____    ______ ____
ROOT
ATOM      1  C   LIG A   1      -8.354   0.869 127.248  0.00  0.00    +0.170 A 
ATOM      2  C   LIG A   1      -7.903  -0.476 127.351  0.00  0.00    +0.036 A 
ATOM      3  C   LIG A   1      -7.572  -0.967 128.644  0.00  0.00    -0.015 A 
ATOM      4  C   LIG A   1      -7.224  -2.455 128.777  0.00  0.00    +0.092 C 
ATOM      5  C   LIG A   1      -8.317  -3.213 127.977  0.00  0.00    +0.059 C 
ATOM      6  C   LIG A   1      -8.203  -2.804 126.518  0.00  0.00    -0.034 A 
ATOM      7  C   LIG A   1      -7.865  -1.453 126.216  0.00  0.00    +0.034 A 
ATOM      8  C   LIG A   1      -7.447  -1.188 124.890  0.00  0.00    +0.167 A 
ATOM      9  C   LIG A   1      -7.525  -2.168 123.889  0.00  0.00    +0.162 A 
ATOM     10  C   LIG A   1      -7.995  -3.447 124.207  0.00  0.00    +0.050 A 
ATOM     11  C   LIG A   1      -8.323  -3.769 125.520  0.00  0.00    +0.008 A 
ATOM     12  N   LIG A   1      -7.114  -2.940 130.178  0.00  0.00    -0.298 NA
ATOM     13  C   LIG A   1      -6.399  -4.221 130.228  0.00  0.00    +0.105 C 
ATOM     14  C   LIG A   1      -6.382  -1.955 130.992  0.00  0.00    +0.089 C 
ATOM     15  C   LIG A   1      -7.187  -0.659 131.112  0.00  0.00    +0.051 C 
ATOM     16  C   LIG A   1      -7.582  -0.126 129.762  0.00  0.00    -0.037 A 
ATOM     17  C   LIG A   1      -8.024   1.194 129.631  0.00  0.00    +0.053 A 
ATOM     18  C   LIG A   1      -8.411   1.701 128.386  0.00  0.00    +0.162 A 
ENDROOT
BRANCH   1  19
ATOM     19  O   LIG A   1      -8.608   1.315 125.971  0.00  0.00    -0.491 OA
ATOM     20  C   LIG A   1      -9.916   1.113 125.444  0.00  0.00    +0.277 C 
ENDBRANCH   1  19
BRANCH   8  21
ATOM     21  O   LIG A   1      -6.841   0.008 124.581  0.00  0.00    -0.503 OA
ATOM     22  H   LIG A   1      -7.414   0.725 124.903  0.00  0.00    +0.292 HD
ENDBRANCH   8  21
BRANCH   9  23
ATOM     23  O   LIG A   1      -7.138  -2.059 122.576  0.00  0.00    -0.491 OA
ATOM     24  C   LIG A   1      -5.757  -2.238 122.295  0.00  0.00    +0.277 C 
ENDBRANCH   9  23
BRANCH  18  25
ATOM     25  O   LIG A   1      -8.885   2.978 128.236  0.00  0.00    -0.491 OA
ATOM     26  C   LIG A   1      -7.926   4.028 128.187  0.00  0.00    +0.277 C 
ENDBRANCH  18  25
TORSDOF 4
ENDMDL
MODEL 6
REMARK VINA RESULT:      -6.5      3.746      7.448
REMARK  Name = NuBBE_2421
REMARK  8 active torsions:
REMARK  status: ('A' for Active; 'I' for Inactive)
REMARK    1  A    between atoms: O_1  and  C_2
REMARK    2  A    between atoms: O_1  and  C_3
REMARK    3  A    between atoms: C_11  and  O_12
REMARK    4  A    between atoms: C_13  and  O_16
REMARK    5  A    between atoms: O_16  and  C_17
REMARK    6  A    between atoms: N_18  and  C_19
REMARK    7  A    between atoms: C_24  and  O_25
REMARK    8  A    between atoms: O_25  and  C_26
REMARK                            x       y       z     vdW  Elec       q    Type
REMARK                         _______ _______ _______ _____ _____    ______ ____
ROOT
ATOM      1  C   LIG A   1      -5.720   0.358 127.915  0.00  0.00    +0.170 A 
ATOM      2  C   LIG A   1      -5.977  -1.014 128.188  0.00  0.00    +0.036 A 
ATOM      3  C   LIG A   1      -5.435  -1.567 129.380  0.00  0.00    -0.015 A 
ATOM      4  C   LIG A   1      -5.830  -3.003 129.747  0.00  0.00    +0.092 C 
ATOM      5  C   LIG A   1      -7.367  -3.076 129.554  0.00  0.00    +0.059 C 
ATOM      6  C   LIG A   1      -7.671  -2.837 128.085  0.00  0.00    -0.034 A 
ATOM      7  C   LIG A   1      -6.879  -1.892 127.373  0.00  0.00    +0.034 A 
ATOM      8  C   LIG A   1      -6.961  -1.934 125.960  0.00  0.00    +0.167 A 
ATOM      9  C   LIG A   1      -7.899  -2.747 125.307  0.00  0.00    +0.162 A 
ATOM     10  C   LIG A   1      -8.753  -3.561 126.059  0.00  0.00    +0.050 A 
ATOM     11  C   LIG A   1      -8.633  -3.616 127.443  0.00  0.00    +0.008 A 
ATOM     12  N   LIG A   1      -5.413  -3.428 131.110  0.00  0.00    -0.298 NA
ATOM     13  C   LIG A   1      -5.456  -4.891 131.232  0.00  0.00    +0.105 C 
ATOM     14  C   LIG A   1      -4.039  -2.969 131.378  0.00  0.00    +0.089 C 
ATOM     15  C   LIG A   1      -3.991  -1.441 131.437  0.00  0.00    +0.051 C 
ATOM     16  C   LIG A   1      -4.586  -0.820 130.202  0.00  0.00    -0.037 A 
ATOM     17  C   LIG A   1      -4.344   0.526 129.909  0.00  0.00    +0.053 A 
ATOM     18  C   LIG A   1      -4.902   1.123 128.774  0.00  0.00    +0.162 A 
ENDROOT
BRANCH   1  19
ATOM     19  O   LIG A   1      -6.218   0.832 126.722  0.00  0.00    -0.491 OA
ATOM     20  C   LIG A   1      -7.382   1.651 126.767  0.00  0.00    +0.277 C 
ENDBRANCH   1  19
BRANCH   8  21
ATOM     21  O   LIG A   1      -6.037  -1.263 125.192  0.00  0.00    -0.503 OA
ATOM     22  H   LIG A   1      -6.412  -0.395 124.965  0.00  0.00    +0.292 HD
ENDBRANCH   8  21
BRANCH   9  23
ATOM     23  O   LIG A   1      -8.076  -2.904 123.954  0.00  0.00    -0.491 OA
ATOM     24  C   LIG A   1      -9.406  -3.105 123.498  0.00  0.00    +0.277 C 
ENDBRANCH   9  23
BRANCH  18  25
ATOM     25  O   LIG A   1      -4.714   2.449 128.483  0.00  0.00    -0.491 OA
ATOM     26  C   LIG A   1      -3.490   2.812 127.858  0.00  0.00    +0.277 C 
ENDBRANCH  18  25
TORSDOF 4
ENDMDL
MODEL 7
REMARK VINA RESULT:      -6.2      5.130      7.353
REMARK  Name = NuBBE_2421
REMARK  8 active torsions:
REMARK  status: ('A' for Active; 'I' for Inactive)
REMARK    1  A    between atoms: O_1  and  C_2
REMARK    2  A    between atoms: O_1  and  C_3
REMARK    3  A    between atoms: C_11  and  O_12
REMARK    4  A    between atoms: C_13  and  O_16
REMARK    5  A    between atoms: O_16  and  C_17
REMARK    6  A    between atoms: N_18  and  C_19
REMARK    7  A    between atoms: C_24  and  O_25
REMARK    8  A    between atoms: O_25  and  C_26
REMARK                            x       y       z     vdW  Elec       q    Type
REMARK                         _______ _______ _______ _____ _____    ______ ____
ROOT
ATOM      1  C   LIG A   1      -6.264   3.446 128.703  0.00  0.00    +0.170 A 
ATOM      2  C   LIG A   1      -6.563   4.197 129.873  0.00  0.00    +0.036 A 
ATOM      3  C   LIG A   1      -5.552   4.307 130.867  0.00  0.00    -0.015 A 
ATOM      4  C   LIG A   1      -5.820   5.232 132.061  0.00  0.00    +0.092 C 
ATOM      5  C   LIG A   1      -6.376   6.547 131.453  0.00  0.00    +0.059 C 
ATOM      6  C   LIG A   1      -7.694   6.228 130.766  0.00  0.00    -0.034 A 
ATOM      7  C   LIG A   1      -7.820   4.984 130.084  0.00  0.00    +0.034 A 
ATOM      8  C   LIG A   1      -9.135   4.578 129.748  0.00  0.00    +0.167 A 
ATOM      9  C   LIG A   1     -10.232   5.434 129.926  0.00  0.00    +0.162 A 
ATOM     10  C   LIG A   1     -10.037   6.705 130.477  0.00  0.00    +0.050 A 
ATOM     11  C   LIG A   1      -8.774   7.099 130.907  0.00  0.00    +0.008 A 
ATOM     12  N   LIG A   1      -4.639   5.471 132.932  0.00  0.00    -0.298 NA
ATOM     13  C   LIG A   1      -5.056   6.009 134.233  0.00  0.00    +0.105 C 
ATOM     14  C   LIG A   1      -3.915   4.207 133.150  0.00  0.00    +0.089 C 
ATOM     15  C   LIG A   1      -3.309   3.707 131.837  0.00  0.00    +0.051 C 
ATOM     16  C   LIG A   1      -4.346   3.608 130.752  0.00  0.00    -0.037 A 
ATOM     17  C   LIG A   1      -4.080   2.871 129.593  0.00  0.00    +0.053 A 
ATOM     18  C   LIG A   1      -5.026   2.783 128.567  0.00  0.00    +0.162 A 
ENDROOT
BRANCH   1  19
ATOM     19  O   LIG A   1      -7.293   3.322 127.796  0.00  0.00    -0.491 OA
ATOM     20  C   LIG A   1      -7.239   4.120 126.618  0.00  0.00    +0.277 C 
ENDBRANCH   1  19
BRANCH   8  21
ATOM     21  O   LIG A   1      -9.379   3.285 129.348  0.00  0.00    -0.503 OA
ATOM     22  H   LIG A   1     -10.226   3.275 128.869  0.00  0.00    +0.292 HD
ENDBRANCH   8  21
BRANCH   9  23
ATOM     23  O   LIG A   1     -11.554   5.169 129.668  0.00  0.00    -0.491 OA
ATOM     24  C   LIG A   1     -12.381   6.276 129.337  0.00  0.00    +0.277 C 
ENDBRANCH   9  23
BRANCH  18  25
ATOM     25  O   LIG A   1      -4.777   2.100 127.405  0.00  0.00    -0.491 OA
ATOM     26  C   LIG A   1      -3.759   2.613 126.554  0.00  0.00    +0.277 C 
ENDBRANCH  18  25
TORSDOF 4
ENDMDL
MODEL 8
REMARK VINA RESULT:      -6.1      4.488      6.346
REMARK  Name = NuBBE_2421
REMARK  8 active torsions:
REMARK  status: ('A' for Active; 'I' for Inactive)
REMARK    1  A    between atoms: O_1  and  C_2
REMARK    2  A    between atoms: O_1  and  C_3
REMARK    3  A    between atoms: C_11  and  O_12
REMARK    4  A    between atoms: C_13  and  O_16
REMARK    5  A    between atoms: O_16  and  C_17
REMARK    6  A    between atoms: N_18  and  C_19
REMARK    7  A    between atoms: C_24  and  O_25
REMARK    8  A    between atoms: O_25  and  C_26
REMARK                            x       y       z     vdW  Elec       q    Type
REMARK                         _______ _______ _______ _____ _____    ______ ____
ROOT
ATOM      1  C   LIG A   1      -8.374  -1.974 126.637  0.00  0.00    +0.170 A 
ATOM      2  C   LIG A   1      -7.916  -0.808 127.311  0.00  0.00    +0.036 A 
ATOM      3  C   LIG A   1      -8.195   0.454 126.716  0.00  0.00    -0.015 A 
ATOM      4  C   LIG A   1      -7.828   1.715 127.510  0.00  0.00    +0.092 C 
ATOM      5  C   LIG A   1      -8.349   1.467 128.950  0.00  0.00    +0.059 C 
ATOM      6  C   LIG A   1      -7.595   0.281 129.527  0.00  0.00    -0.034 A 
ATOM      7  C   LIG A   1      -7.267  -0.801 128.661  0.00  0.00    +0.034 A 
ATOM      8  C   LIG A   1      -6.296  -1.717 129.134  0.00  0.00    +0.167 A 
ATOM      9  C   LIG A   1      -5.812  -1.655 130.449  0.00  0.00    +0.162 A 
ATOM     10  C   LIG A   1      -6.269  -0.651 131.309  0.00  0.00    +0.050 A 
ATOM     11  C   LIG A   1      -7.149   0.322 130.848  0.00  0.00    +0.008 A 
ATOM     12  N   LIG A   1      -8.354   2.980 126.932  0.00  0.00    -0.298 NA
ATOM     13  C   LIG A   1      -7.644   4.138 127.490  0.00  0.00    +0.105 C 
ATOM     14  C   LIG A   1      -8.175   2.974 125.470  0.00  0.00    +0.089 C 
ATOM     15  C   LIG A   1      -9.045   1.889 124.832  0.00  0.00    +0.051 C 
ATOM     16  C   LIG A   1      -8.799   0.543 125.459  0.00  0.00    -0.037 A 
ATOM     17  C   LIG A   1      -9.235  -0.620 124.815  0.00  0.00    +0.053 A 
ATOM     18  C   LIG A   1      -9.029  -1.877 125.391  0.00  0.00    +0.162 A 
ENDROOT
BRANCH   1  19
ATOM     19  O   LIG A   1      -8.031  -3.172 127.222  0.00  0.00    -0.491 OA
ATOM     20  C   LIG A   1      -9.041  -3.872 127.941  0.00  0.00    +0.277 C 
ENDBRANCH   1  19
BRANCH   8  21
ATOM     21  O   LIG A   1      -5.717  -2.619 128.271  0.00  0.00    -0.503 OA
ATOM     22  H   LIG A   1      -4.838  -2.280 128.030  0.00  0.00    +0.292 HD
ENDBRANCH   8  21
BRANCH   9  23
ATOM     23  O   LIG A   1      -4.862  -2.457 131.032  0.00  0.00    -0.491 OA
ATOM     24  C   LIG A   1      -4.334  -2.027 132.279  0.00  0.00    +0.277 C 
ENDBRANCH   9  23
BRANCH  18  25
ATOM     25  O   LIG A   1      -9.479  -3.030 124.801  0.00  0.00    -0.491 OA
ATOM     26  C   LIG A   1      -9.401  -3.110 123.384  0.00  0.00    +0.277 C 
ENDBRANCH  18  25
TORSDOF 4
ENDMDL
MODEL 9
REMARK VINA RESULT:      -6.1      4.728      7.882
REMARK  Name = NuBBE_2421
REMARK  8 active torsions:
REMARK  status: ('A' for Active; 'I' for Inactive)
REMARK    1  A    between atoms: O_1  and  C_2
REMARK    2  A    between atoms: O_1  and  C_3
REMARK    3  A    between atoms: C_11  and  O_12
REMARK    4  A    between atoms: C_13  and  O_16
REMARK    5  A    between atoms: O_16  and  C_17
REMARK    6  A    between atoms: N_18  and  C_19
REMARK    7  A    between atoms: C_24  and  O_25
REMARK    8  A    between atoms: O_25  and  C_26
REMARK                            x       y       z     vdW  Elec       q    Type
REMARK                         _______ _______ _______ _____ _____    ______ ____
ROOT
ATOM      1  C   LIG A   1      -6.733   0.598 129.365  0.00  0.00    +0.170 A 
ATOM      2  C   LIG A   1      -6.710  -0.824 129.340  0.00  0.00    +0.036 A 
ATOM      3  C   LIG A   1      -6.010  -1.495 130.380  0.00  0.00    -0.015 A 
ATOM      4  C   LIG A   1      -6.104  -3.025 130.434  0.00  0.00    +0.092 C 
ATOM      5  C   LIG A   1      -7.608  -3.357 130.249  0.00  0.00    +0.059 C 
ATOM      6  C   LIG A   1      -8.030  -2.883 128.868  0.00  0.00    -0.034 A 
ATOM      7  C   LIG A   1      -7.471  -1.673 128.367  0.00  0.00    +0.034 A 
ATOM      8  C   LIG A   1      -7.619  -1.435 126.978  0.00  0.00    +0.167 A 
ATOM      9  C   LIG A   1      -8.420  -2.263 126.177  0.00  0.00    +0.162 A 
ATOM     10  C   LIG A   1      -9.062  -3.367 126.747  0.00  0.00    +0.050 A 
ATOM     11  C   LIG A   1      -8.860  -3.684 128.086  0.00  0.00    +0.008 A 
ATOM     12  N   LIG A   1      -5.542  -3.633 131.669  0.00  0.00    -0.298 NA
ATOM     13  C   LIG A   1      -5.300  -5.069 131.475  0.00  0.00    +0.105 C 
ATOM     14  C   LIG A   1      -4.268  -2.978 132.013  0.00  0.00    +0.089 C 
ATOM     15  C   LIG A   1      -4.508  -1.517 132.398  0.00  0.00    +0.051 C 
ATOM     16  C   LIG A   1      -5.274  -0.783 131.333  0.00  0.00    -0.037 A 
ATOM     17  C   LIG A   1      -5.309   0.615 131.331  0.00  0.00    +0.053 A 
ATOM     18  C   LIG A   1      -6.031   1.314 130.358  0.00  0.00    +0.162 A 
ENDROOT
BRANCH   1  19
ATOM     19  O   LIG A   1      -7.375   1.202 128.308  0.00  0.00    -0.491 OA
ATOM     20  C   LIG A   1      -8.630   1.825 128.561  0.00  0.00    +0.277 C 
ENDBRANCH   1  19
BRANCH   8  21
ATOM     21  O   LIG A   1      -6.883  -0.451 126.361  0.00  0.00    -0.503 OA
ATOM     22  H   LIG A   1      -7.252   0.409 126.627  0.00  0.00    +0.292 HD
ENDBRANCH   8  21
BRANCH   9  23
ATOM     23  O   LIG A   1      -8.636  -2.167 124.825  0.00  0.00    -0.491 OA
ATOM     24  C   LIG A   1      -8.959  -3.368 124.137  0.00  0.00    +0.277 C 
ENDBRANCH   9  23
BRANCH  18  25
ATOM     25  O   LIG A   1      -6.114   2.682 130.356  0.00  0.00    -0.491 OA
ATOM     26  C   LIG A   1      -5.009   3.401 129.823  0.00  0.00    +0.277 C 
ENDBRANCH  18  25
TORSDOF 4
ENDMDL
