MODEL 1
REMARK VINA RESULT:      -6.7      0.000      0.000
REMARK  Name = NuBBE_109
REMARK  18 active torsions:
REMARK  status: ('A' for Active; 'I' for Inactive)
REMARK    1  A    between atoms: C_2  and  C_37
REMARK    2  A    between atoms: C_3  and  C_4
REMARK    3  A    between atoms: C_4  and  O_5
REMARK    4  A    between atoms: C_4  and  C_9
REMARK    5  A    between atoms: O_5  and  C_6
REMARK    6  A    between atoms: C_6  and  C_7
REMARK    7  A    between atoms: C_10  and  O_19
REMARK    8  A    between atoms: C_14  and  C_15
REMARK    9  A    between atoms: C_15  and  O_16
REMARK   10  A    between atoms: O_16  and  C_17
REMARK   11  A    between atoms: O_19  and  C_20
REMARK   12  A    between atoms: C_23  and  C_31
REMARK   13  A    between atoms: C_25  and  O_30
REMARK   14  A    between atoms: C_27  and  O_29
REMARK   15  A    between atoms: C_31  and  O_32
REMARK   16  A    between atoms: C_33  and  O_35
REMARK   17  A    between atoms: C_37  and  C_38
REMARK   18  A    between atoms: C_38  and  O_39
REMARK                            x       y       z     vdW  Elec       q    Type
REMARK                         _______ _______ _______ _____ _____    ______ ____
ROOT
ATOM      1  C   LIG A   1      -8.238   2.018 126.447  0.00  0.00    +0.052 C 
ATOM      2  C   LIG A   1      -7.042   2.494 127.344  0.00  0.00    +0.106 C 
ATOM      3  C   LIG A   1      -7.364   3.978 127.731  0.00  0.00    +0.316 C 
ATOM      4  O   LIG A   1      -7.502   4.820 126.571  0.00  0.00    -0.470 OA
ATOM      5  C   LIG A   1      -8.077   4.265 125.456  0.00  0.00    +0.201 C 
ATOM      6  C   LIG A   1      -8.436   2.978 125.299  0.00  0.00    +0.075 C 
ENDROOT
BRANCH   2   7
ATOM      7  C   LIG A   1      -5.555   2.419 126.849  0.00  0.00    +0.183 C 
ATOM      8  C   LIG A   1      -5.008   1.126 126.214  0.00  0.00    +0.052 C 
BRANCH   7   9
ATOM      9  O   LIG A   1      -4.639   2.967 127.829  0.00  0.00    -0.461 OA
BRANCH   9  10
ATOM     10  C   LIG A   1      -3.746   3.870 127.371  0.00  0.00    +0.304 C 
ATOM     11  C   LIG A   1      -2.347   3.356 127.319  0.00  0.00    +0.136 C 
ATOM     12  O   LIG A   1      -4.044   4.998 126.990  0.00  0.00    -0.251 OA
ENDBRANCH   9  10
ENDBRANCH   7   9
ENDBRANCH   2   7
BRANCH   6  13
ATOM     13  C   LIG A   1      -8.943   2.638 123.958  0.00  0.00    +0.338 C 
ATOM     14  O   LIG A   1      -9.888   1.925 123.719  0.00  0.00    -0.245 OA
BRANCH  13  15
ATOM     15  O   LIG A   1      -8.257   3.376 123.046  0.00  0.00    -0.465 OA
ATOM     16  C   LIG A   1      -7.120   2.755 122.437  0.00  0.00    +0.280 C 
ENDBRANCH  13  15
ENDBRANCH   6  13
BRANCH   3  17
ATOM     17  O   LIG A   1      -8.535   4.152 128.540  0.00  0.00    -0.309 OA
BRANCH  17  18
ATOM     18  C   LIG A   1      -8.406   4.954 129.716  0.00  0.00    +0.286 C 
ATOM     19  O   LIG A   1      -8.553   4.065 130.853  0.00  0.00    -0.340 OA
ATOM     20  C   LIG A   1      -8.852   4.767 132.071  0.00  0.00    +0.178 C 
ATOM     21  C   LIG A   1     -10.282   5.351 132.013  0.00  0.00    +0.177 C 
ATOM     22  C   LIG A   1     -10.666   5.696 130.572  0.00  0.00    +0.179 C 
ATOM     23  C   LIG A   1      -9.428   6.121 129.771  0.00  0.00    +0.201 C 
BRANCH  22  24
ATOM     24  O   LIG A   1     -11.320   4.583 129.950  0.00  0.00    -0.386 OA
ATOM     25  H   LIG A   1     -10.733   3.802 130.027  0.00  0.00    +0.210 HD
ENDBRANCH  22  24
BRANCH  21  26
ATOM     26  O   LIG A   1     -10.388   6.528 132.822  0.00  0.00    -0.387 OA
ATOM     27  H   LIG A   1     -10.604   6.211 133.723  0.00  0.00    +0.210 HD
ENDBRANCH  21  26
BRANCH  23  28
ATOM     28  O   LIG A   1      -8.777   7.270 130.339  0.00  0.00    -0.384 OA
ATOM     29  H   LIG A   1      -9.404   8.017 130.314  0.00  0.00    +0.210 HD
ENDBRANCH  23  28
BRANCH  20  30
ATOM     30  C   LIG A   1      -8.741   3.801 133.257  0.00  0.00    +0.190 C 
BRANCH  30  31
ATOM     31  O   LIG A   1      -9.897   3.899 134.087  0.00  0.00    -0.392 OA
ATOM     32  H   LIG A   1     -10.134   2.990 134.347  0.00  0.00    +0.209 HD
ENDBRANCH  30  31
ENDBRANCH  20  30
ENDBRANCH  17  18
ENDBRANCH   3  17
BRANCH   1  33
ATOM     33  C   LIG A   1      -8.688   0.525 126.453  0.00  0.00    +0.129 C 
BRANCH  33  34
ATOM     34  C   LIG A   1      -8.542  -0.671 125.523  0.00  0.00    +0.305 C 
ATOM     35  O   LIG A   1      -7.653  -1.500 125.721  0.00  0.00    -0.251 OA
BRANCH  34  36
ATOM     36  O   LIG A   1      -9.424  -0.896 124.554  0.00  0.00    -0.481 OA
ATOM     37  H   LIG A   1     -10.355  -0.682 124.814  0.00  0.00    +0.295 HD
ENDBRANCH  34  36
ENDBRANCH  33  34
ENDBRANCH   1  33
TORSDOF 15
ENDMDL
MODEL 2
REMARK VINA RESULT:      -6.7      2.312      5.101
REMARK  Name = NuBBE_109
REMARK  18 active torsions:
REMARK  status: ('A' for Active; 'I' for Inactive)
REMARK    1  A    between atoms: C_2  and  C_37
REMARK    2  A    between atoms: C_3  and  C_4
REMARK    3  A    between atoms: C_4  and  O_5
REMARK    4  A    between atoms: C_4  and  C_9
REMARK    5  A    between atoms: O_5  and  C_6
REMARK    6  A    between atoms: C_6  and  C_7
REMARK    7  A    between atoms: C_10  and  O_19
REMARK    8  A    between atoms: C_14  and  C_15
REMARK    9  A    between atoms: C_15  and  O_16
REMARK   10  A    between atoms: O_16  and  C_17
REMARK   11  A    between atoms: O_19  and  C_20
REMARK   12  A    between atoms: C_23  and  C_31
REMARK   13  A    between atoms: C_25  and  O_30
REMARK   14  A    between atoms: C_27  and  O_29
REMARK   15  A    between atoms: C_31  and  O_32
REMARK   16  A    between atoms: C_33  and  O_35
REMARK   17  A    between atoms: C_37  and  C_38
REMARK   18  A    between atoms: C_38  and  O_39
REMARK                            x       y       z     vdW  Elec       q    Type
REMARK                         _______ _______ _______ _____ _____    ______ ____
ROOT
ATOM      1  C   LIG A   1      -6.546   4.036 127.965  0.00  0.00    +0.052 C 
ATOM      2  C   LIG A   1      -7.409   3.069 128.850  0.00  0.00    +0.106 C 
ATOM      3  C   LIG A   1      -7.380   3.675 130.295  0.00  0.00    +0.316 C 
ATOM      4  O   LIG A   1      -6.038   3.780 130.808  0.00  0.00    -0.470 OA
ATOM      5  C   LIG A   1      -5.046   4.096 129.915  0.00  0.00    +0.201 C 
ATOM      6  C   LIG A   1      -5.181   4.221 128.582  0.00  0.00    +0.075 C 
ENDROOT
BRANCH   2   7
ATOM      7  C   LIG A   1      -7.097   1.534 128.945  0.00  0.00    +0.183 C 
ATOM      8  C   LIG A   1      -6.493   0.785 127.742  0.00  0.00    +0.052 C 
BRANCH   7   9
ATOM      9  O   LIG A   1      -8.198   0.802 129.538  0.00  0.00    -0.461 OA
BRANCH   9  10
ATOM     10  C   LIG A   1      -7.950   0.214 130.727  0.00  0.00    +0.304 C 
ATOM     11  C   LIG A   1      -9.107   0.253 131.668  0.00  0.00    +0.136 C 
ATOM     12  O   LIG A   1      -6.894  -0.343 131.011  0.00  0.00    -0.251 OA
ENDBRANCH   9  10
ENDBRANCH   7   9
ENDBRANCH   2   7
BRANCH   6  13
ATOM     13  C   LIG A   1      -3.925   4.473 127.855  0.00  0.00    +0.338 C 
ATOM     14  O   LIG A   1      -3.188   3.629 127.403  0.00  0.00    -0.245 OA
BRANCH  13  15
ATOM     15  O   LIG A   1      -3.811   5.813 127.657  0.00  0.00    -0.465 OA
ATOM     16  C   LIG A   1      -2.636   6.445 128.176  0.00  0.00    +0.280 C 
ENDBRANCH  13  15
ENDBRANCH   6  13
BRANCH   3  17
ATOM     17  O   LIG A   1      -8.001   4.960 130.426  0.00  0.00    -0.309 OA
BRANCH  17  18
ATOM     18  C   LIG A   1      -9.260   5.149 129.778  0.00  0.00    +0.286 C 
ATOM     19  O   LIG A   1      -9.292   6.519 129.305  0.00  0.00    -0.340 OA
ATOM     20  C   LIG A   1     -10.623   6.972 129.005  0.00  0.00    +0.178 C 
ATOM     21  C   LIG A   1     -11.440   7.129 130.307  0.00  0.00    +0.177 C 
ATOM     22  C   LIG A   1     -10.968   6.129 131.365  0.00  0.00    +0.179 C 
ATOM     23  C   LIG A   1     -10.470   4.837 130.701  0.00  0.00    +0.201 C 
BRANCH  22  24
ATOM     24  O   LIG A   1      -9.945   6.710 132.182  0.00  0.00    -0.386 OA
ATOM     25  H   LIG A   1      -9.847   6.159 132.986  0.00  0.00    +0.210 HD
ENDBRANCH  22  24
BRANCH  21  26
ATOM     26  O   LIG A   1     -12.837   6.932 130.064  0.00  0.00    -0.387 OA
ATOM     27  H   LIG A   1     -13.032   7.416 129.235  0.00  0.00    +0.210 HD
ENDBRANCH  21  26
BRANCH  23  28
ATOM     28  O   LIG A   1     -11.489   4.198 129.914  0.00  0.00    -0.384 OA
ATOM     29  H   LIG A   1     -11.293   3.243 129.882  0.00  0.00    +0.210 HD
ENDBRANCH  23  28
BRANCH  20  30
ATOM     30  C   LIG A   1     -10.552   8.321 128.278  0.00  0.00    +0.190 C 
BRANCH  30  31
ATOM     31  O   LIG A   1     -11.764   9.051 128.467  0.00  0.00    -0.392 OA
ATOM     32  H   LIG A   1     -11.846   9.214 129.424  0.00  0.00    +0.209 HD
ENDBRANCH  30  31
ENDBRANCH  20  30
ENDBRANCH  17  18
ENDBRANCH   3  17
BRANCH   1  33
ATOM     33  C   LIG A   1      -6.881   4.239 126.455  0.00  0.00    +0.129 C 
BRANCH  33  34
ATOM     34  C   LIG A   1      -8.095   4.676 125.648  0.00  0.00    +0.305 C 
ATOM     35  O   LIG A   1      -8.849   5.545 126.089  0.00  0.00    -0.251 OA
BRANCH  34  36
ATOM     36  O   LIG A   1      -8.305   4.208 124.421  0.00  0.00    -0.481 OA
ATOM     37  H   LIG A   1      -7.693   4.593 123.745  0.00  0.00    +0.295 HD
ENDBRANCH  34  36
ENDBRANCH  33  34
ENDBRANCH   1  33
TORSDOF 15
ENDMDL
MODEL 3
REMARK VINA RESULT:      -6.7      4.093      7.730
REMARK  Name = NuBBE_109
REMARK  18 active torsions:
REMARK  status: ('A' for Active; 'I' for Inactive)
REMARK    1  A    between atoms: C_2  and  C_37
REMARK    2  A    between atoms: C_3  and  C_4
REMARK    3  A    between atoms: C_4  and  O_5
REMARK    4  A    between atoms: C_4  and  C_9
REMARK    5  A    between atoms: O_5  and  C_6
REMARK    6  A    between atoms: C_6  and  C_7
REMARK    7  A    between atoms: C_10  and  O_19
REMARK    8  A    between atoms: C_14  and  C_15
REMARK    9  A    between atoms: C_15  and  O_16
REMARK   10  A    between atoms: O_16  and  C_17
REMARK   11  A    between atoms: O_19  and  C_20
REMARK   12  A    between atoms: C_23  and  C_31
REMARK   13  A    between atoms: C_25  and  O_30
REMARK   14  A    between atoms: C_27  and  O_29
REMARK   15  A    between atoms: C_31  and  O_32
REMARK   16  A    between atoms: C_33  and  O_35
REMARK   17  A    between atoms: C_37  and  C_38
REMARK   18  A    between atoms: C_38  and  O_39
REMARK                            x       y       z     vdW  Elec       q    Type
REMARK                         _______ _______ _______ _____ _____    ______ ____
ROOT
ATOM      1  C   LIG A   1      -5.953  -1.756 128.571  0.00  0.00    +0.052 C 
ATOM      2  C   LIG A   1      -6.973  -1.907 127.387  0.00  0.00    +0.106 C 
ATOM      3  C   LIG A   1      -7.417  -0.450 127.020  0.00  0.00    +0.316 C 
ATOM      4  O   LIG A   1      -8.025   0.226 128.137  0.00  0.00    -0.470 OA
ATOM      5  C   LIG A   1      -7.519  -0.039 129.384  0.00  0.00    +0.201 C 
ATOM      6  C   LIG A   1      -6.573  -0.947 129.685  0.00  0.00    +0.075 C 
ENDROOT
BRANCH   2   7
ATOM      7  C   LIG A   1      -8.254  -2.805 127.507  0.00  0.00    +0.183 C 
ATOM      8  C   LIG A   1      -8.550  -3.572 128.810  0.00  0.00    +0.052 C 
BRANCH   7   9
ATOM      9  O   LIG A   1      -8.429  -3.642 126.337  0.00  0.00    -0.461 OA
BRANCH   9  10
ATOM     10  C   LIG A   1      -8.861  -3.021 125.220  0.00  0.00    +0.304 C 
ATOM     11  C   LIG A   1      -7.978  -3.233 124.036  0.00  0.00    +0.136 C 
ATOM     12  O   LIG A   1      -9.902  -2.375 125.152  0.00  0.00    -0.251 OA
ENDBRANCH   9  10
ENDBRANCH   7   9
ENDBRANCH   2   7
BRANCH   6  13
ATOM     13  C   LIG A   1      -6.289  -1.089 131.124  0.00  0.00    +0.338 C 
ATOM     14  O   LIG A   1      -6.847  -1.844 131.884  0.00  0.00    -0.245 OA
BRANCH  13  15
ATOM     15  O   LIG A   1      -5.200  -0.330 131.418  0.00  0.00    -0.465 OA
ATOM     16  C   LIG A   1      -4.776  -0.314 132.785  0.00  0.00    +0.280 C 
ENDBRANCH  13  15
ENDBRANCH   6  13
BRANCH   3  17
ATOM     17  O   LIG A   1      -6.374   0.393 126.513  0.00  0.00    -0.309 OA
BRANCH  17  18
ATOM     18  C   LIG A   1      -6.524   0.897 125.185  0.00  0.00    +0.286 C 
ATOM     19  O   LIG A   1      -5.930   2.219 125.163  0.00  0.00    -0.340 OA
ATOM     20  C   LIG A   1      -6.358   3.002 124.036  0.00  0.00    +0.178 C 
ATOM     21  C   LIG A   1      -7.846   3.390 124.190  0.00  0.00    +0.177 C 
ATOM     22  C   LIG A   1      -8.606   2.317 124.974  0.00  0.00    +0.179 C 
ATOM     23  C   LIG A   1      -8.003   0.930 124.712  0.00  0.00    +0.201 C 
BRANCH  22  24
ATOM     24  O   LIG A   1      -8.597   2.621 126.374  0.00  0.00    -0.386 OA
ATOM     25  H   LIG A   1      -8.371   3.569 126.479  0.00  0.00    +0.210 HD
ENDBRANCH  22  24
BRANCH  21  26
ATOM     26  O   LIG A   1      -8.466   3.564 122.911  0.00  0.00    -0.387 OA
ATOM     27  H   LIG A   1      -8.923   4.429 122.954  0.00  0.00    +0.210 HD
ENDBRANCH  21  26
BRANCH  23  28
ATOM     28  O   LIG A   1      -8.044   0.570 123.321  0.00  0.00    -0.384 OA
ATOM     29  H   LIG A   1      -7.156   0.718 122.944  0.00  0.00    +0.210 HD
ENDBRANCH  23  28
BRANCH  20  30
ATOM     30  C   LIG A   1      -5.504   4.273 123.943  0.00  0.00    +0.190 C 
BRANCH  30  31
ATOM     31  O   LIG A   1      -6.250   5.406 124.387  0.00  0.00    -0.392 OA
ATOM     32  H   LIG A   1      -5.770   5.776 125.149  0.00  0.00    +0.209 HD
ENDBRANCH  30  31
ENDBRANCH  20  30
ENDBRANCH  17  18
ENDBRANCH   3  17
BRANCH   1  33
ATOM     33  C   LIG A   1      -4.786  -2.775 128.746  0.00  0.00    +0.129 C 
BRANCH  33  34
ATOM     34  C   LIG A   1      -3.435  -2.788 129.445  0.00  0.00    +0.305 C 
ATOM     35  O   LIG A   1      -2.731  -3.798 129.410  0.00  0.00    -0.251 OA
BRANCH  34  36
ATOM     36  O   LIG A   1      -2.948  -1.687 130.013  0.00  0.00    -0.481 OA
ATOM     37  H   LIG A   1      -3.543  -0.903 129.921  0.00  0.00    +0.295 HD
ENDBRANCH  34  36
ENDBRANCH  33  34
ENDBRANCH   1  33
TORSDOF 15
ENDMDL
MODEL 4
REMARK VINA RESULT:      -6.6      1.918      3.698
REMARK  Name = NuBBE_109
REMARK  18 active torsions:
REMARK  status: ('A' for Active; 'I' for Inactive)
REMARK    1  A    between atoms: C_2  and  C_37
REMARK    2  A    between atoms: C_3  and  C_4
REMARK    3  A    between atoms: C_4  and  O_5
REMARK    4  A    between atoms: C_4  and  C_9
REMARK    5  A    between atoms: O_5  and  C_6
REMARK    6  A    between atoms: C_6  and  C_7
REMARK    7  A    between atoms: C_10  and  O_19
REMARK    8  A    between atoms: C_14  and  C_15
REMARK    9  A    between atoms: C_15  and  O_16
REMARK   10  A    between atoms: O_16  and  C_17
REMARK   11  A    between atoms: O_19  and  C_20
REMARK   12  A    between atoms: C_23  and  C_31
REMARK   13  A    between atoms: C_25  and  O_30
REMARK   14  A    between atoms: C_27  and  O_29
REMARK   15  A    between atoms: C_31  and  O_32
REMARK   16  A    between atoms: C_33  and  O_35
REMARK   17  A    between atoms: C_37  and  C_38
REMARK   18  A    between atoms: C_38  and  O_39
REMARK                            x       y       z     vdW  Elec       q    Type
REMARK                         _______ _______ _______ _____ _____    ______ ____
ROOT
ATOM      1  C   LIG A   1      -8.919   1.558 125.571  0.00  0.00    +0.052 C 
ATOM      2  C   LIG A   1      -8.932   0.551 126.775  0.00  0.00    +0.106 C 
ATOM      3  C   LIG A   1      -8.281   1.317 127.977  0.00  0.00    +0.316 C 
ATOM      4  O   LIG A   1      -6.938   1.743 127.680  0.00  0.00    -0.470 OA
ATOM      5  C   LIG A   1      -6.673   2.140 126.393  0.00  0.00    +0.201 C 
ATOM      6  C   LIG A   1      -7.519   2.078 125.349  0.00  0.00    +0.075 C 
ENDROOT
BRANCH   2   7
ATOM      7  C   LIG A   1      -8.276  -0.870 126.674  0.00  0.00    +0.183 C 
ATOM      8  C   LIG A   1      -7.285  -1.352 127.750  0.00  0.00    +0.052 C 
BRANCH   7   9
ATOM      9  O   LIG A   1      -7.790  -1.138 125.335  0.00  0.00    -0.461 OA
BRANCH   9  10
ATOM     10  C   LIG A   1      -8.391  -2.148 124.673  0.00  0.00    +0.304 C 
ATOM     11  C   LIG A   1      -7.461  -3.247 124.284  0.00  0.00    +0.136 C 
ATOM     12  O   LIG A   1      -9.595  -2.197 124.440  0.00  0.00    -0.251 OA
ENDBRANCH   9  10
ENDBRANCH   7   9
ENDBRANCH   2   7
BRANCH   6  13
ATOM     13  C   LIG A   1      -6.936   2.484 124.058  0.00  0.00    +0.338 C 
ATOM     14  O   LIG A   1      -6.725   1.755 123.117  0.00  0.00    -0.245 OA
BRANCH  13  15
ATOM     15  O   LIG A   1      -6.810   3.837 124.056  0.00  0.00    -0.465 OA
ATOM     16  C   LIG A   1      -5.564   4.368 123.594  0.00  0.00    +0.280 C 
ENDBRANCH  13  15
ENDBRANCH   6  13
BRANCH   3  17
ATOM     17  O   LIG A   1      -9.011   2.463 128.434  0.00  0.00    -0.309 OA
BRANCH  17  18
ATOM     18  C   LIG A   1      -8.416   3.251 129.467  0.00  0.00    +0.286 C 
ATOM     19  O   LIG A   1      -8.924   2.749 130.729  0.00  0.00    -0.340 OA
ATOM     20  C   LIG A   1      -8.745   3.680 131.809  0.00  0.00    +0.178 C 
ATOM     21  C   LIG A   1      -9.675   4.899 131.623  0.00  0.00    +0.177 C 
ATOM     22  C   LIG A   1      -9.920   5.170 130.137  0.00  0.00    +0.179 C 
ATOM     23  C   LIG A   1      -8.692   4.770 129.306  0.00  0.00    +0.201 C 
BRANCH  22  24
ATOM     24  O   LIG A   1     -11.088   4.473 129.688  0.00  0.00    -0.386 OA
ATOM     25  H   LIG A   1     -11.064   4.436 128.709  0.00  0.00    +0.210 HD
ENDBRANCH  22  24
BRANCH  21  26
ATOM     26  O   LIG A   1      -9.113   6.070 132.227  0.00  0.00    -0.387 OA
ATOM     27  H   LIG A   1      -8.284   5.774 132.656  0.00  0.00    +0.210 HD
ENDBRANCH  21  26
BRANCH  23  28
ATOM     28  O   LIG A   1      -7.511   5.490 129.696  0.00  0.00    -0.384 OA
ATOM     29  H   LIG A   1      -7.407   6.251 129.093  0.00  0.00    +0.210 HD
ENDBRANCH  23  28
BRANCH  20  30
ATOM     30  C   LIG A   1      -9.068   2.987 133.140  0.00  0.00    +0.190 C 
BRANCH  30  31
ATOM     31  O   LIG A   1      -9.873   3.835 133.958  0.00  0.00    -0.392 OA
ATOM     32  H   LIG A   1     -10.551   3.267 134.367  0.00  0.00    +0.209 HD
ENDBRANCH  30  31
ENDBRANCH  20  30
ENDBRANCH  17  18
ENDBRANCH   3  17
BRANCH   1  33
ATOM     33  C   LIG A   1     -10.039   1.512 124.487  0.00  0.00    +0.129 C 
BRANCH  33  34
ATOM     34  C   LIG A   1     -10.117   1.207 122.999  0.00  0.00    +0.305 C 
ATOM     35  O   LIG A   1     -10.831   0.289 122.593  0.00  0.00    -0.251 OA
BRANCH  34  36
ATOM     36  O   LIG A   1      -9.503   1.982 122.109  0.00  0.00    -0.481 OA
ATOM     37  H   LIG A   1      -8.874   1.488 121.527  0.00  0.00    +0.295 HD
ENDBRANCH  34  36
ENDBRANCH  33  34
ENDBRANCH   1  33
TORSDOF 15
ENDMDL
MODEL 5
REMARK VINA RESULT:      -6.6      2.021      5.004
REMARK  Name = NuBBE_109
REMARK  18 active torsions:
REMARK  status: ('A' for Active; 'I' for Inactive)
REMARK    1  A    between atoms: C_2  and  C_37
REMARK    2  A    between atoms: C_3  and  C_4
REMARK    3  A    between atoms: C_4  and  O_5
REMARK    4  A    between atoms: C_4  and  C_9
REMARK    5  A    between atoms: O_5  and  C_6
REMARK    6  A    between atoms: C_6  and  C_7
REMARK    7  A    between atoms: C_10  and  O_19
REMARK    8  A    between atoms: C_14  and  C_15
REMARK    9  A    between atoms: C_15  and  O_16
REMARK   10  A    between atoms: O_16  and  C_17
REMARK   11  A    between atoms: O_19  and  C_20
REMARK   12  A    between atoms: C_23  and  C_31
REMARK   13  A    between atoms: C_25  and  O_30
REMARK   14  A    between atoms: C_27  and  O_29
REMARK   15  A    between atoms: C_31  and  O_32
REMARK   16  A    between atoms: C_33  and  O_35
REMARK   17  A    between atoms: C_37  and  C_38
REMARK   18  A    between atoms: C_38  and  O_39
REMARK                            x       y       z     vdW  Elec       q    Type
REMARK                         _______ _______ _______ _____ _____    ______ ____
ROOT
ATOM      1  C   LIG A   1      -5.630   4.305 127.219  0.00  0.00    +0.052 C 
ATOM      2  C   LIG A   1      -6.785   3.326 127.633  0.00  0.00    +0.106 C 
ATOM      3  C   LIG A   1      -7.190   3.736 129.090  0.00  0.00    +0.316 C 
ATOM      4  O   LIG A   1      -6.082   3.638 130.004  0.00  0.00    -0.470 OA
ATOM      5  C   LIG A   1      -4.838   3.963 129.524  0.00  0.00    +0.201 C 
ATOM      6  C   LIG A   1      -4.529   4.270 128.251  0.00  0.00    +0.075 C 
ENDROOT
BRANCH   2   7
ATOM      7  C   LIG A   1      -6.607   1.768 127.583  0.00  0.00    +0.183 C 
ATOM      8  C   LIG A   1      -5.646   1.124 126.565  0.00  0.00    +0.052 C 
BRANCH   7   9
ATOM      9  O   LIG A   1      -7.883   1.084 127.627  0.00  0.00    -0.461 OA
BRANCH   9  10
ATOM     10  C   LIG A   1      -8.599   1.083 126.483  0.00  0.00    +0.304 C 
ATOM     11  C   LIG A   1      -8.923  -0.282 125.979  0.00  0.00    +0.136 C 
ATOM     12  O   LIG A   1      -8.991   2.100 125.918  0.00  0.00    -0.251 OA
ENDBRANCH   9  10
ENDBRANCH   7   9
ENDBRANCH   2   7
BRANCH   6  13
ATOM     13  C   LIG A   1      -3.094   4.483 127.999  0.00  0.00    +0.338 C 
ATOM     14  O   LIG A   1      -2.507   5.535 128.096  0.00  0.00    -0.245 OA
BRANCH  13  15
ATOM     15  O   LIG A   1      -2.517   3.272 127.779  0.00  0.00    -0.465 OA
ATOM     16  C   LIG A   1      -1.858   3.090 126.522  0.00  0.00    +0.280 C 
ENDBRANCH  13  15
ENDBRANCH   6  13
BRANCH   3  17
ATOM     17  O   LIG A   1      -7.747   5.051 129.217  0.00  0.00    -0.309 OA
BRANCH  17  18
ATOM     18  C   LIG A   1      -9.158   5.185 129.039  0.00  0.00    +0.286 C 
ATOM     19  O   LIG A   1      -9.391   6.498 128.470  0.00  0.00    -0.340 OA
ATOM     20  C   LIG A   1     -10.754   6.932 128.613  0.00  0.00    +0.178 C 
ATOM     21  C   LIG A   1     -11.064   7.234 130.097  0.00  0.00    +0.177 C 
ATOM     22  C   LIG A   1     -10.225   6.345 131.017  0.00  0.00    +0.179 C 
ATOM     23  C   LIG A   1      -9.957   4.985 130.356  0.00  0.00    +0.201 C 
BRANCH  22  24
ATOM     24  O   LIG A   1      -8.995   6.997 131.357  0.00  0.00    -0.386 OA
ATOM     25  H   LIG A   1      -9.016   7.207 132.313  0.00  0.00    +0.210 HD
ENDBRANCH  22  24
BRANCH  21  26
ATOM     26  O   LIG A   1     -12.452   7.028 130.383  0.00  0.00    -0.387 OA
ATOM     27  H   LIG A   1     -12.610   6.071 130.252  0.00  0.00    +0.210 HD
ENDBRANCH  21  26
BRANCH  23  28
ATOM     28  O   LIG A   1     -11.171   4.279 130.048  0.00  0.00    -0.384 OA
ATOM     29  H   LIG A   1     -11.226   4.180 129.079  0.00  0.00    +0.210 HD
ENDBRANCH  23  28
BRANCH  20  30
ATOM     30  C   LIG A   1     -10.979   8.196 127.774  0.00  0.00    +0.190 C 
BRANCH  30  31
ATOM     31  O   LIG A   1     -11.795   9.125 128.486  0.00  0.00    -0.392 OA
ATOM     32  H   LIG A   1     -11.995   9.852 127.869  0.00  0.00    +0.209 HD
ENDBRANCH  30  31
ENDBRANCH  20  30
ENDBRANCH  17  18
ENDBRANCH   3  17
BRANCH   1  33
ATOM     33  C   LIG A   1      -5.449   4.732 125.730  0.00  0.00    +0.129 C 
BRANCH  33  34
ATOM     34  C   LIG A   1      -6.059   4.340 124.392  0.00  0.00    +0.305 C 
ATOM     35  O   LIG A   1      -5.587   4.785 123.345  0.00  0.00    -0.251 OA
BRANCH  34  36
ATOM     36  O   LIG A   1      -7.035   3.440 124.324  0.00  0.00    -0.481 OA
ATOM     37  H   LIG A   1      -6.720   2.539 124.062  0.00  0.00    +0.295 HD
ENDBRANCH  34  36
ENDBRANCH  33  34
ENDBRANCH   1  33
TORSDOF 15
ENDMDL
MODEL 6
REMARK VINA RESULT:      -6.5      2.321      7.361
REMARK  Name = NuBBE_109
REMARK  18 active torsions:
REMARK  status: ('A' for Active; 'I' for Inactive)
REMARK    1  A    between atoms: C_2  and  C_37
REMARK    2  A    between atoms: C_3  and  C_4
REMARK    3  A    between atoms: C_4  and  O_5
REMARK    4  A    between atoms: C_4  and  C_9
REMARK    5  A    between atoms: O_5  and  C_6
REMARK    6  A    between atoms: C_6  and  C_7
REMARK    7  A    between atoms: C_10  and  O_19
REMARK    8  A    between atoms: C_14  and  C_15
REMARK    9  A    between atoms: C_15  and  O_16
REMARK   10  A    between atoms: O_16  and  C_17
REMARK   11  A    between atoms: O_19  and  C_20
REMARK   12  A    between atoms: C_23  and  C_31
REMARK   13  A    between atoms: C_25  and  O_30
REMARK   14  A    between atoms: C_27  and  O_29
REMARK   15  A    between atoms: C_31  and  O_32
REMARK   16  A    between atoms: C_33  and  O_35
REMARK   17  A    between atoms: C_37  and  C_38
REMARK   18  A    between atoms: C_38  and  O_39
REMARK                            x       y       z     vdW  Elec       q    Type
REMARK                         _______ _______ _______ _____ _____    ______ ____
ROOT
ATOM      1  C   LIG A   1      -8.540   5.372 130.845  0.00  0.00    +0.052 C 
ATOM      2  C   LIG A   1      -8.026   3.896 130.704  0.00  0.00    +0.106 C 
ATOM      3  C   LIG A   1      -8.830   3.277 129.510  0.00  0.00    +0.316 C 
ATOM      4  O   LIG A   1     -10.250   3.305 129.745  0.00  0.00    -0.470 OA
ATOM      5  C   LIG A   1     -10.755   4.388 130.421  0.00  0.00    +0.201 C 
ATOM      6  C   LIG A   1     -10.044   5.384 130.977  0.00  0.00    +0.075 C 
ENDROOT
BRANCH   2   7
ATOM      7  C   LIG A   1      -8.062   2.888 131.907  0.00  0.00    +0.183 C 
ATOM      8  C   LIG A   1      -8.117   3.406 133.357  0.00  0.00    +0.052 C 
BRANCH   7   9
ATOM      9  O   LIG A   1      -7.081   1.834 131.747  0.00  0.00    -0.461 OA
BRANCH   9  10
ATOM     10  C   LIG A   1      -7.514   0.577 131.975  0.00  0.00    +0.304 C 
ATOM     11  C   LIG A   1      -7.894  -0.160 130.735  0.00  0.00    +0.136 C 
ATOM     12  O   LIG A   1      -7.560   0.056 133.085  0.00  0.00    -0.251 OA
ENDBRANCH   9  10
ENDBRANCH   7   9
ENDBRANCH   2   7
BRANCH   6  13
ATOM     13  C   LIG A   1     -10.843   6.370 131.726  0.00  0.00    +0.338 C 
ATOM     14  O   LIG A   1     -10.678   6.683 132.881  0.00  0.00    -0.245 OA
BRANCH  13  15
ATOM     15  O   LIG A   1     -11.702   6.967 130.858  0.00  0.00    -0.465 OA
ATOM     16  C   LIG A   1     -12.902   7.516 131.413  0.00  0.00    +0.280 C 
ENDBRANCH  13  15
ENDBRANCH   6  13
BRANCH   3  17
ATOM     17  O   LIG A   1      -8.586   3.885 128.235  0.00  0.00    -0.309 OA
BRANCH  17  18
ATOM     18  C   LIG A   1      -7.416   3.472 127.525  0.00  0.00    +0.286 C 
ATOM     19  O   LIG A   1      -6.425   4.516 127.698  0.00  0.00    -0.340 OA
ATOM     20  C   LIG A   1      -5.366   4.443 126.729  0.00  0.00    +0.178 C 
ATOM     21  C   LIG A   1      -5.899   4.822 125.328  0.00  0.00    +0.177 C 
ATOM     22  C   LIG A   1      -7.374   4.438 125.189  0.00  0.00    +0.179 C 
ATOM     23  C   LIG A   1      -7.686   3.187 126.023  0.00  0.00    +0.201 C 
BRANCH  22  24
ATOM     24  O   LIG A   1      -8.213   5.532 125.575  0.00  0.00    -0.386 OA
ATOM     25  H   LIG A   1      -7.689   6.356 125.510  0.00  0.00    +0.210 HD
ENDBRANCH  22  24
BRANCH  21  26
ATOM     26  O   LIG A   1      -5.144   4.170 124.300  0.00  0.00    -0.387 OA
ATOM     27  H   LIG A   1      -4.902   3.294 124.664  0.00  0.00    +0.210 HD
ENDBRANCH  21  26
BRANCH  23  28
ATOM     28  O   LIG A   1      -6.897   2.054 125.626  0.00  0.00    -0.384 OA
ATOM     29  H   LIG A   1      -6.269   1.854 126.347  0.00  0.00    +0.210 HD
ENDBRANCH  23  28
BRANCH  20  30
ATOM     30  C   LIG A   1      -4.241   5.407 127.127  0.00  0.00    +0.190 C 
BRANCH  30  31
ATOM     31  O   LIG A   1      -4.471   5.923 128.438  0.00  0.00    -0.392 OA
ATOM     32  H   LIG A   1      -4.416   5.166 129.050  0.00  0.00    +0.209 HD
ENDBRANCH  30  31
ENDBRANCH  20  30
ENDBRANCH  17  18
ENDBRANCH   3  17
BRANCH   1  33
ATOM     33  C   LIG A   1      -7.587   6.498 131.351  0.00  0.00    +0.129 C 
BRANCH  33  34
ATOM     34  C   LIG A   1      -6.169   6.956 131.048  0.00  0.00    +0.305 C 
ATOM     35  O   LIG A   1      -5.209   6.356 131.535  0.00  0.00    -0.251 OA
BRANCH  34  36
ATOM     36  O   LIG A   1      -5.937   7.936 130.178  0.00  0.00    -0.481 OA
ATOM     37  H   LIG A   1      -4.976   8.140 130.064  0.00  0.00    +0.295 HD
ENDBRANCH  34  36
ENDBRANCH  33  34
ENDBRANCH   1  33
TORSDOF 15
ENDMDL
MODEL 7
REMARK VINA RESULT:      -6.5      2.173      4.130
REMARK  Name = NuBBE_109
REMARK  18 active torsions:
REMARK  status: ('A' for Active; 'I' for Inactive)
REMARK    1  A    between atoms: C_2  and  C_37
REMARK    2  A    between atoms: C_3  and  C_4
REMARK    3  A    between atoms: C_4  and  O_5
REMARK    4  A    between atoms: C_4  and  C_9
REMARK    5  A    between atoms: O_5  and  C_6
REMARK    6  A    between atoms: C_6  and  C_7
REMARK    7  A    between atoms: C_10  and  O_19
REMARK    8  A    between atoms: C_14  and  C_15
REMARK    9  A    between atoms: C_15  and  O_16
REMARK   10  A    between atoms: O_16  and  C_17
REMARK   11  A    between atoms: O_19  and  C_20
REMARK   12  A    between atoms: C_23  and  C_31
REMARK   13  A    between atoms: C_25  and  O_30
REMARK   14  A    between atoms: C_27  and  O_29
REMARK   15  A    between atoms: C_31  and  O_32
REMARK   16  A    between atoms: C_33  and  O_35
REMARK   17  A    between atoms: C_37  and  C_38
REMARK   18  A    between atoms: C_38  and  O_39
REMARK                            x       y       z     vdW  Elec       q    Type
REMARK                         _______ _______ _______ _____ _____    ______ ____
ROOT
ATOM      1  C   LIG A   1      -7.831   2.120 126.608  0.00  0.00    +0.052 C 
ATOM      2  C   LIG A   1      -8.382   1.289 127.820  0.00  0.00    +0.106 C 
ATOM      3  C   LIG A   1      -8.325   2.250 129.056  0.00  0.00    +0.316 C 
ATOM      4  O   LIG A   1      -6.987   2.712 129.318  0.00  0.00    -0.470 OA
ATOM      5  C   LIG A   1      -6.178   2.945 128.234  0.00  0.00    +0.201 C 
ATOM      6  C   LIG A   1      -6.475   2.690 126.947  0.00  0.00    +0.075 C 
ENDROOT
BRANCH   2   7
ATOM      7  C   LIG A   1      -7.757  -0.091 128.229  0.00  0.00    +0.183 C 
ATOM      8  C   LIG A   1      -7.889  -1.314 127.302  0.00  0.00    +0.052 C 
BRANCH   7   9
ATOM      9  O   LIG A   1      -8.059  -0.424 129.607  0.00  0.00    -0.461 OA
BRANCH   9  10
ATOM     10  C   LIG A   1      -7.067  -1.012 130.309  0.00  0.00    +0.304 C 
ATOM     11  C   LIG A   1      -7.442  -2.339 130.879  0.00  0.00    +0.136 C 
ATOM     12  O   LIG A   1      -5.944  -0.536 130.442  0.00  0.00    -0.251 OA
ENDBRANCH   9  10
ENDBRANCH   7   9
ENDBRANCH   2   7
BRANCH   6  13
ATOM     13  C   LIG A   1      -5.379   2.951 125.997  0.00  0.00    +0.338 C 
ATOM     14  O   LIG A   1      -5.415   3.726 125.072  0.00  0.00    -0.245 OA
BRANCH  13  15
ATOM     15  O   LIG A   1      -4.278   2.279 126.425  0.00  0.00    -0.465 OA
ATOM     16  C   LIG A   1      -3.052   3.017 126.480  0.00  0.00    +0.280 C 
ENDBRANCH  13  15
ENDBRANCH   6  13
BRANCH   3  17
ATOM     17  O   LIG A   1      -9.176   3.400 128.970  0.00  0.00    -0.309 OA
BRANCH  17  18
ATOM     18  C   LIG A   1      -9.927   3.749 130.135  0.00  0.00    +0.286 C 
ATOM     19  O   LIG A   1     -10.758   4.883 129.780  0.00  0.00    -0.340 OA
ATOM     20  C   LIG A   1     -11.251   5.591 130.930  0.00  0.00    +0.178 C 
ATOM     21  C   LIG A   1     -10.094   6.330 131.638  0.00  0.00    +0.177 C 
ATOM     22  C   LIG A   1      -8.776   5.574 131.454  0.00  0.00    +0.179 C 
ATOM     23  C   LIG A   1      -9.030   4.062 131.364  0.00  0.00    +0.201 C 
BRANCH  22  24
ATOM     24  O   LIG A   1      -8.088   6.046 130.289  0.00  0.00    -0.386 OA
ATOM     25  H   LIG A   1      -8.298   6.996 130.175  0.00  0.00    +0.210 HD
ENDBRANCH  22  24
BRANCH  21  26
ATOM     26  O   LIG A   1     -10.359   6.476 133.038  0.00  0.00    -0.387 OA
ATOM     27  H   LIG A   1     -10.000   7.353 133.285  0.00  0.00    +0.210 HD
ENDBRANCH  21  26
BRANCH  23  28
ATOM     28  O   LIG A   1      -9.673   3.545 132.540  0.00  0.00    -0.384 OA
ATOM     29  H   LIG A   1      -9.817   2.588 132.410  0.00  0.00    +0.210 HD
ENDBRANCH  23  28
BRANCH  20  30
ATOM     30  C   LIG A   1     -12.313   6.606 130.487  0.00  0.00    +0.190 C 
BRANCH  30  31
ATOM     31  O   LIG A   1     -13.009   7.121 131.621  0.00  0.00    -0.392 OA
ATOM     32  H   LIG A   1     -12.415   7.769 132.043  0.00  0.00    +0.209 HD
ENDBRANCH  30  31
ENDBRANCH  20  30
ENDBRANCH  17  18
ENDBRANCH   3  17
BRANCH   1  33
ATOM     33  C   LIG A   1      -8.357   1.859 125.163  0.00  0.00    +0.129 C 
BRANCH  33  34
ATOM     34  C   LIG A   1      -8.567   2.686 123.904  0.00  0.00    +0.305 C 
ATOM     35  O   LIG A   1      -9.205   2.221 122.959  0.00  0.00    -0.251 OA
BRANCH  34  36
ATOM     36  O   LIG A   1      -8.160   3.951 123.841  0.00  0.00    -0.481 OA
ATOM     37  H   LIG A   1      -7.390   4.145 124.432  0.00  0.00    +0.295 HD
ENDBRANCH  34  36
ENDBRANCH  33  34
ENDBRANCH   1  33
TORSDOF 15
ENDMDL
MODEL 8
REMARK VINA RESULT:      -6.5      2.024      3.486
REMARK  Name = NuBBE_109
REMARK  18 active torsions:
REMARK  status: ('A' for Active; 'I' for Inactive)
REMARK    1  A    between atoms: C_2  and  C_37
REMARK    2  A    between atoms: C_3  and  C_4
REMARK    3  A    between atoms: C_4  and  O_5
REMARK    4  A    between atoms: C_4  and  C_9
REMARK    5  A    between atoms: O_5  and  C_6
REMARK    6  A    between atoms: C_6  and  C_7
REMARK    7  A    between atoms: C_10  and  O_19
REMARK    8  A    between atoms: C_14  and  C_15
REMARK    9  A    between atoms: C_15  and  O_16
REMARK   10  A    between atoms: O_16  and  C_17
REMARK   11  A    between atoms: O_19  and  C_20
REMARK   12  A    between atoms: C_23  and  C_31
REMARK   13  A    between atoms: C_25  and  O_30
REMARK   14  A    between atoms: C_27  and  O_29
REMARK   15  A    between atoms: C_31  and  O_32
REMARK   16  A    between atoms: C_33  and  O_35
REMARK   17  A    between atoms: C_37  and  C_38
REMARK   18  A    between atoms: C_38  and  O_39
REMARK                            x       y       z     vdW  Elec       q    Type
REMARK                         _______ _______ _______ _____ _____    ______ ____
ROOT
ATOM      1  C   LIG A   1      -8.518   1.212 127.081  0.00  0.00    +0.052 C 
ATOM      2  C   LIG A   1      -8.403   0.979 128.629  0.00  0.00    +0.106 C 
ATOM      3  C   LIG A   1      -8.363   2.407 129.272  0.00  0.00    +0.316 C 
ATOM      4  O   LIG A   1      -7.252   3.185 128.787  0.00  0.00    -0.470 OA
ATOM      5  C   LIG A   1      -6.892   3.017 127.474  0.00  0.00    +0.201 C 
ATOM      6  C   LIG A   1      -7.409   2.122 126.613  0.00  0.00    +0.075 C 
ENDROOT
BRANCH   2   7
ATOM      7  C   LIG A   1      -7.251   0.116 129.253  0.00  0.00    +0.183 C 
ATOM      8  C   LIG A   1      -6.568   0.556 130.562  0.00  0.00    +0.052 C 
BRANCH   7   9
ATOM      9  O   LIG A   1      -6.286  -0.288 128.251  0.00  0.00    -0.461 OA
BRANCH   9  10
ATOM     10  C   LIG A   1      -6.335  -1.579 127.861  0.00  0.00    +0.304 C 
ATOM     11  C   LIG A   1      -7.206  -2.431 128.722  0.00  0.00    +0.136 C 
ATOM     12  O   LIG A   1      -5.760  -2.021 126.872  0.00  0.00    -0.251 OA
ENDBRANCH   9  10
ENDBRANCH   7   9
ENDBRANCH   2   7
BRANCH   6  13
ATOM     13  C   LIG A   1      -6.764   2.098 125.288  0.00  0.00    +0.338 C 
ATOM     14  O   LIG A   1      -6.078   1.204 124.851  0.00  0.00    -0.245 OA
BRANCH  13  15
ATOM     15  O   LIG A   1      -7.190   3.183 124.589  0.00  0.00    -0.465 OA
ATOM     16  C   LIG A   1      -8.371   3.018 123.797  0.00  0.00    +0.280 C 
ENDBRANCH  13  15
ENDBRANCH   6  13
BRANCH   3  17
ATOM     17  O   LIG A   1      -9.553   3.186 129.096  0.00  0.00    -0.309 OA
BRANCH  17  18
ATOM     18  C   LIG A   1     -10.208   3.659 130.274  0.00  0.00    +0.286 C 
ATOM     19  O   LIG A   1     -10.965   4.836 129.895  0.00  0.00    -0.340 OA
ATOM     20  C   LIG A   1     -11.336   5.645 131.023  0.00  0.00    +0.178 C 
ATOM     21  C   LIG A   1     -10.087   6.325 131.627  0.00  0.00    +0.177 C 
ATOM     22  C   LIG A   1      -8.845   5.454 131.421  0.00  0.00    +0.179 C 
ATOM     23  C   LIG A   1      -9.222   3.966 131.435  0.00  0.00    +0.201 C 
BRANCH  22  24
ATOM     24  O   LIG A   1      -8.188   5.803 130.197  0.00  0.00    -0.386 OA
ATOM     25  H   LIG A   1      -7.681   5.023 129.890  0.00  0.00    +0.210 HD
ENDBRANCH  22  24
BRANCH  21  26
ATOM     26  O   LIG A   1     -10.262   6.570 133.027  0.00  0.00    -0.387 OA
ATOM     27  H   LIG A   1     -10.395   5.690 133.435  0.00  0.00    +0.210 HD
ENDBRANCH  21  26
BRANCH  23  28
ATOM     28  O   LIG A   1      -9.838   3.569 132.671  0.00  0.00    -0.384 OA
ATOM     29  H   LIG A   1      -9.151   3.567 133.365  0.00  0.00    +0.210 HD
ENDBRANCH  23  28
BRANCH  20  30
ATOM     30  C   LIG A   1     -12.338   6.718 130.576  0.00  0.00    +0.190 C 
BRANCH  30  31
ATOM     31  O   LIG A   1     -13.097   7.183 131.691  0.00  0.00    -0.392 OA
ATOM     32  H   LIG A   1     -13.206   8.145 131.573  0.00  0.00    +0.209 HD
ENDBRANCH  30  31
ENDBRANCH  20  30
ENDBRANCH  17  18
ENDBRANCH   3  17
BRANCH   1  33
ATOM     33  C   LIG A   1      -9.280   0.192 126.180  0.00  0.00    +0.129 C 
BRANCH  33  34
ATOM     34  C   LIG A   1      -8.956  -1.131 125.502  0.00  0.00    +0.305 C 
ATOM     35  O   LIG A   1      -9.728  -2.085 125.610  0.00  0.00    -0.251 OA
BRANCH  34  36
ATOM     36  O   LIG A   1      -7.898  -1.250 124.705  0.00  0.00    -0.481 OA
ATOM     37  H   LIG A   1      -7.445  -2.126 124.783  0.00  0.00    +0.295 HD
ENDBRANCH  34  36
ENDBRANCH  33  34
ENDBRANCH   1  33
TORSDOF 15
ENDMDL
MODEL 9
REMARK VINA RESULT:      -6.3      3.163      5.625
REMARK  Name = NuBBE_109
REMARK  18 active torsions:
REMARK  status: ('A' for Active; 'I' for Inactive)
REMARK    1  A    between atoms: C_2  and  C_37
REMARK    2  A    between atoms: C_3  and  C_4
REMARK    3  A    between atoms: C_4  and  O_5
REMARK    4  A    between atoms: C_4  and  C_9
REMARK    5  A    between atoms: O_5  and  C_6
REMARK    6  A    between atoms: C_6  and  C_7
REMARK    7  A    between atoms: C_10  and  O_19
REMARK    8  A    between atoms: C_14  and  C_15
REMARK    9  A    between atoms: C_15  and  O_16
REMARK   10  A    between atoms: O_16  and  C_17
REMARK   11  A    between atoms: O_19  and  C_20
REMARK   12  A    between atoms: C_23  and  C_31
REMARK   13  A    between atoms: C_25  and  O_30
REMARK   14  A    between atoms: C_27  and  O_29
REMARK   15  A    between atoms: C_31  and  O_32
REMARK   16  A    between atoms: C_33  and  O_35
REMARK   17  A    between atoms: C_37  and  C_38
REMARK   18  A    between atoms: C_38  and  O_39
REMARK                            x       y       z     vdW  Elec       q    Type
REMARK                         _______ _______ _______ _____ _____    ______ ____
ROOT
ATOM      1  C   LIG A   1      -8.209   2.365 130.313  0.00  0.00    +0.052 C 
ATOM      2  C   LIG A   1      -9.047   2.901 131.527  0.00  0.00    +0.106 C 
ATOM      3  C   LIG A   1      -9.476   4.357 131.138  0.00  0.00    +0.316 C 
ATOM      4  O   LIG A   1      -8.339   5.204 130.886  0.00  0.00    -0.470 OA
ATOM      5  C   LIG A   1      -7.248   4.631 130.284  0.00  0.00    +0.201 C 
ATOM      6  C   LIG A   1      -7.090   3.327 129.994  0.00  0.00    +0.075 C 
ENDROOT
BRANCH   2   7
ATOM      7  C   LIG A   1      -8.469   2.923 132.986  0.00  0.00    +0.183 C 
ATOM      8  C   LIG A   1      -9.025   3.910 134.031  0.00  0.00    +0.052 C 
BRANCH   7   9
ATOM      9  O   LIG A   1      -7.020   2.898 132.986  0.00  0.00    -0.461 OA
BRANCH   9  10
ATOM     10  C   LIG A   1      -6.443   1.785 133.486  0.00  0.00    +0.304 C 
ATOM     11  C   LIG A   1      -4.960   1.880 133.604  0.00  0.00    +0.136 C 
ATOM     12  O   LIG A   1      -7.067   0.794 133.853  0.00  0.00    -0.251 OA
ENDBRANCH   9  10
ENDBRANCH   7   9
ENDBRANCH   2   7
BRANCH   6  13
ATOM     13  C   LIG A   1      -5.773   2.974 129.435  0.00  0.00    +0.338 C 
ATOM     14  O   LIG A   1      -4.841   2.519 130.054  0.00  0.00    -0.245 OA
BRANCH  13  15
ATOM     15  O   LIG A   1      -5.834   3.114 128.084  0.00  0.00    -0.465 OA
ATOM     16  C   LIG A   1      -5.702   1.921 127.305  0.00  0.00    +0.280 C 
ENDBRANCH  13  15
ENDBRANCH   6  13
BRANCH   3  17
ATOM     17  O   LIG A   1     -10.351   4.450 130.007  0.00  0.00    -0.309 OA
BRANCH  17  18
ATOM     18  C   LIG A   1     -11.496   5.295 130.131  0.00  0.00    +0.286 C 
ATOM     19  O   LIG A   1     -11.845   5.735 128.794  0.00  0.00    -0.340 OA
ATOM     20  C   LIG A   1     -12.701   6.890 128.796  0.00  0.00    +0.178 C 
ATOM     21  C   LIG A   1     -11.920   8.132 129.281  0.00  0.00    +0.177 C 
ATOM     22  C   LIG A   1     -10.828   7.729 130.275  0.00  0.00    +0.179 C 
ATOM     23  C   LIG A   1     -11.262   6.499 131.084  0.00  0.00    +0.201 C 
BRANCH  22  24
ATOM     24  O   LIG A   1      -9.595   7.480 129.589  0.00  0.00    -0.386 OA
ATOM     25  H   LIG A   1      -9.031   6.926 130.167  0.00  0.00    +0.210 HD
ENDBRANCH  22  24
BRANCH  21  26
ATOM     26  O   LIG A   1     -12.796   9.078 129.904  0.00  0.00    -0.387 OA
ATOM     27  H   LIG A   1     -13.372   9.416 129.188  0.00  0.00    +0.210 HD
ENDBRANCH  21  26
BRANCH  23  28
ATOM     28  O   LIG A   1     -12.470   6.731 131.827  0.00  0.00    -0.384 OA
ATOM     29  H   LIG A   1     -13.028   7.345 131.313  0.00  0.00    +0.210 HD
ENDBRANCH  23  28
BRANCH  20  30
ATOM     30  C   LIG A   1     -13.227   7.137 127.376  0.00  0.00    +0.190 C 
BRANCH  30  31
ATOM     31  O   LIG A   1     -12.333   6.581 126.412  0.00  0.00    -0.392 OA
ATOM     32  H   LIG A   1     -11.882   5.836 126.847  0.00  0.00    +0.209 HD
ENDBRANCH  30  31
ENDBRANCH  20  30
ENDBRANCH  17  18
ENDBRANCH   3  17
BRANCH   1  33
ATOM     33  C   LIG A   1      -8.215   0.847 129.954  0.00  0.00    +0.129 C 
BRANCH  33  34
ATOM     34  C   LIG A   1      -8.268  -0.463 130.725  0.00  0.00    +0.305 C 
ATOM     35  O   LIG A   1      -7.809  -1.492 130.225  0.00  0.00    -0.251 OA
BRANCH  34  36
ATOM     36  O   LIG A   1      -8.710  -0.503 131.979  0.00  0.00    -0.481 OA
ATOM     37  H   LIG A   1      -8.428   0.277 132.518  0.00  0.00    +0.295 HD
ENDBRANCH  34  36
ENDBRANCH  33  34
ENDBRANCH   1  33
TORSDOF 15
ENDMDL
