MODEL 1
REMARK VINA RESULT:      -7.2      0.000      0.000
REMARK  Name = NuBBE_1436
REMARK  2 active torsions:
REMARK  status: ('A' for Active; 'I' for Inactive)
REMARK    1  A    between atoms: C_1  and  O_2
REMARK    2  A    between atoms: O_2  and  C_3
REMARK                            x       y       z     vdW  Elec       q    Type
REMARK                         _______ _______ _______ _____ _____    ______ ____
ROOT
ATOM      1  C   LIG A   1      -9.065   5.888 132.355  0.00  0.00    +0.142 A 
ATOM      2  C   LIG A   1      -7.737   6.188 132.020  0.00  0.00    +0.082 A 
ATOM      3  C   LIG A   1      -7.538   6.953 130.877  0.00  0.00    +0.231 A 
ATOM      4  O   LIG A   1      -6.204   7.147 130.681  0.00  0.00    -0.445 OA
ATOM      5  C   LIG A   1      -5.551   6.525 131.696  0.00  0.00    +0.198 A 
ATOM      6  C   LIG A   1      -6.447   5.921 132.548  0.00  0.00    +0.055 A 
ATOM      7  N   LIG A   1      -8.477   7.448 130.061  0.00  0.00    -0.208 NA
ATOM      8  C   LIG A   1      -9.744   7.186 130.428  0.00  0.00    +0.124 A 
ATOM      9  C   LIG A   1     -10.107   6.422 131.568  0.00  0.00    +0.047 A 
ATOM     10  C   LIG A   1     -11.479   6.214 131.882  0.00  0.00    +0.017 A 
ATOM     11  C   LIG A   1     -12.496   6.737 131.085  0.00  0.00    +0.050 A 
ATOM     12  C   LIG A   1     -12.118   7.462 129.983  0.00  0.00    +0.168 A 
ATOM     13  C   LIG A   1     -10.794   7.678 129.670  0.00  0.00    +0.192 A 
ATOM     14  O   LIG A   1     -10.669   8.431 128.532  0.00  0.00    -0.450 OA
ATOM     15  C   LIG A   1     -12.045   8.658 128.184  0.00  0.00    +0.466 C 
ATOM     16  O   LIG A   1     -12.973   8.042 129.098  0.00  0.00    -0.453 OA
ENDROOT
BRANCH   1  18
ATOM     17  C   LIG A   1      -9.118   3.767 133.243  0.00  0.00    +0.277 C 
ATOM     18  O   LIG A   1      -9.356   5.154 133.487  0.00  0.00    -0.494 OA
ENDBRANCH   1  18
TORSDOF 1
ENDMDL
MODEL 2
REMARK VINA RESULT:      -6.9      1.749      5.168
REMARK  Name = NuBBE_1436
REMARK  2 active torsions:
REMARK  status: ('A' for Active; 'I' for Inactive)
REMARK    1  A    between atoms: C_1  and  O_2
REMARK    2  A    between atoms: O_2  and  C_3
REMARK                            x       y       z     vdW  Elec       q    Type
REMARK                         _______ _______ _______ _____ _____    ______ ____
ROOT
ATOM      1  C   LIG A   1     -11.860   6.699 130.525  0.00  0.00    +0.142 A 
ATOM      2  C   LIG A   1     -12.097   6.816 129.148  0.00  0.00    +0.082 A 
ATOM      3  C   LIG A   1     -11.007   6.629 128.308  0.00  0.00    +0.231 A 
ATOM      4  O   LIG A   1     -11.393   6.787 127.011  0.00  0.00    -0.445 OA
ATOM      5  C   LIG A   1     -12.724   7.060 127.016  0.00  0.00    +0.198 A 
ATOM      6  C   LIG A   1     -13.205   7.089 128.304  0.00  0.00    +0.055 A 
ATOM      7  N   LIG A   1      -9.750   6.334 128.665  0.00  0.00    -0.208 NA
ATOM      8  C   LIG A   1      -9.557   6.181 129.988  0.00  0.00    +0.124 A 
ATOM      9  C   LIG A   1     -10.571   6.339 130.969  0.00  0.00    +0.047 A 
ATOM     10  C   LIG A   1     -10.270   6.138 132.346  0.00  0.00    +0.017 A 
ATOM     11  C   LIG A   1      -8.987   5.797 132.768  0.00  0.00    +0.050 A 
ATOM     12  C   LIG A   1      -8.023   5.662 131.801  0.00  0.00    +0.168 A 
ATOM     13  C   LIG A   1      -8.301   5.846 130.463  0.00  0.00    +0.192 A 
ATOM     14  O   LIG A   1      -7.184   5.652 129.693  0.00  0.00    -0.450 OA
ATOM     15  C   LIG A   1      -6.200   5.327 130.689  0.00  0.00    +0.466 C 
ATOM     16  O   LIG A   1      -6.723   5.335 132.032  0.00  0.00    -0.453 OA
ENDROOT
BRANCH   1  18
ATOM     17  C   LIG A   1     -13.094   8.231 131.716  0.00  0.00    +0.277 C 
ATOM     18  O   LIG A   1     -12.891   6.846 131.431  0.00  0.00    -0.494 OA
ENDBRANCH   1  18
TORSDOF 1
ENDMDL
MODEL 3
REMARK VINA RESULT:      -6.8      9.151     10.224
REMARK  Name = NuBBE_1436
REMARK  2 active torsions:
REMARK  status: ('A' for Active; 'I' for Inactive)
REMARK    1  A    between atoms: C_1  and  O_2
REMARK    2  A    between atoms: O_2  and  C_3
REMARK                            x       y       z     vdW  Elec       q    Type
REMARK                         _______ _______ _______ _____ _____    ______ ____
ROOT
ATOM      1  C   LIG A   1      -6.762   3.036 124.092  0.00  0.00    +0.142 A 
ATOM      2  C   LIG A   1      -8.006   2.397 124.193  0.00  0.00    +0.082 A 
ATOM      3  C   LIG A   1      -8.813   2.417 123.062  0.00  0.00    +0.231 A 
ATOM      4  O   LIG A   1      -9.984   1.770 123.321  0.00  0.00    -0.445 OA
ATOM      5  C   LIG A   1      -9.925   1.326 124.603  0.00  0.00    +0.198 A 
ATOM      6  C   LIG A   1      -8.730   1.683 125.183  0.00  0.00    +0.055 A 
ATOM      7  N   LIG A   1      -8.530   2.971 121.876  0.00  0.00    -0.208 NA
ATOM      8  C   LIG A   1      -7.314   3.538 121.789  0.00  0.00    +0.124 A 
ATOM      9  C   LIG A   1      -6.379   3.595 122.855  0.00  0.00    +0.047 A 
ATOM     10  C   LIG A   1      -5.107   4.204 122.659  0.00  0.00    +0.017 A 
ATOM     11  C   LIG A   1      -4.749   4.764 121.434  0.00  0.00    +0.050 A 
ATOM     12  C   LIG A   1      -5.676   4.705 120.423  0.00  0.00    +0.168 A 
ATOM     13  C   LIG A   1      -6.908   4.113 120.596  0.00  0.00    +0.192 A 
ATOM     14  O   LIG A   1      -7.654   4.173 119.447  0.00  0.00    -0.450 OA
ATOM     15  C   LIG A   1      -6.755   4.854 118.556  0.00  0.00    +0.466 C 
ATOM     16  O   LIG A   1      -5.497   5.199 119.169  0.00  0.00    -0.453 OA
ENDROOT
BRANCH   1  18
ATOM     17  C   LIG A   1      -6.222   4.105 126.056  0.00  0.00    +0.277 C 
ATOM     18  O   LIG A   1      -5.887   3.044 125.159  0.00  0.00    -0.494 OA
ENDBRANCH   1  18
TORSDOF 1
ENDMDL
MODEL 4
REMARK VINA RESULT:      -6.7      1.253      1.551
REMARK  Name = NuBBE_1436
REMARK  2 active torsions:
REMARK  status: ('A' for Active; 'I' for Inactive)
REMARK    1  A    between atoms: C_1  and  O_2
REMARK    2  A    between atoms: O_2  and  C_3
REMARK                            x       y       z     vdW  Elec       q    Type
REMARK                         _______ _______ _______ _____ _____    ______ ____
ROOT
ATOM      1  C   LIG A   1      -7.615   5.667 132.784  0.00  0.00    +0.142 A 
ATOM      2  C   LIG A   1      -6.337   6.097 132.399  0.00  0.00    +0.082 A 
ATOM      3  C   LIG A   1      -6.261   6.888 131.260  0.00  0.00    +0.231 A 
ATOM      4  O   LIG A   1      -4.960   7.212 131.011  0.00  0.00    -0.445 OA
ATOM      5  C   LIG A   1      -4.209   6.645 131.990  0.00  0.00    +0.198 A 
ATOM      6  C   LIG A   1      -5.006   5.950 132.870  0.00  0.00    +0.055 A 
ATOM      7  N   LIG A   1      -7.276   7.300 130.490  0.00  0.00    -0.208 NA
ATOM      8  C   LIG A   1      -8.496   6.913 130.904  0.00  0.00    +0.124 A 
ATOM      9  C   LIG A   1      -8.735   6.107 132.048  0.00  0.00    +0.047 A 
ATOM     10  C   LIG A   1     -10.067   5.765 132.415  0.00  0.00    +0.017 A 
ATOM     11  C   LIG A   1     -11.162   6.195 131.668  0.00  0.00    +0.050 A 
ATOM     12  C   LIG A   1     -10.902   6.965 130.561  0.00  0.00    +0.168 A 
ATOM     13  C   LIG A   1      -9.619   7.310 130.197  0.00  0.00    +0.192 A 
ATOM     14  O   LIG A   1      -9.614   8.083 129.065  0.00  0.00    -0.450 OA
ATOM     15  C   LIG A   1     -11.019   8.179 128.777  0.00  0.00    +0.466 C 
ATOM     16  O   LIG A   1     -11.845   7.468 129.720  0.00  0.00    -0.453 OA
ENDROOT
BRANCH   1  18
ATOM     17  C   LIG A   1      -7.780   5.732 135.077  0.00  0.00    +0.277 C 
ATOM     18  O   LIG A   1      -7.787   4.898 133.917  0.00  0.00    -0.494 OA
ENDBRANCH   1  18
TORSDOF 1
ENDMDL
MODEL 5
REMARK VINA RESULT:      -6.5      1.671      1.672
REMARK  Name = NuBBE_1436
REMARK  2 active torsions:
REMARK  status: ('A' for Active; 'I' for Inactive)
REMARK    1  A    between atoms: C_1  and  O_2
REMARK    2  A    between atoms: O_2  and  C_3
REMARK                            x       y       z     vdW  Elec       q    Type
REMARK                         _______ _______ _______ _____ _____    ______ ____
ROOT
ATOM      1  C   LIG A   1      -9.115   5.534 131.722  0.00  0.00    +0.142 A 
ATOM      2  C   LIG A   1      -8.037   5.130 130.922  0.00  0.00    +0.082 A 
ATOM      3  C   LIG A   1      -8.220   5.197 129.546  0.00  0.00    +0.231 A 
ATOM      4  O   LIG A   1      -7.095   4.763 128.911  0.00  0.00    -0.445 OA
ATOM      5  C   LIG A   1      -6.192   4.433 129.870  0.00  0.00    +0.198 A 
ATOM      6  C   LIG A   1      -6.720   4.641 131.123  0.00  0.00    +0.055 A 
ATOM      7  N   LIG A   1      -9.312   5.618 128.894  0.00  0.00    -0.208 NA
ATOM      8  C   LIG A   1     -10.316   6.043 129.682  0.00  0.00    +0.124 A 
ATOM      9  C   LIG A   1     -10.277   6.037 131.101  0.00  0.00    +0.047 A 
ATOM     10  C   LIG A   1     -11.387   6.525 131.848  0.00  0.00    +0.017 A 
ATOM     11  C   LIG A   1     -12.533   7.005 131.218  0.00  0.00    +0.050 A 
ATOM     12  C   LIG A   1     -12.549   6.989 129.846  0.00  0.00    +0.168 A 
ATOM     13  C   LIG A   1     -11.479   6.527 129.110  0.00  0.00    +0.192 A 
ATOM     14  O   LIG A   1     -11.728   6.615 127.764  0.00  0.00    -0.450 OA
ATOM     15  C   LIG A   1     -13.049   7.180 127.752  0.00  0.00    +0.466 C 
ATOM     16  O   LIG A   1     -13.580   7.417 129.070  0.00  0.00    -0.453 OA
ENDROOT
BRANCH   1  18
ATOM     17  C   LIG A   1      -9.187   4.193 133.589  0.00  0.00    +0.277 C 
ATOM     18  O   LIG A   1      -9.012   5.523 133.098  0.00  0.00    -0.494 OA
ENDBRANCH   1  18
TORSDOF 1
ENDMDL
MODEL 6
REMARK VINA RESULT:      -6.4      1.534      5.272
REMARK  Name = NuBBE_1436
REMARK  2 active torsions:
REMARK  status: ('A' for Active; 'I' for Inactive)
REMARK    1  A    between atoms: C_1  and  O_2
REMARK    2  A    between atoms: O_2  and  C_3
REMARK                            x       y       z     vdW  Elec       q    Type
REMARK                         _______ _______ _______ _____ _____    ______ ____
ROOT
ATOM      1  C   LIG A   1      -8.304   5.843 132.907  0.00  0.00    +0.142 A 
ATOM      2  C   LIG A   1      -9.352   6.231 132.061  0.00  0.00    +0.082 A 
ATOM      3  C   LIG A   1      -9.001   6.914 130.903  0.00  0.00    +0.231 A 
ATOM      4  O   LIG A   1     -10.124   7.231 130.198  0.00  0.00    -0.445 OA
ATOM      5  C   LIG A   1     -11.186   6.744 130.890  0.00  0.00    +0.198 A 
ATOM      6  C   LIG A   1     -10.767   6.120 132.042  0.00  0.00    +0.055 A 
ATOM      7  N   LIG A   1      -7.767   7.234 130.495  0.00  0.00    -0.208 NA
ATOM      8  C   LIG A   1      -6.775   6.812 131.299  0.00  0.00    +0.124 A 
ATOM      9  C   LIG A   1      -6.975   6.102 132.512  0.00  0.00    +0.047 A 
ATOM     10  C   LIG A   1      -5.857   5.682 133.287  0.00  0.00    +0.017 A 
ATOM     11  C   LIG A   1      -4.550   5.960 132.890  0.00  0.00    +0.050 A 
ATOM     12  C   LIG A   1      -4.385   6.656 131.718  0.00  0.00    +0.168 A 
ATOM     13  C   LIG A   1      -5.458   7.063 130.955  0.00  0.00    +0.192 A 
ATOM     14  O   LIG A   1      -5.043   7.734 129.834  0.00  0.00    -0.450 OA
ATOM     15  C   LIG A   1      -3.614   7.692 129.986  0.00  0.00    +0.466 C 
ATOM     16  O   LIG A   1      -3.188   7.013 131.183  0.00  0.00    -0.453 OA
ENDROOT
BRANCH   1  18
ATOM     17  C   LIG A   1      -8.838   3.773 133.756  0.00  0.00    +0.277 C 
ATOM     18  O   LIG A   1      -8.560   5.139 134.066  0.00  0.00    -0.494 OA
ENDBRANCH   1  18
TORSDOF 1
ENDMDL
MODEL 7
REMARK VINA RESULT:      -6.1      8.705      9.397
REMARK  Name = NuBBE_1436
REMARK  2 active torsions:
REMARK  status: ('A' for Active; 'I' for Inactive)
REMARK    1  A    between atoms: C_1  and  O_2
REMARK    2  A    between atoms: O_2  and  C_3
REMARK                            x       y       z     vdW  Elec       q    Type
REMARK                         _______ _______ _______ _____ _____    ______ ____
ROOT
ATOM      1  C   LIG A   1      -9.141  -1.509 125.010  0.00  0.00    +0.142 A 
ATOM      2  C   LIG A   1      -8.741  -2.109 126.212  0.00  0.00    +0.082 A 
ATOM      3  C   LIG A   1      -8.178  -1.275 127.170  0.00  0.00    +0.231 A 
ATOM      4  O   LIG A   1      -7.833  -2.004 128.269  0.00  0.00    -0.445 OA
ATOM      5  C   LIG A   1      -8.184  -3.293 128.025  0.00  0.00    +0.198 A 
ATOM      6  C   LIG A   1      -8.748  -3.412 126.776  0.00  0.00    +0.055 A 
ATOM      7  N   LIG A   1      -7.982   0.047 127.079  0.00  0.00    -0.208 NA
ATOM      8  C   LIG A   1      -8.415   0.607 125.935  0.00  0.00    +0.124 A 
ATOM      9  C   LIG A   1      -9.012  -0.111 124.867  0.00  0.00    +0.047 A 
ATOM     10  C   LIG A   1      -9.454   0.577 123.701  0.00  0.00    +0.017 A 
ATOM     11  C   LIG A   1      -9.306   1.956 123.571  0.00  0.00    +0.050 A 
ATOM     12  C   LIG A   1      -8.716   2.626 124.614  0.00  0.00    +0.168 A 
ATOM     13  C   LIG A   1      -8.290   1.974 125.751  0.00  0.00    +0.192 A 
ATOM     14  O   LIG A   1      -7.740   2.851 126.649  0.00  0.00    -0.450 OA
ATOM     15  C   LIG A   1      -7.877   4.100 125.951  0.00  0.00    +0.466 C 
ATOM     16  O   LIG A   1      -8.492   3.966 124.656  0.00  0.00    -0.453 OA
ENDROOT
BRANCH   1  18
ATOM     17  C   LIG A   1      -8.728  -2.896 123.223  0.00  0.00    +0.277 C 
ATOM     18  O   LIG A   1      -9.732  -2.258 124.013  0.00  0.00    -0.494 OA
ENDBRANCH   1  18
TORSDOF 1
ENDMDL
MODEL 8
REMARK VINA RESULT:      -6.1      9.335     10.786
REMARK  Name = NuBBE_1436
REMARK  2 active torsions:
REMARK  status: ('A' for Active; 'I' for Inactive)
REMARK    1  A    between atoms: C_1  and  O_2
REMARK    2  A    between atoms: O_2  and  C_3
REMARK                            x       y       z     vdW  Elec       q    Type
REMARK                         _______ _______ _______ _____ _____    ______ ____
ROOT
ATOM      1  C   LIG A   1      -8.830  -1.750 125.124  0.00  0.00    +0.142 A 
ATOM      2  C   LIG A   1      -8.124  -0.641 124.637  0.00  0.00    +0.082 A 
ATOM      3  C   LIG A   1      -7.171  -0.086 125.481  0.00  0.00    +0.231 A 
ATOM      4  O   LIG A   1      -6.585   0.984 124.873  0.00  0.00    -0.445 OA
ATOM      5  C   LIG A   1      -7.147   1.107 123.643  0.00  0.00    +0.198 A 
ATOM      6  C   LIG A   1      -8.097   0.133 123.447  0.00  0.00    +0.055 A 
ATOM      7  N   LIG A   1      -6.839  -0.500 126.710  0.00  0.00    -0.208 NA
ATOM      8  C   LIG A   1      -7.496  -1.592 127.139  0.00  0.00    +0.124 A 
ATOM      9  C   LIG A   1      -8.494  -2.271 126.391  0.00  0.00    +0.047 A 
ATOM     10  C   LIG A   1      -9.122  -3.432 126.925  0.00  0.00    +0.017 A 
ATOM     11  C   LIG A   1      -8.788  -3.925 128.185  0.00  0.00    +0.050 A 
ATOM     12  C   LIG A   1      -7.828  -3.244 128.892  0.00  0.00    +0.168 A 
ATOM     13  C   LIG A   1      -7.207  -2.123 128.385  0.00  0.00    +0.192 A 
ATOM     14  O   LIG A   1      -6.286  -1.624 129.268  0.00  0.00    -0.450 OA
ATOM     15  C   LIG A   1      -6.402  -2.551 130.360  0.00  0.00    +0.466 C 
ATOM     16  O   LIG A   1      -7.383  -3.581 130.131  0.00  0.00    -0.453 OA
ENDROOT
BRANCH   1  18
ATOM     17  C   LIG A   1      -9.136  -3.196 123.363  0.00  0.00    +0.277 C 
ATOM     18  O   LIG A   1      -9.778  -2.379 124.343  0.00  0.00    -0.494 OA
ENDBRANCH   1  18
TORSDOF 1
ENDMDL
MODEL 9
REMARK VINA RESULT:      -5.8      9.550     10.391
REMARK  Name = NuBBE_1436
REMARK  2 active torsions:
REMARK  status: ('A' for Active; 'I' for Inactive)
REMARK    1  A    between atoms: C_1  and  O_2
REMARK    2  A    between atoms: O_2  and  C_3
REMARK                            x       y       z     vdW  Elec       q    Type
REMARK                         _______ _______ _______ _____ _____    ______ ____
ROOT
ATOM      1  C   LIG A   1      -6.723  -1.784 125.090  0.00  0.00    +0.142 A 
ATOM      2  C   LIG A   1      -7.864  -2.266 124.432  0.00  0.00    +0.082 A 
ATOM      3  C   LIG A   1      -8.814  -1.325 124.059  0.00  0.00    +0.231 A 
ATOM      4  O   LIG A   1      -9.861  -1.946 123.446  0.00  0.00    -0.445 OA
ATOM      5  C   LIG A   1      -9.579  -3.275 123.415  0.00  0.00    +0.198 A 
ATOM      6  C   LIG A   1      -8.363  -3.524 124.006  0.00  0.00    +0.055 A 
ATOM      7  N   LIG A   1      -8.759   0.000 124.245  0.00  0.00    -0.208 NA
ATOM      8  C   LIG A   1      -7.635   0.444 124.837  0.00  0.00    +0.124 A 
ATOM      9  C   LIG A   1      -6.575  -0.393 125.272  0.00  0.00    +0.047 A 
ATOM     10  C   LIG A   1      -5.416   0.175 125.874  0.00  0.00    +0.017 A 
ATOM     11  C   LIG A   1      -5.294   1.550 126.060  0.00  0.00    +0.050 A 
ATOM     12  C   LIG A   1      -6.337   2.337 125.639  0.00  0.00    +0.168 A 
ATOM     13  C   LIG A   1      -7.462   1.801 125.050  0.00  0.00    +0.192 A 
ATOM     14  O   LIG A   1      -8.359   2.781 124.712  0.00  0.00    -0.450 OA
ATOM     15  C   LIG A   1      -7.671   3.965 125.148  0.00  0.00    +0.466 C 
ATOM     16  O   LIG A   1      -6.387   3.691 125.743  0.00  0.00    -0.453 OA
ENDROOT
BRANCH   1  18
ATOM     17  C   LIG A   1      -5.010  -3.115 124.325  0.00  0.00    +0.277 C 
ATOM     18  O   LIG A   1      -5.716  -2.646 125.475  0.00  0.00    -0.494 OA
ENDBRANCH   1  18
TORSDOF 1
ENDMDL
