MODEL 1
REMARK VINA RESULT:      -6.5      0.000      0.000
REMARK  Name = NuBBE_1895
REMARK  11 active torsions:
REMARK  status: ('A' for Active; 'I' for Inactive)
REMARK    1  A    between atoms: C_1  and  O_2
REMARK    2  A    between atoms: O_2  and  C_3
REMARK    3  A    between atoms: C_4  and  C_5
REMARK    4  A    between atoms: C_9  and  O_10
REMARK    5  A    between atoms: O_10  and  C_11
REMARK    6  A    between atoms: C_12  and  O_13
REMARK    7  A    between atoms: O_13  and  C_14
REMARK    8  A    between atoms: C_22  and  O_23
REMARK    9  A    between atoms: O_23  and  C_24
REMARK   10  A    between atoms: C_25  and  O_26
REMARK   11  A    between atoms: O_26  and  C_27
REMARK                            x       y       z     vdW  Elec       q    Type
REMARK                         _______ _______ _______ _____ _____    ______ ____
ROOT
ATOM      1  C   LIG A   1      -7.836   2.260 125.066  0.00  0.00    +0.131 C 
ATOM      2  C   LIG A   1      -7.725   2.710 126.518  0.00  0.00    +0.177 C 
ATOM      3  C   LIG A   1      -6.357   3.141 126.907  0.00  0.00    +0.063 A 
ATOM      4  C   LIG A   1      -5.901   2.855 128.192  0.00  0.00    +0.064 A 
ATOM      5  C   LIG A   1      -4.513   2.829 128.424  0.00  0.00    +0.162 A 
ATOM      6  C   LIG A   1      -3.628   3.156 127.379  0.00  0.00    +0.165 A 
ATOM      7  C   LIG A   1      -4.139   3.635 126.172  0.00  0.00    +0.095 A 
ATOM      8  C   LIG A   1      -5.495   3.554 125.909  0.00  0.00    +0.135 A 
ATOM      9  O   LIG A   1      -5.811   3.682 124.584  0.00  0.00    -0.490 OA
ATOM     10  C   LIG A   1      -7.169   3.387 124.249  0.00  0.00    +0.245 C 
ATOM     11  O   LIG A   1      -8.621   2.724 127.295  0.00  0.00    -0.291 OA
ENDROOT
BRANCH   1  13
ATOM     12  C   LIG A   1      -8.057  -0.083 123.915  0.00  0.00    +0.169 A 
ATOM     13  C   LIG A   1      -7.339   0.810 124.780  0.00  0.00    +0.012 A 
ATOM     14  C   LIG A   1      -6.166   0.325 125.386  0.00  0.00    +0.012 A 
ATOM     15  C   LIG A   1      -5.692  -0.967 125.187  0.00  0.00    +0.050 A 
ATOM     16  C   LIG A   1      -6.319  -1.841 124.313  0.00  0.00    +0.165 A 
ATOM     17  C   LIG A   1      -7.506  -1.416 123.662  0.00  0.00    +0.204 A 
BRANCH  12  19
ATOM     18  C   LIG A   1     -10.102   0.448 122.467  0.00  0.00    +0.277 C 
ATOM     19  O   LIG A   1      -9.290   0.468 123.634  0.00  0.00    -0.491 OA
ENDBRANCH  12  19
BRANCH  16  20
ATOM     20  O   LIG A   1      -5.735  -3.083 124.376  0.00  0.00    -0.491 OA
ATOM     21  C   LIG A   1      -4.670  -3.496 123.533  0.00  0.00    +0.277 C 
ENDBRANCH  16  20
BRANCH  17  22
ATOM     22  O   LIG A   1      -8.040  -2.436 122.904  0.00  0.00    -0.488 OA
ATOM     23  C   LIG A   1      -9.119  -3.035 123.562  0.00  0.00    +0.277 C 
ENDBRANCH  17  22
ENDBRANCH   1  13
BRANCH   5  24
ATOM     24  O   LIG A   1      -4.166   2.348 129.665  0.00  0.00    -0.491 OA
ATOM     25  C   LIG A   1      -4.490   0.982 129.896  0.00  0.00    +0.277 C 
ENDBRANCH   5  24
BRANCH   6  26
ATOM     26  O   LIG A   1      -2.280   2.969 127.535  0.00  0.00    -0.491 OA
ATOM     27  C   LIG A   1      -1.485   3.008 126.350  0.00  0.00    +0.277 C 
ENDBRANCH   6  26
TORSDOF 6
ENDMDL
MODEL 2
REMARK VINA RESULT:      -6.5      3.352      7.447
REMARK  Name = NuBBE_1895
REMARK  11 active torsions:
REMARK  status: ('A' for Active; 'I' for Inactive)
REMARK    1  A    between atoms: C_1  and  O_2
REMARK    2  A    between atoms: O_2  and  C_3
REMARK    3  A    between atoms: C_4  and  C_5
REMARK    4  A    between atoms: C_9  and  O_10
REMARK    5  A    between atoms: O_10  and  C_11
REMARK    6  A    between atoms: C_12  and  O_13
REMARK    7  A    between atoms: O_13  and  C_14
REMARK    8  A    between atoms: C_22  and  O_23
REMARK    9  A    between atoms: O_23  and  C_24
REMARK   10  A    between atoms: C_25  and  O_26
REMARK   11  A    between atoms: O_26  and  C_27
REMARK                            x       y       z     vdW  Elec       q    Type
REMARK                         _______ _______ _______ _____ _____    ______ ____
ROOT
ATOM      1  C   LIG A   1      -7.117  -1.921 129.245  0.00  0.00    +0.131 C 
ATOM      2  C   LIG A   1      -7.884  -2.820 128.284  0.00  0.00    +0.177 C 
ATOM      3  C   LIG A   1      -7.506  -2.631 126.859  0.00  0.00    +0.063 A 
ATOM      4  C   LIG A   1      -8.493  -2.731 125.881  0.00  0.00    +0.064 A 
ATOM      5  C   LIG A   1      -8.269  -2.120 124.633  0.00  0.00    +0.162 A 
ATOM      6  C   LIG A   1      -7.037  -1.486 124.381  0.00  0.00    +0.165 A 
ATOM      7  C   LIG A   1      -6.007  -1.593 125.316  0.00  0.00    +0.095 A 
ATOM      8  C   LIG A   1      -6.263  -2.094 126.580  0.00  0.00    +0.135 A 
ATOM      9  O   LIG A   1      -5.301  -1.789 127.503  0.00  0.00    -0.490 OA
ATOM     10  C   LIG A   1      -5.633  -2.098 128.858  0.00  0.00    +0.245 C 
ATOM     11  O   LIG A   1      -8.715  -3.604 128.603  0.00  0.00    -0.291 OA
ENDROOT
BRANCH   1  13
ATOM     12  C   LIG A   1      -7.863   0.192 130.604  0.00  0.00    +0.169 A 
ATOM     13  C   LIG A   1      -7.637  -0.454 129.342  0.00  0.00    +0.012 A 
ATOM     14  C   LIG A   1      -7.920   0.280 128.176  0.00  0.00    +0.012 A 
ATOM     15  C   LIG A   1      -8.410   1.582 128.203  0.00  0.00    +0.050 A 
ATOM     16  C   LIG A   1      -8.584   2.264 129.397  0.00  0.00    +0.165 A 
ATOM     17  C   LIG A   1      -8.312   1.586 130.613  0.00  0.00    +0.204 A 
BRANCH  12  19
ATOM     18  C   LIG A   1      -7.120  -0.762 132.861  0.00  0.00    +0.277 C 
ATOM     19  O   LIG A   1      -7.785  -0.753 131.605  0.00  0.00    -0.491 OA
ENDBRANCH  12  19
BRANCH  16  20
ATOM     20  O   LIG A   1      -9.183   3.480 129.172  0.00  0.00    -0.491 OA
ATOM     21  C   LIG A   1      -8.468   4.703 129.070  0.00  0.00    +0.277 C 
ENDBRANCH  16  20
BRANCH  17  22
ATOM     22  O   LIG A   1      -8.622   2.381 131.696  0.00  0.00    -0.488 OA
ATOM     23  C   LIG A   1      -9.858   2.019 132.243  0.00  0.00    +0.277 C 
ENDBRANCH  17  22
ENDBRANCH   1  13
BRANCH   5  24
ATOM     24  O   LIG A   1      -9.375  -2.107 123.815  0.00  0.00    -0.491 OA
ATOM     25  C   LIG A   1      -9.752  -3.375 123.288  0.00  0.00    +0.277 C 
ENDBRANCH   5  24
BRANCH   6  26
ATOM     26  O   LIG A   1      -6.867  -0.741 123.244  0.00  0.00    -0.491 OA
ATOM     27  C   LIG A   1      -7.128   0.658 123.349  0.00  0.00    +0.277 C 
ENDBRANCH   6  26
TORSDOF 6
ENDMDL
MODEL 3
REMARK VINA RESULT:      -6.3      1.926      2.088
REMARK  Name = NuBBE_1895
REMARK  11 active torsions:
REMARK  status: ('A' for Active; 'I' for Inactive)
REMARK    1  A    between atoms: C_1  and  O_2
REMARK    2  A    between atoms: O_2  and  C_3
REMARK    3  A    between atoms: C_4  and  C_5
REMARK    4  A    between atoms: C_9  and  O_10
REMARK    5  A    between atoms: O_10  and  C_11
REMARK    6  A    between atoms: C_12  and  O_13
REMARK    7  A    between atoms: O_13  and  C_14
REMARK    8  A    between atoms: C_22  and  O_23
REMARK    9  A    between atoms: O_23  and  C_24
REMARK   10  A    between atoms: C_25  and  O_26
REMARK   11  A    between atoms: O_26  and  C_27
REMARK                            x       y       z     vdW  Elec       q    Type
REMARK                         _______ _______ _______ _____ _____    ______ ____
ROOT
ATOM      1  C   LIG A   1      -8.139   3.212 125.263  0.00  0.00    +0.131 C 
ATOM      2  C   LIG A   1      -7.748   4.221 126.336  0.00  0.00    +0.177 C 
ATOM      3  C   LIG A   1      -6.286   4.280 126.598  0.00  0.00    +0.063 A 
ATOM      4  C   LIG A   1      -5.844   4.493 127.901  0.00  0.00    +0.064 A 
ATOM      5  C   LIG A   1      -4.535   4.100 128.241  0.00  0.00    +0.162 A 
ATOM      6  C   LIG A   1      -3.690   3.568 127.248  0.00  0.00    +0.165 A 
ATOM      7  C   LIG A   1      -4.110   3.567 125.917  0.00  0.00    +0.095 A 
ATOM      8  C   LIG A   1      -5.429   3.847 125.604  0.00  0.00    +0.135 A 
ATOM      9  O   LIG A   1      -5.800   3.439 124.352  0.00  0.00    -0.490 OA
ATOM     10  C   LIG A   1      -7.199   3.513 124.075  0.00  0.00    +0.245 C 
ATOM     11  O   LIG A   1      -8.510   4.906 126.933  0.00  0.00    -0.291 OA
ENDROOT
BRANCH   1  13
ATOM     12  C   LIG A   1      -8.965   0.736 125.032  0.00  0.00    +0.169 A 
ATOM     13  C   LIG A   1      -8.202   1.728 125.736  0.00  0.00    +0.012 A 
ATOM     14  C   LIG A   1      -7.519   1.320 126.896  0.00  0.00    +0.012 A 
ATOM     15  C   LIG A   1      -7.563   0.015 127.379  0.00  0.00    +0.050 A 
ATOM     16  C   LIG A   1      -8.235  -0.987 126.696  0.00  0.00    +0.165 A 
ATOM     17  C   LIG A   1      -8.942  -0.646 125.514  0.00  0.00    +0.204 A 
BRANCH  12  19
ATOM     18  C   LIG A   1     -10.010   1.107 122.723  0.00  0.00    +0.277 C 
ATOM     19  O   LIG A   1      -9.758   1.369 124.098  0.00  0.00    -0.491 OA
ENDBRANCH  12  19
BRANCH  16  20
ATOM     20  O   LIG A   1      -8.230  -2.150 127.426  0.00  0.00    -0.491 OA
ATOM     21  C   LIG A   1      -7.178  -2.526 128.301  0.00  0.00    +0.277 C 
ENDBRANCH  16  20
BRANCH  17  22
ATOM     22  O   LIG A   1      -9.620  -1.740 125.018  0.00  0.00    -0.488 OA
ATOM     23  C   LIG A   1      -8.929  -2.311 123.944  0.00  0.00    +0.277 C 
ENDBRANCH  17  22
ENDBRANCH   1  13
BRANCH   5  24
ATOM     24  O   LIG A   1      -4.266   4.172 129.587  0.00  0.00    -0.491 OA
ATOM     25  C   LIG A   1      -5.237   3.562 130.431  0.00  0.00    +0.277 C 
ENDBRANCH   5  24
BRANCH   6  26
ATOM     26  O   LIG A   1      -2.482   3.023 127.593  0.00  0.00    -0.491 OA
ATOM     27  C   LIG A   1      -1.492   2.953 126.567  0.00  0.00    +0.277 C 
ENDBRANCH   6  26
TORSDOF 6
ENDMDL
MODEL 4
REMARK VINA RESULT:      -6.3      2.296      6.609
REMARK  Name = NuBBE_1895
REMARK  11 active torsions:
REMARK  status: ('A' for Active; 'I' for Inactive)
REMARK    1  A    between atoms: C_1  and  O_2
REMARK    2  A    between atoms: O_2  and  C_3
REMARK    3  A    between atoms: C_4  and  C_5
REMARK    4  A    between atoms: C_9  and  O_10
REMARK    5  A    between atoms: O_10  and  C_11
REMARK    6  A    between atoms: C_12  and  O_13
REMARK    7  A    between atoms: O_13  and  C_14
REMARK    8  A    between atoms: C_22  and  O_23
REMARK    9  A    between atoms: O_23  and  C_24
REMARK   10  A    between atoms: C_25  and  O_26
REMARK   11  A    between atoms: O_26  and  C_27
REMARK                            x       y       z     vdW  Elec       q    Type
REMARK                         _______ _______ _______ _____ _____    ______ ____
ROOT
ATOM      1  C   LIG A   1      -8.527   2.136 123.945  0.00  0.00    +0.131 C 
ATOM      2  C   LIG A   1      -7.465   1.270 123.280  0.00  0.00    +0.177 C 
ATOM      3  C   LIG A   1      -7.678  -0.189 123.470  0.00  0.00    +0.063 A 
ATOM      4  C   LIG A   1      -6.569  -1.015 123.633  0.00  0.00    +0.064 A 
ATOM      5  C   LIG A   1      -6.746  -2.265 124.258  0.00  0.00    +0.162 A 
ATOM      6  C   LIG A   1      -8.038  -2.673 124.638  0.00  0.00    +0.165 A 
ATOM      7  C   LIG A   1      -9.139  -1.901 124.268  0.00  0.00    +0.095 A 
ATOM      8  C   LIG A   1      -8.956  -0.628 123.757  0.00  0.00    +0.135 A 
ATOM      9  O   LIG A   1     -10.077   0.154 123.803  0.00  0.00    -0.490 OA
ATOM     10  C   LIG A   1      -9.874   1.533 123.489  0.00  0.00    +0.245 C 
ATOM     11  O   LIG A   1      -6.538   1.683 122.666  0.00  0.00    -0.291 OA
ENDROOT
BRANCH   1  13
ATOM     12  C   LIG A   1      -7.722   3.524 126.016  0.00  0.00    +0.169 A 
ATOM     13  C   LIG A   1      -8.348   2.349 125.479  0.00  0.00    +0.012 A 
ATOM     14  C   LIG A   1      -8.783   1.370 126.390  0.00  0.00    +0.012 A 
ATOM     15  C   LIG A   1      -8.625   1.496 127.767  0.00  0.00    +0.050 A 
ATOM     16  C   LIG A   1      -8.083   2.641 128.331  0.00  0.00    +0.165 A 
ATOM     17  C   LIG A   1      -7.627   3.672 127.469  0.00  0.00    +0.204 A 
BRANCH  12  19
ATOM     18  C   LIG A   1      -5.780   4.492 124.655  0.00  0.00    +0.277 C 
ATOM     19  O   LIG A   1      -7.137   4.227 124.983  0.00  0.00    -0.491 OA
ENDBRANCH  12  19
BRANCH  16  20
ATOM     20  O   LIG A   1      -7.926   2.479 129.686  0.00  0.00    -0.491 OA
ATOM     21  C   LIG A   1      -8.905   2.855 130.643  0.00  0.00    +0.277 C 
ENDBRANCH  16  20
BRANCH  17  22
ATOM     22  O   LIG A   1      -7.042   4.689 128.193  0.00  0.00    -0.488 OA
ATOM     23  C   LIG A   1      -5.670   4.466 128.348  0.00  0.00    +0.277 C 
ENDBRANCH  17  22
ENDBRANCH   1  13
BRANCH   5  24
ATOM     24  O   LIG A   1      -5.568  -2.913 124.545  0.00  0.00    -0.491 OA
ATOM     25  C   LIG A   1      -4.732  -3.175 123.423  0.00  0.00    +0.277 C 
ENDBRANCH   5  24
BRANCH   6  26
ATOM     26  O   LIG A   1      -8.207  -3.801 125.399  0.00  0.00    -0.491 OA
ATOM     27  C   LIG A   1      -8.706  -3.614 126.722  0.00  0.00    +0.277 C 
ENDBRANCH   6  26
TORSDOF 6
ENDMDL
MODEL 5
REMARK VINA RESULT:      -6.2      1.919      3.468
REMARK  Name = NuBBE_1895
REMARK  11 active torsions:
REMARK  status: ('A' for Active; 'I' for Inactive)
REMARK    1  A    between atoms: C_1  and  O_2
REMARK    2  A    between atoms: O_2  and  C_3
REMARK    3  A    between atoms: C_4  and  C_5
REMARK    4  A    between atoms: C_9  and  O_10
REMARK    5  A    between atoms: O_10  and  C_11
REMARK    6  A    between atoms: C_12  and  O_13
REMARK    7  A    between atoms: O_13  and  C_14
REMARK    8  A    between atoms: C_22  and  O_23
REMARK    9  A    between atoms: O_23  and  C_24
REMARK   10  A    between atoms: C_25  and  O_26
REMARK   11  A    between atoms: O_26  and  C_27
REMARK                            x       y       z     vdW  Elec       q    Type
REMARK                         _______ _______ _______ _____ _____    ______ ____
ROOT
ATOM      1  C   LIG A   1      -6.711  -0.171 128.283  0.00  0.00    +0.131 C 
ATOM      2  C   LIG A   1      -5.528   0.720 128.644  0.00  0.00    +0.177 C 
ATOM      3  C   LIG A   1      -5.473   1.986 127.867  0.00  0.00    +0.063 A 
ATOM      4  C   LIG A   1      -4.231   2.493 127.495  0.00  0.00    +0.064 A 
ATOM      5  C   LIG A   1      -4.166   3.387 126.409  0.00  0.00    +0.162 A 
ATOM      6  C   LIG A   1      -5.355   3.795 125.775  0.00  0.00    +0.165 A 
ATOM      7  C   LIG A   1      -6.585   3.420 126.315  0.00  0.00    +0.095 A 
ATOM      8  C   LIG A   1      -6.645   2.458 127.308  0.00  0.00    +0.135 A 
ATOM      9  O   LIG A   1      -7.886   1.906 127.470  0.00  0.00    -0.490 OA
ATOM     10  C   LIG A   1      -7.939   0.764 128.327  0.00  0.00    +0.245 C 
ATOM     11  O   LIG A   1      -4.706   0.459 129.458  0.00  0.00    -0.291 OA
ENDROOT
BRANCH   1  13
ATOM     12  C   LIG A   1      -7.444  -2.071 126.635  0.00  0.00    +0.169 A 
ATOM     13  C   LIG A   1      -6.533  -1.019 126.986  0.00  0.00    +0.012 A 
ATOM     14  C   LIG A   1      -5.446  -0.785 126.125  0.00  0.00    +0.012 A 
ATOM     15  C   LIG A   1      -5.225  -1.528 124.970  0.00  0.00    +0.050 A 
ATOM     16  C   LIG A   1      -6.113  -2.510 124.560  0.00  0.00    +0.165 A 
ATOM     17  C   LIG A   1      -7.235  -2.796 125.380  0.00  0.00    +0.204 A 
BRANCH  12  19
ATOM     18  C   LIG A   1      -8.575  -3.509 128.428  0.00  0.00    +0.277 C 
ATOM     19  O   LIG A   1      -8.270  -2.320 127.711  0.00  0.00    -0.491 OA
ENDBRANCH  12  19
BRANCH  16  20
ATOM     20  O   LIG A   1      -5.619  -3.176 123.464  0.00  0.00    -0.491 OA
ATOM     21  C   LIG A   1      -4.487  -4.032 123.506  0.00  0.00    +0.277 C 
ENDBRANCH  16  20
BRANCH  17  22
ATOM     22  O   LIG A   1      -7.957  -3.853 124.868  0.00  0.00    -0.488 OA
ATOM     23  C   LIG A   1      -9.096  -3.400 124.195  0.00  0.00    +0.277 C 
ENDBRANCH  17  22
ENDBRANCH   1  13
BRANCH   5  24
ATOM     24  O   LIG A   1      -2.884   3.673 126.001  0.00  0.00    -0.491 OA
ATOM     25  C   LIG A   1      -1.854   3.115 126.809  0.00  0.00    +0.277 C 
ENDBRANCH   5  24
BRANCH   6  26
ATOM     26  O   LIG A   1      -5.300   4.523 124.615  0.00  0.00    -0.491 OA
ATOM     27  C   LIG A   1      -5.829   3.903 123.443  0.00  0.00    +0.277 C 
ENDBRANCH   6  26
TORSDOF 6
ENDMDL
MODEL 6
REMARK VINA RESULT:      -6.2      8.358     13.160
REMARK  Name = NuBBE_1895
REMARK  11 active torsions:
REMARK  status: ('A' for Active; 'I' for Inactive)
REMARK    1  A    between atoms: C_1  and  O_2
REMARK    2  A    between atoms: O_2  and  C_3
REMARK    3  A    between atoms: C_4  and  C_5
REMARK    4  A    between atoms: C_9  and  O_10
REMARK    5  A    between atoms: O_10  and  C_11
REMARK    6  A    between atoms: C_12  and  O_13
REMARK    7  A    between atoms: O_13  and  C_14
REMARK    8  A    between atoms: C_22  and  O_23
REMARK    9  A    between atoms: O_23  and  C_24
REMARK   10  A    between atoms: C_25  and  O_26
REMARK   11  A    between atoms: O_26  and  C_27
REMARK                            x       y       z     vdW  Elec       q    Type
REMARK                         _______ _______ _______ _____ _____    ______ ____
ROOT
ATOM      1  C   LIG A   1      -1.261   7.707 133.939  0.00  0.00    +0.131 C 
ATOM      2  C   LIG A   1      -2.648   7.084 133.838  0.00  0.00    +0.177 C 
ATOM      3  C   LIG A   1      -3.049   6.741 132.449  0.00  0.00    +0.063 A 
ATOM      4  C   LIG A   1      -4.382   6.899 132.075  0.00  0.00    +0.064 A 
ATOM      5  C   LIG A   1      -4.686   7.029 130.706  0.00  0.00    +0.162 A 
ATOM      6  C   LIG A   1      -3.655   6.929 129.753  0.00  0.00    +0.165 A 
ATOM      7  C   LIG A   1      -2.372   6.565 130.165  0.00  0.00    +0.095 A 
ATOM      8  C   LIG A   1      -2.052   6.548 131.512  0.00  0.00    +0.135 A 
ATOM      9  O   LIG A   1      -0.708   6.564 131.762  0.00  0.00    -0.490 OA
ATOM     10  C   LIG A   1      -0.343   6.767 133.129  0.00  0.00    +0.245 C 
ATOM     11  O   LIG A   1      -3.370   6.882 134.757  0.00  0.00    -0.291 OA
ENDROOT
BRANCH   1  13
ATOM     12  C   LIG A   1      -0.089  10.050 134.003  0.00  0.00    +0.169 A 
ATOM     13  C   LIG A   1      -1.186   9.224 133.583  0.00  0.00    +0.012 A 
ATOM     14  C   LIG A   1      -2.216   9.835 132.847  0.00  0.00    +0.012 A 
ATOM     15  C   LIG A   1      -2.213  11.189 132.525  0.00  0.00    +0.050 A 
ATOM     16  C   LIG A   1      -1.146  12.009 132.855  0.00  0.00    +0.165 A 
ATOM     17  C   LIG A   1      -0.069  11.456 133.595  0.00  0.00    +0.204 A 
BRANCH  12  19
ATOM     18  C   LIG A   1       1.072   9.641 136.249  0.00  0.00    +0.277 C 
ATOM     19  O   LIG A   1       0.669   9.349 134.917  0.00  0.00    -0.491 OA
ENDBRANCH  12  19
BRANCH  16  20
ATOM     20  O   LIG A   1      -1.428  13.315 132.535  0.00  0.00    -0.491 OA
ATOM     21  C   LIG A   1      -2.371  14.111 133.236  0.00  0.00    +0.277 C 
ENDBRANCH  16  20
BRANCH  17  22
ATOM     22  O   LIG A   1       0.857  12.428 133.910  0.00  0.00    -0.488 OA
ATOM     23  C   LIG A   1       2.113  12.111 133.383  0.00  0.00    +0.277 C 
ENDBRANCH  17  22
ENDBRANCH   1  13
BRANCH   5  24
ATOM     24  O   LIG A   1      -5.994   7.375 130.459  0.00  0.00    -0.491 OA
ATOM     25  C   LIG A   1      -6.954   6.758 131.310  0.00  0.00    +0.277 C 
ENDBRANCH   5  24
BRANCH   6  26
ATOM     26  O   LIG A   1      -3.902   7.223 128.438  0.00  0.00    -0.491 OA
ATOM     27  C   LIG A   1      -3.951   6.122 127.532  0.00  0.00    +0.277 C 
ENDBRANCH   6  26
TORSDOF 6
ENDMDL
MODEL 7
REMARK VINA RESULT:      -6.0      3.317      5.713
REMARK  Name = NuBBE_1895
REMARK  11 active torsions:
REMARK  status: ('A' for Active; 'I' for Inactive)
REMARK    1  A    between atoms: C_1  and  O_2
REMARK    2  A    between atoms: O_2  and  C_3
REMARK    3  A    between atoms: C_4  and  C_5
REMARK    4  A    between atoms: C_9  and  O_10
REMARK    5  A    between atoms: O_10  and  C_11
REMARK    6  A    between atoms: C_12  and  O_13
REMARK    7  A    between atoms: O_13  and  C_14
REMARK    8  A    between atoms: C_22  and  O_23
REMARK    9  A    between atoms: O_23  and  C_24
REMARK   10  A    between atoms: C_25  and  O_26
REMARK   11  A    between atoms: O_26  and  C_27
REMARK                            x       y       z     vdW  Elec       q    Type
REMARK                         _______ _______ _______ _____ _____    ______ ____
ROOT
ATOM      1  C   LIG A   1      -6.816  -2.349 128.193  0.00  0.00    +0.131 C 
ATOM      2  C   LIG A   1      -5.712  -1.766 129.067  0.00  0.00    +0.177 C 
ATOM      3  C   LIG A   1      -6.206  -1.172 130.336  0.00  0.00    +0.063 A 
ATOM      4  C   LIG A   1      -5.583  -0.029 130.832  0.00  0.00    +0.064 A 
ATOM      5  C   LIG A   1      -6.293   0.788 131.731  0.00  0.00    +0.162 A 
ATOM      6  C   LIG A   1      -7.577   0.399 132.157  0.00  0.00    +0.165 A 
ATOM      7  C   LIG A   1      -8.071  -0.854 131.794  0.00  0.00    +0.095 A 
ATOM      8  C   LIG A   1      -7.424  -1.603 130.826  0.00  0.00    +0.135 A 
ATOM      9  O   LIG A   1      -8.194  -2.597 130.288  0.00  0.00    -0.490 OA
ATOM     10  C   LIG A   1      -7.642  -3.245 129.141  0.00  0.00    +0.245 C 
ATOM     11  O   LIG A   1      -4.559  -1.762 128.791  0.00  0.00    -0.291 OA
ENDROOT
BRANCH   1  13
ATOM     12  C   LIG A   1      -8.203  -1.646 126.084  0.00  0.00    +0.169 A 
ATOM     13  C   LIG A   1      -7.617  -1.310 127.350  0.00  0.00    +0.012 A 
ATOM     14  C   LIG A   1      -7.770   0.012 127.807  0.00  0.00    +0.012 A 
ATOM     15  C   LIG A   1      -8.451   0.986 127.085  0.00  0.00    +0.050 A 
ATOM     16  C   LIG A   1      -9.086   0.689 125.889  0.00  0.00    +0.165 A 
ATOM     17  C   LIG A   1      -8.976  -0.628 125.371  0.00  0.00    +0.204 A 
BRANCH  12  19
ATOM     18  C   LIG A   1      -8.312  -3.928 124.925  0.00  0.00    +0.277 C 
ATOM     19  O   LIG A   1      -7.731  -2.881 125.691  0.00  0.00    -0.491 OA
ENDBRANCH  12  19
BRANCH  16  20
ATOM     20  O   LIG A   1      -9.585   1.832 125.314  0.00  0.00    -0.491 OA
ATOM     21  C   LIG A   1      -8.800   2.739 124.554  0.00  0.00    +0.277 C 
ENDBRANCH  16  20
BRANCH  17  22
ATOM     22  O   LIG A   1      -9.590  -0.721 124.140  0.00  0.00    -0.488 OA
ATOM     23  C   LIG A   1      -8.644  -0.709 123.109  0.00  0.00    +0.277 C 
ENDBRANCH  17  22
ENDBRANCH   1  13
BRANCH   5  24
ATOM     24  O   LIG A   1      -5.671   1.984 132.005  0.00  0.00    -0.491 OA
ATOM     25  C   LIG A   1      -5.834   2.991 131.013  0.00  0.00    +0.277 C 
ENDBRANCH   5  24
BRANCH   6  26
ATOM     26  O   LIG A   1      -8.349   1.261 132.892  0.00  0.00    -0.491 OA
ATOM     27  C   LIG A   1      -9.429   1.896 132.208  0.00  0.00    +0.277 C 
ENDBRANCH   6  26
TORSDOF 6
ENDMDL
MODEL 8
REMARK VINA RESULT:      -6.0      3.934      6.169
REMARK  Name = NuBBE_1895
REMARK  11 active torsions:
REMARK  status: ('A' for Active; 'I' for Inactive)
REMARK    1  A    between atoms: C_1  and  O_2
REMARK    2  A    between atoms: O_2  and  C_3
REMARK    3  A    between atoms: C_4  and  C_5
REMARK    4  A    between atoms: C_9  and  O_10
REMARK    5  A    between atoms: O_10  and  C_11
REMARK    6  A    between atoms: C_12  and  O_13
REMARK    7  A    between atoms: O_13  and  C_14
REMARK    8  A    between atoms: C_22  and  O_23
REMARK    9  A    between atoms: O_23  and  C_24
REMARK   10  A    between atoms: C_25  and  O_26
REMARK   11  A    between atoms: O_26  and  C_27
REMARK                            x       y       z     vdW  Elec       q    Type
REMARK                         _______ _______ _______ _____ _____    ______ ____
ROOT
ATOM      1  C   LIG A   1      -7.402   0.139 130.744  0.00  0.00    +0.131 C 
ATOM      2  C   LIG A   1      -6.898   1.525 131.129  0.00  0.00    +0.177 C 
ATOM      3  C   LIG A   1      -7.971   2.551 131.205  0.00  0.00    +0.063 A 
ATOM      4  C   LIG A   1      -7.689   3.851 130.795  0.00  0.00    +0.064 A 
ATOM      5  C   LIG A   1      -8.760   4.688 130.426  0.00  0.00    +0.162 A 
ATOM      6  C   LIG A   1     -10.081   4.218 130.544  0.00  0.00    +0.165 A 
ATOM      7  C   LIG A   1     -10.319   2.985 131.154  0.00  0.00    +0.095 A 
ATOM      8  C   LIG A   1      -9.269   2.122 131.411  0.00  0.00    +0.135 A 
ATOM      9  O   LIG A   1      -9.656   0.830 131.636  0.00  0.00    -0.490 OA
ATOM     10  C   LIG A   1      -8.595  -0.126 131.688  0.00  0.00    +0.245 C 
ATOM     11  O   LIG A   1      -5.766   1.799 131.347  0.00  0.00    -0.291 OA
ENDROOT
BRANCH   1  13
ATOM     12  C   LIG A   1      -7.495  -1.356 128.594  0.00  0.00    +0.169 A 
ATOM     13  C   LIG A   1      -7.663  -0.076 129.222  0.00  0.00    +0.012 A 
ATOM     14  C   LIG A   1      -8.055   1.002 128.407  0.00  0.00    +0.012 A 
ATOM     15  C   LIG A   1      -8.276   0.873 127.039  0.00  0.00    +0.050 A 
ATOM     16  C   LIG A   1      -8.187  -0.356 126.405  0.00  0.00    +0.165 A 
ATOM     17  C   LIG A   1      -7.799  -1.488 127.168  0.00  0.00    +0.204 A 
BRANCH  12  19
ATOM     18  C   LIG A   1      -7.023  -3.590 129.754  0.00  0.00    +0.277 C 
ATOM     19  O   LIG A   1      -6.864  -2.204 129.480  0.00  0.00    -0.491 OA
ENDBRANCH  12  19
BRANCH  16  20
ATOM     20  O   LIG A   1      -8.332  -0.206 125.047  0.00  0.00    -0.491 OA
ATOM     21  C   LIG A   1      -7.360   0.407 124.214  0.00  0.00    +0.277 C 
ENDBRANCH  16  20
BRANCH  17  22
ATOM     22  O   LIG A   1      -7.676  -2.601 126.364  0.00  0.00    -0.488 OA
ATOM     23  C   LIG A   1      -8.825  -3.396 126.433  0.00  0.00    +0.277 C 
ENDBRANCH  17  22
ENDBRANCH   1  13
BRANCH   5  24
ATOM     24  O   LIG A   1      -8.365   5.875 129.853  0.00  0.00    -0.491 OA
ATOM     25  C   LIG A   1      -8.061   6.918 130.773  0.00  0.00    +0.277 C 
ENDBRANCH   5  24
BRANCH   6  26
ATOM     26  O   LIG A   1     -11.120   4.949 130.031  0.00  0.00    -0.491 OA
ATOM     27  C   LIG A   1     -11.680   5.951 130.878  0.00  0.00    +0.277 C 
ENDBRANCH   6  26
TORSDOF 6
ENDMDL
MODEL 9
REMARK VINA RESULT:      -6.0      1.442      1.642
REMARK  Name = NuBBE_1895
REMARK  11 active torsions:
REMARK  status: ('A' for Active; 'I' for Inactive)
REMARK    1  A    between atoms: C_1  and  O_2
REMARK    2  A    between atoms: O_2  and  C_3
REMARK    3  A    between atoms: C_4  and  C_5
REMARK    4  A    between atoms: C_9  and  O_10
REMARK    5  A    between atoms: O_10  and  C_11
REMARK    6  A    between atoms: C_12  and  O_13
REMARK    7  A    between atoms: O_13  and  C_14
REMARK    8  A    between atoms: C_22  and  O_23
REMARK    9  A    between atoms: O_23  and  C_24
REMARK   10  A    between atoms: C_25  and  O_26
REMARK   11  A    between atoms: O_26  and  C_27
REMARK                            x       y       z     vdW  Elec       q    Type
REMARK                         _______ _______ _______ _____ _____    ______ ____
ROOT
ATOM      1  C   LIG A   1      -7.295   3.074 124.003  0.00  0.00    +0.131 C 
ATOM      2  C   LIG A   1      -7.807   3.791 125.246  0.00  0.00    +0.177 C 
ATOM      3  C   LIG A   1      -6.737   4.142 126.217  0.00  0.00    +0.063 A 
ATOM      4  C   LIG A   1      -7.015   4.072 127.579  0.00  0.00    +0.064 A 
ATOM      5  C   LIG A   1      -5.941   3.944 128.481  0.00  0.00    +0.162 A 
ATOM      6  C   LIG A   1      -4.620   3.959 127.993  0.00  0.00    +0.165 A 
ATOM      7  C   LIG A   1      -4.389   4.238 126.645  0.00  0.00    +0.095 A 
ATOM      8  C   LIG A   1      -5.442   4.252 125.747  0.00  0.00    +0.135 A 
ATOM      9  O   LIG A   1      -5.056   4.145 124.439  0.00  0.00    -0.490 OA
ATOM     10  C   LIG A   1      -6.116   3.937 123.504  0.00  0.00    +0.245 C 
ATOM     11  O   LIG A   1      -8.943   4.056 125.458  0.00  0.00    -0.291 OA
ENDROOT
BRANCH   1  13
ATOM     12  C   LIG A   1      -7.671   0.556 123.386  0.00  0.00    +0.169 A 
ATOM     13  C   LIG A   1      -7.012   1.551 124.182  0.00  0.00    +0.012 A 
ATOM     14  C   LIG A   1      -6.102   1.106 125.158  0.00  0.00    +0.012 A 
ATOM     15  C   LIG A   1      -5.831  -0.241 125.379  0.00  0.00    +0.050 A 
ATOM     16  C   LIG A   1      -6.398  -1.231 124.592  0.00  0.00    +0.165 A 
ATOM     17  C   LIG A   1      -7.321  -0.852 123.585  0.00  0.00    +0.204 A 
BRANCH  12  19
ATOM     18  C   LIG A   1     -10.105   0.962 122.700  0.00  0.00    +0.277 C 
ATOM     19  O   LIG A   1      -8.697   1.156 122.686  0.00  0.00    -0.491 OA
ENDBRANCH  12  19
BRANCH  16  20
ATOM     20  O   LIG A   1      -6.070  -2.474 125.076  0.00  0.00    -0.491 OA
ATOM     21  C   LIG A   1      -5.197  -3.374 124.409  0.00  0.00    +0.277 C 
ENDBRANCH  16  20
BRANCH  17  22
ATOM     22  O   LIG A   1      -7.850  -1.964 122.963  0.00  0.00    -0.488 OA
ATOM     23  C   LIG A   1      -9.037  -2.366 123.584  0.00  0.00    +0.277 C 
ENDBRANCH  17  22
ENDBRANCH   1  13
BRANCH   5  24
ATOM     24  O   LIG A   1      -6.329   3.687 129.774  0.00  0.00    -0.491 OA
ATOM     25  C   LIG A   1      -7.619   3.102 129.914  0.00  0.00    +0.277 C 
ENDBRANCH   5  24
BRANCH   6  26
ATOM     26  O   LIG A   1      -3.575   3.663 128.828  0.00  0.00    -0.491 OA
ATOM     27  C   LIG A   1      -2.984   4.757 129.528  0.00  0.00    +0.277 C 
ENDBRANCH   6  26
TORSDOF 6
ENDMDL
