MODEL 1
REMARK VINA RESULT:      -5.8      0.000      0.000
REMARK  Name = NuBBE_1984
REMARK  6 active torsions:
REMARK  status: ('A' for Active; 'I' for Inactive)
REMARK    1  A    between atoms: O_1  and  C_2
REMARK    2  A    between atoms: O_1  and  C_3
REMARK    3  A    between atoms: C_4  and  O_5
REMARK    4  A    between atoms: O_5  and  C_6
REMARK    5  A    between atoms: C_9  and  C_11
REMARK    6  A    between atoms: C_12  and  C_13
REMARK                            x       y       z     vdW  Elec       q    Type
REMARK                         _______ _______ _______ _____ _____    ______ ____
ROOT
ATOM      1  C   LIG A   1      -8.756  -1.804 124.719  0.00  0.00    +0.162 A 
ATOM      2  C   LIG A   1      -8.850  -0.460 124.312  0.00  0.00    +0.162 A 
ATOM      3  C   LIG A   1      -7.808   0.084 123.557  0.00  0.00    +0.050 A 
ATOM      4  C   LIG A   1      -6.700  -0.687 123.201  0.00  0.00    +0.012 A 
ATOM      5  C   LIG A   1      -6.621  -2.033 123.550  0.00  0.00    -0.022 A 
ATOM      6  C   LIG A   1      -7.654  -2.583 124.319  0.00  0.00    +0.057 A 
ENDROOT
BRANCH   5   7
ATOM      7  C   LIG A   1      -5.457  -2.851 123.166  0.00  0.00    +0.003 C 
ATOM      8  C   LIG A   1      -5.039  -3.906 123.883  0.00  0.00    -0.030 C 
ATOM      9  C   LIG A   1      -3.885  -4.780 123.526  0.00  0.00    +0.035 C 
ENDBRANCH   5   7
BRANCH   1  10
ATOM     10  O   LIG A   1      -9.674  -2.502 125.464  0.00  0.00    -0.491 OA
ATOM     11  C   LIG A   1      -9.154  -3.283 126.536  0.00  0.00    +0.277 C 
ENDBRANCH   1  10
BRANCH   2  12
ATOM     12  O   LIG A   1      -9.967   0.258 124.658  0.00  0.00    -0.491 OA
ATOM     13  C   LIG A   1     -10.216   1.457 123.933  0.00  0.00    +0.277 C 
ENDBRANCH   2  12
TORSDOF 3
ENDMDL
MODEL 2
REMARK VINA RESULT:      -5.7     10.633     11.678
REMARK  Name = NuBBE_1984
REMARK  6 active torsions:
REMARK  status: ('A' for Active; 'I' for Inactive)
REMARK    1  A    between atoms: O_1  and  C_2
REMARK    2  A    between atoms: O_1  and  C_3
REMARK    3  A    between atoms: C_4  and  O_5
REMARK    4  A    between atoms: O_5  and  C_6
REMARK    5  A    between atoms: C_9  and  C_11
REMARK    6  A    between atoms: C_12  and  C_13
REMARK                            x       y       z     vdW  Elec       q    Type
REMARK                         _______ _______ _______ _____ _____    ______ ____
ROOT
ATOM      1  C   LIG A   1     -11.054   7.990 128.815  0.00  0.00    +0.162 A 
ATOM      2  C   LIG A   1     -12.341   7.989 129.383  0.00  0.00    +0.162 A 
ATOM      3  C   LIG A   1     -12.515   7.414 130.645  0.00  0.00    +0.050 A 
ATOM      4  C   LIG A   1     -11.435   6.863 131.337  0.00  0.00    +0.012 A 
ATOM      5  C   LIG A   1     -10.147   6.908 130.811  0.00  0.00    -0.022 A 
ATOM      6  C   LIG A   1      -9.966   7.468 129.540  0.00  0.00    +0.057 A 
ENDROOT
BRANCH   5   7
ATOM      7  C   LIG A   1      -9.005   6.335 131.545  0.00  0.00    +0.003 C 
ATOM      8  C   LIG A   1      -7.734   6.701 131.316  0.00  0.00    -0.030 C 
ATOM      9  C   LIG A   1      -6.547   6.171 132.046  0.00  0.00    +0.035 C 
ENDBRANCH   5   7
BRANCH   1  10
ATOM     10  O   LIG A   1     -10.697   8.502 127.592  0.00  0.00    -0.491 OA
ATOM     11  C   LIG A   1     -10.868   7.639 126.472  0.00  0.00    +0.277 C 
ENDBRANCH   1  10
BRANCH   2  12
ATOM     12  O   LIG A   1     -13.372   8.564 128.683  0.00  0.00    -0.491 OA
ATOM     13  C   LIG A   1     -13.562   9.965 128.846  0.00  0.00    +0.277 C 
ENDBRANCH   2  12
TORSDOF 3
ENDMDL
MODEL 3
REMARK VINA RESULT:      -5.2      1.526      2.533
REMARK  Name = NuBBE_1984
REMARK  6 active torsions:
REMARK  status: ('A' for Active; 'I' for Inactive)
REMARK    1  A    between atoms: O_1  and  C_2
REMARK    2  A    between atoms: O_1  and  C_3
REMARK    3  A    between atoms: C_4  and  O_5
REMARK    4  A    between atoms: O_5  and  C_6
REMARK    5  A    between atoms: C_9  and  C_11
REMARK    6  A    between atoms: C_12  and  C_13
REMARK                            x       y       z     vdW  Elec       q    Type
REMARK                         _______ _______ _______ _____ _____    ______ ____
ROOT
ATOM      1  C   LIG A   1      -7.756  -0.180 124.455  0.00  0.00    +0.162 A 
ATOM      2  C   LIG A   1      -8.957  -0.689 123.930  0.00  0.00    +0.162 A 
ATOM      3  C   LIG A   1      -9.008  -2.038 123.565  0.00  0.00    +0.050 A 
ATOM      4  C   LIG A   1      -7.898  -2.868 123.729  0.00  0.00    +0.012 A 
ATOM      5  C   LIG A   1      -6.722  -2.390 124.299  0.00  0.00    -0.022 A 
ATOM      6  C   LIG A   1      -6.656  -1.036 124.653  0.00  0.00    +0.057 A 
ENDROOT
BRANCH   5   7
ATOM      7  C   LIG A   1      -5.553  -3.268 124.481  0.00  0.00    +0.003 C 
ATOM      8  C   LIG A   1      -4.911  -3.850 123.455  0.00  0.00    -0.030 C 
ATOM      9  C   LIG A   1      -3.711  -4.725 123.583  0.00  0.00    +0.035 C 
ENDBRANCH   5   7
BRANCH   1  10
ATOM     10  O   LIG A   1      -7.519   1.111 124.861  0.00  0.00    -0.491 OA
ATOM     11  C   LIG A   1      -6.900   1.968 123.908  0.00  0.00    +0.277 C 
ENDBRANCH   1  10
BRANCH   2  12
ATOM     12  O   LIG A   1     -10.034   0.152 123.810  0.00  0.00    -0.491 OA
ATOM     13  C   LIG A   1     -10.233   0.770 122.544  0.00  0.00    +0.277 C 
ENDBRANCH   2  12
TORSDOF 3
ENDMDL
MODEL 4
REMARK VINA RESULT:      -5.2      5.650      7.601
REMARK  Name = NuBBE_1984
REMARK  6 active torsions:
REMARK  status: ('A' for Active; 'I' for Inactive)
REMARK    1  A    between atoms: O_1  and  C_2
REMARK    2  A    between atoms: O_1  and  C_3
REMARK    3  A    between atoms: C_4  and  O_5
REMARK    4  A    between atoms: O_5  and  C_6
REMARK    5  A    between atoms: C_9  and  C_11
REMARK    6  A    between atoms: C_12  and  C_13
REMARK                            x       y       z     vdW  Elec       q    Type
REMARK                         _______ _______ _______ _____ _____    ______ ____
ROOT
ATOM      1  C   LIG A   1      -6.193   3.936 120.670  0.00  0.00    +0.162 A 
ATOM      2  C   LIG A   1      -7.037   4.288 119.601  0.00  0.00    +0.162 A 
ATOM      3  C   LIG A   1      -8.413   4.091 119.743  0.00  0.00    +0.050 A 
ATOM      4  C   LIG A   1      -8.946   3.567 120.922  0.00  0.00    +0.012 A 
ATOM      5  C   LIG A   1      -8.127   3.266 122.007  0.00  0.00    -0.022 A 
ATOM      6  C   LIG A   1      -6.745   3.447 121.869  0.00  0.00    +0.057 A 
ENDROOT
BRANCH   5   7
ATOM      7  C   LIG A   1      -8.689   2.722 123.257  0.00  0.00    +0.003 C 
ATOM      8  C   LIG A   1      -9.600   1.736 123.278  0.00  0.00    -0.030 C 
ATOM      9  C   LIG A   1     -10.180   1.135 124.513  0.00  0.00    +0.035 C 
ENDBRANCH   5   7
BRANCH   1  10
ATOM     10  O   LIG A   1      -4.826   4.054 120.710  0.00  0.00    -0.491 OA
ATOM     11  C   LIG A   1      -4.291   4.844 121.767  0.00  0.00    +0.277 C 
ENDBRANCH   1  10
BRANCH   2  12
ATOM     12  O   LIG A   1      -6.479   4.825 118.469  0.00  0.00    -0.491 OA
ATOM     13  C   LIG A   1      -5.967   6.150 118.565  0.00  0.00    +0.277 C 
ENDBRANCH   2  12
TORSDOF 3
ENDMDL
MODEL 5
REMARK VINA RESULT:      -5.2      1.580      2.285
REMARK  Name = NuBBE_1984
REMARK  6 active torsions:
REMARK  status: ('A' for Active; 'I' for Inactive)
REMARK    1  A    between atoms: O_1  and  C_2
REMARK    2  A    between atoms: O_1  and  C_3
REMARK    3  A    between atoms: C_4  and  O_5
REMARK    4  A    between atoms: O_5  and  C_6
REMARK    5  A    between atoms: C_9  and  C_11
REMARK    6  A    between atoms: C_12  and  C_13
REMARK                            x       y       z     vdW  Elec       q    Type
REMARK                         _______ _______ _______ _____ _____    ______ ____
ROOT
ATOM      1  C   LIG A   1      -8.589  -0.325 124.174  0.00  0.00    +0.162 A 
ATOM      2  C   LIG A   1      -7.810   0.659 124.809  0.00  0.00    +0.162 A 
ATOM      3  C   LIG A   1      -6.497   0.342 125.169  0.00  0.00    +0.050 A 
ATOM      4  C   LIG A   1      -5.962  -0.918 124.895  0.00  0.00    +0.012 A 
ATOM      5  C   LIG A   1      -6.704  -1.881 124.218  0.00  0.00    -0.022 A 
ATOM      6  C   LIG A   1      -8.026  -1.578 123.866  0.00  0.00    +0.057 A 
ENDROOT
BRANCH   5   7
ATOM      7  C   LIG A   1      -6.137  -3.208 123.920  0.00  0.00    +0.003 C 
ATOM      8  C   LIG A   1      -4.822  -3.418 123.749  0.00  0.00    -0.030 C 
ATOM      9  C   LIG A   1      -4.197  -4.742 123.471  0.00  0.00    +0.035 C 
ENDBRANCH   5   7
BRANCH   1  10
ATOM     10  O   LIG A   1      -9.891  -0.197 123.755  0.00  0.00    -0.491 OA
ATOM     11  C   LIG A   1     -10.084   0.324 122.444  0.00  0.00    +0.277 C 
ENDBRANCH   1  10
BRANCH   2  12
ATOM     12  O   LIG A   1      -8.362   1.894 125.037  0.00  0.00    -0.491 OA
ATOM     13  C   LIG A   1      -7.985   2.944 124.153  0.00  0.00    +0.277 C 
ENDBRANCH   2  12
TORSDOF 3
ENDMDL
MODEL 6
REMARK VINA RESULT:      -5.1     10.586     11.399
REMARK  Name = NuBBE_1984
REMARK  6 active torsions:
REMARK  status: ('A' for Active; 'I' for Inactive)
REMARK    1  A    between atoms: O_1  and  C_2
REMARK    2  A    between atoms: O_1  and  C_3
REMARK    3  A    between atoms: C_4  and  O_5
REMARK    4  A    between atoms: O_5  and  C_6
REMARK    5  A    between atoms: C_9  and  C_11
REMARK    6  A    between atoms: C_12  and  C_13
REMARK                            x       y       z     vdW  Elec       q    Type
REMARK                         _______ _______ _______ _____ _____    ______ ____
ROOT
ATOM      1  C   LIG A   1     -10.029   7.310 130.054  0.00  0.00    +0.162 A 
ATOM      2  C   LIG A   1     -10.960   6.705 130.917  0.00  0.00    +0.162 A 
ATOM      3  C   LIG A   1     -10.483   6.014 132.035  0.00  0.00    +0.050 A 
ATOM      4  C   LIG A   1      -9.115   5.934 132.301  0.00  0.00    +0.012 A 
ATOM      5  C   LIG A   1      -8.188   6.576 131.484  0.00  0.00    -0.022 A 
ATOM      6  C   LIG A   1      -8.655   7.257 130.353  0.00  0.00    +0.057 A 
ENDROOT
BRANCH   5   7
ATOM      7  C   LIG A   1      -6.744   6.500 131.769  0.00  0.00    +0.003 C 
ATOM      8  C   LIG A   1      -5.812   7.013 130.950  0.00  0.00    -0.030 C 
ATOM      9  C   LIG A   1      -4.343   6.985 131.203  0.00  0.00    +0.035 C 
ENDBRANCH   5   7
BRANCH   1  10
ATOM     10  O   LIG A   1     -10.309   8.021 128.912  0.00  0.00    -0.491 OA
ATOM     11  C   LIG A   1     -10.538   7.256 127.733  0.00  0.00    +0.277 C 
ENDBRANCH   1  10
BRANCH   2  12
ATOM     12  O   LIG A   1     -12.297   6.828 130.638  0.00  0.00    -0.491 OA
ATOM     13  C   LIG A   1     -13.055   7.698 131.471  0.00  0.00    +0.277 C 
ENDBRANCH   2  12
TORSDOF 3
ENDMDL
MODEL 7
REMARK VINA RESULT:      -5.1      2.935      5.028
REMARK  Name = NuBBE_1984
REMARK  6 active torsions:
REMARK  status: ('A' for Active; 'I' for Inactive)
REMARK    1  A    between atoms: O_1  and  C_2
REMARK    2  A    between atoms: O_1  and  C_3
REMARK    3  A    between atoms: C_4  and  O_5
REMARK    4  A    between atoms: O_5  and  C_6
REMARK    5  A    between atoms: C_9  and  C_11
REMARK    6  A    between atoms: C_12  and  C_13
REMARK                            x       y       z     vdW  Elec       q    Type
REMARK                         _______ _______ _______ _____ _____    ______ ____
ROOT
ATOM      1  C   LIG A   1      -8.041  -1.547 126.650  0.00  0.00    +0.162 A 
ATOM      2  C   LIG A   1      -8.966  -2.431 126.067  0.00  0.00    +0.162 A 
ATOM      3  C   LIG A   1      -9.320  -3.587 126.768  0.00  0.00    +0.050 A 
ATOM      4  C   LIG A   1      -8.778  -3.857 128.026  0.00  0.00    +0.012 A 
ATOM      5  C   LIG A   1      -7.904  -2.963 128.638  0.00  0.00    -0.022 A 
ATOM      6  C   LIG A   1      -7.533  -1.809 127.936  0.00  0.00    +0.057 A 
ENDROOT
BRANCH   5   7
ATOM      7  C   LIG A   1      -7.340  -3.242 129.970  0.00  0.00    +0.003 C 
ATOM      8  C   LIG A   1      -6.318  -4.091 130.166  0.00  0.00    -0.030 C 
ATOM      9  C   LIG A   1      -5.696  -4.389 131.488  0.00  0.00    +0.035 C 
ENDBRANCH   5   7
BRANCH   1  10
ATOM     10  O   LIG A   1      -7.575  -0.373 126.110  0.00  0.00    -0.491 OA
ATOM     11  C   LIG A   1      -6.356  -0.455 125.379  0.00  0.00    +0.277 C 
ENDBRANCH   1  10
BRANCH   2  12
ATOM     12  O   LIG A   1      -9.497  -2.118 124.840  0.00  0.00    -0.491 OA
ATOM     13  C   LIG A   1      -9.258  -3.036 123.779  0.00  0.00    +0.277 C 
ENDBRANCH   2  12
TORSDOF 3
ENDMDL
MODEL 8
REMARK VINA RESULT:      -4.9     10.340     11.672
REMARK  Name = NuBBE_1984
REMARK  6 active torsions:
REMARK  status: ('A' for Active; 'I' for Inactive)
REMARK    1  A    between atoms: O_1  and  C_2
REMARK    2  A    between atoms: O_1  and  C_3
REMARK    3  A    between atoms: C_4  and  O_5
REMARK    4  A    between atoms: O_5  and  C_6
REMARK    5  A    between atoms: C_9  and  C_11
REMARK    6  A    between atoms: C_12  and  C_13
REMARK                            x       y       z     vdW  Elec       q    Type
REMARK                         _______ _______ _______ _____ _____    ______ ____
ROOT
ATOM      1  C   LIG A   1      -8.240   6.492 131.702  0.00  0.00    +0.162 A 
ATOM      2  C   LIG A   1      -9.162   5.954 132.618  0.00  0.00    +0.162 A 
ATOM      3  C   LIG A   1     -10.526   6.068 132.338  0.00  0.00    +0.050 A 
ATOM      4  C   LIG A   1     -10.970   6.689 131.169  0.00  0.00    +0.012 A 
ATOM      5  C   LIG A   1     -10.066   7.175 130.228  0.00  0.00    -0.022 A 
ATOM      6  C   LIG A   1      -8.697   7.080 130.507  0.00  0.00    +0.057 A 
ENDROOT
BRANCH   5   7
ATOM      7  C   LIG A   1     -10.533   7.822 128.989  0.00  0.00    +0.003 C 
ATOM      8  C   LIG A   1     -10.562   7.193 127.804  0.00  0.00    -0.030 C 
ATOM      9  C   LIG A   1     -11.047   7.794 126.528  0.00  0.00    +0.035 C 
ENDBRANCH   5   7
BRANCH   1  10
ATOM     10  O   LIG A   1      -6.871   6.479 131.811  0.00  0.00    -0.491 OA
ATOM     11  C   LIG A   1      -6.186   5.487 131.052  0.00  0.00    +0.277 C 
ENDBRANCH   1  10
BRANCH   2  12
ATOM     12  O   LIG A   1      -8.687   5.328 133.742  0.00  0.00    -0.491 OA
ATOM     13  C   LIG A   1      -8.975   3.941 133.881  0.00  0.00    +0.277 C 
ENDBRANCH   2  12
TORSDOF 3
ENDMDL
MODEL 9
REMARK VINA RESULT:      -4.8      2.771      4.172
REMARK  Name = NuBBE_1984
REMARK  6 active torsions:
REMARK  status: ('A' for Active; 'I' for Inactive)
REMARK    1  A    between atoms: O_1  and  C_2
REMARK    2  A    between atoms: O_1  and  C_3
REMARK    3  A    between atoms: C_4  and  O_5
REMARK    4  A    between atoms: O_5  and  C_6
REMARK    5  A    between atoms: C_9  and  C_11
REMARK    6  A    between atoms: C_12  and  C_13
REMARK                            x       y       z     vdW  Elec       q    Type
REMARK                         _______ _______ _______ _____ _____    ______ ____
ROOT
ATOM      1  C   LIG A   1      -8.325  -0.790 125.026  0.00  0.00    +0.162 A 
ATOM      2  C   LIG A   1      -8.773  -1.569 123.943  0.00  0.00    +0.162 A 
ATOM      3  C   LIG A   1      -9.095  -2.909 124.172  0.00  0.00    +0.050 A 
ATOM      4  C   LIG A   1      -8.989  -3.466 125.448  0.00  0.00    +0.012 A 
ATOM      5  C   LIG A   1      -8.601  -2.692 126.538  0.00  0.00    -0.022 A 
ATOM      6  C   LIG A   1      -8.261  -1.351 126.316  0.00  0.00    +0.057 A 
ENDROOT
BRANCH   5   7
ATOM      7  C   LIG A   1      -8.497  -3.275 127.887  0.00  0.00    +0.003 C 
ATOM      8  C   LIG A   1      -7.812  -2.691 128.883  0.00  0.00    -0.030 C 
ATOM      9  C   LIG A   1      -7.697  -3.227 130.270  0.00  0.00    +0.035 C 
ENDBRANCH   5   7
BRANCH   1  10
ATOM     10  O   LIG A   1      -7.962   0.534 124.990  0.00  0.00    -0.491 OA
ATOM     11  C   LIG A   1      -8.809   1.440 125.689  0.00  0.00    +0.277 C 
ENDBRANCH   1  10
BRANCH   2  12
ATOM     12  O   LIG A   1      -8.890  -0.980 122.710  0.00  0.00    -0.491 OA
ATOM     13  C   LIG A   1     -10.088  -0.259 122.448  0.00  0.00    +0.277 C 
ENDBRANCH   2  12
TORSDOF 3
ENDMDL
