MODEL 1
REMARK VINA RESULT:      -6.9      0.000      0.000
REMARK  Name = NuBBE_2343
REMARK  13 active torsions:
REMARK  status: ('A' for Active; 'I' for Inactive)
REMARK    1  A    between atoms: C_1  and  O_2
REMARK    2  A    between atoms: O_2  and  C_3
REMARK    3  A    between atoms: C_4  and  O_5
REMARK    4  A    between atoms: O_5  and  C_6
REMARK    5  A    between atoms: C_7  and  O_8
REMARK    6  A    between atoms: O_8  and  C_9
REMARK    7  A    between atoms: C_11  and  C_12
REMARK    8  A    between atoms: C_16  and  C_17
REMARK    9  A    between atoms: C_17  and  C_18
REMARK   10  A    between atoms: C_20  and  O_21
REMARK   11  A    between atoms: C_22  and  O_23
REMARK   12  A    between atoms: O_23  and  C_24
REMARK   13  A    between atoms: C_27  and  C_29
REMARK                            x       y       z     vdW  Elec       q    Type
REMARK                         _______ _______ _______ _____ _____    ______ ____
ROOT
ATOM      1  C   LIG A   1      -5.607  -0.037 126.806  0.00  0.00    +0.211 C 
ATOM      2  O   LIG A   1      -5.252  -0.857 125.684  0.00  0.00    -0.483 OA
ATOM      3  C   LIG A   1      -6.322  -0.820 124.828  0.00  0.00    +0.132 A 
ATOM      4  C   LIG A   1      -6.416  -1.612 123.696  0.00  0.00    +0.043 A 
ATOM      5  C   LIG A   1      -7.661  -1.578 123.040  0.00  0.00    +0.166 A 
ATOM      6  C   LIG A   1      -8.692  -0.700 123.450  0.00  0.00    +0.162 A 
ATOM      7  C   LIG A   1      -8.479   0.170 124.529  0.00  0.00    +0.057 A 
ATOM      8  C   LIG A   1      -7.290   0.088 125.223  0.00  0.00    +0.005 A 
ATOM      9  C   LIG A   1      -6.800   0.859 126.400  0.00  0.00    +0.065 C 
ATOM     10  C   LIG A   1      -6.336   2.263 126.012  0.00  0.00    +0.016 C 
ENDROOT
BRANCH   1  15
ATOM     11  C   LIG A   1      -5.281  -2.911 129.258  0.00  0.00    +0.166 A 
ATOM     12  C   LIG A   1      -6.364  -2.677 130.155  0.00  0.00    +0.203 A 
ATOM     13  C   LIG A   1      -7.227  -1.590 129.908  0.00  0.00    +0.166 A 
ATOM     14  C   LIG A   1      -6.976  -0.765 128.815  0.00  0.00    +0.057 A 
ATOM     15  C   LIG A   1      -5.902  -0.973 127.951  0.00  0.00    +0.000 A 
ATOM     16  C   LIG A   1      -5.080  -2.063 128.166  0.00  0.00    +0.057 A 
BRANCH  11  18
ATOM     17  C   LIG A   1      -3.015  -3.651 129.242  0.00  0.00    +0.277 C 
ATOM     18  O   LIG A   1      -4.390  -3.929 129.523  0.00  0.00    -0.491 OA
ENDBRANCH  11  18
BRANCH  12  19
ATOM     19  O   LIG A   1      -6.460  -3.551 131.216  0.00  0.00    -0.488 OA
ATOM     20  C   LIG A   1      -5.945  -3.141 132.479  0.00  0.00    +0.277 C 
ENDBRANCH  12  19
BRANCH  13  21
ATOM     21  O   LIG A   1      -8.333  -1.358 130.688  0.00  0.00    -0.491 OA
ATOM     22  C   LIG A   1      -8.244  -0.262 131.599  0.00  0.00    +0.277 C 
ENDBRANCH  13  21
ENDBRANCH   1  15
BRANCH   5  23
ATOM     23  O   LIG A   1      -7.852  -2.412 121.972  0.00  0.00    -0.503 OA
ATOM     24  H   LIG A   1      -8.694  -2.874 122.134  0.00  0.00    +0.292 HD
ENDBRANCH   5  23
BRANCH   6  25
ATOM     25  O   LIG A   1      -9.929  -0.557 122.874  0.00  0.00    -0.491 OA
ATOM     26  C   LIG A   1     -10.319   0.754 122.489  0.00  0.00    +0.277 C 
ENDBRANCH   6  25
BRANCH   4  27
ATOM     27  C   LIG A   1      -5.287  -2.509 123.228  0.00  0.00    +0.069 C 
BRANCH  27  28
ATOM     28  C   LIG A   1      -5.047  -3.848 123.937  0.00  0.00    -0.030 C 
ATOM     29  C   LIG A   1      -4.352  -4.906 123.564  0.00  0.00    +0.004 C 
ENDBRANCH  27  28
ENDBRANCH   4  27
TORSDOF 8
ENDMDL
MODEL 2
REMARK VINA RESULT:      -6.9      0.242      2.412
REMARK  Name = NuBBE_2343
REMARK  13 active torsions:
REMARK  status: ('A' for Active; 'I' for Inactive)
REMARK    1  A    between atoms: C_1  and  O_2
REMARK    2  A    between atoms: O_2  and  C_3
REMARK    3  A    between atoms: C_4  and  O_5
REMARK    4  A    between atoms: O_5  and  C_6
REMARK    5  A    between atoms: C_7  and  O_8
REMARK    6  A    between atoms: O_8  and  C_9
REMARK    7  A    between atoms: C_11  and  C_12
REMARK    8  A    between atoms: C_16  and  C_17
REMARK    9  A    between atoms: C_17  and  C_18
REMARK   10  A    between atoms: C_20  and  O_21
REMARK   11  A    between atoms: C_22  and  O_23
REMARK   12  A    between atoms: O_23  and  C_24
REMARK   13  A    between atoms: C_27  and  C_29
REMARK                            x       y       z     vdW  Elec       q    Type
REMARK                         _______ _______ _______ _____ _____    ______ ____
ROOT
ATOM      1  C   LIG A   1      -5.496   0.091 126.706  0.00  0.00    +0.211 C 
ATOM      2  O   LIG A   1      -5.184  -0.771 125.603  0.00  0.00    -0.483 OA
ATOM      3  C   LIG A   1      -6.280  -0.752 124.780  0.00  0.00    +0.132 A 
ATOM      4  C   LIG A   1      -6.417  -1.581 123.679  0.00  0.00    +0.043 A 
ATOM      5  C   LIG A   1      -7.682  -1.555 123.061  0.00  0.00    +0.166 A 
ATOM      6  C   LIG A   1      -8.691  -0.653 123.471  0.00  0.00    +0.162 A 
ATOM      7  C   LIG A   1      -8.435   0.252 124.512  0.00  0.00    +0.057 A 
ATOM      8  C   LIG A   1      -7.225   0.180 125.172  0.00  0.00    +0.005 A 
ATOM      9  C   LIG A   1      -6.692   0.986 126.305  0.00  0.00    +0.065 C 
ATOM     10  C   LIG A   1      -6.225   2.371 125.855  0.00  0.00    +0.016 C 
ENDROOT
BRANCH   1  15
ATOM     11  C   LIG A   1      -7.134  -1.344 129.810  0.00  0.00    +0.166 A 
ATOM     12  C   LIG A   1      -6.359  -2.516 130.055  0.00  0.00    +0.203 A 
ATOM     13  C   LIG A   1      -5.264  -2.794 129.212  0.00  0.00    +0.166 A 
ATOM     14  C   LIG A   1      -4.993  -1.933 128.152  0.00  0.00    +0.057 A 
ATOM     15  C   LIG A   1      -5.764  -0.801 127.892  0.00  0.00    +0.000 A 
ATOM     16  C   LIG A   1      -6.812  -0.503 128.742  0.00  0.00    +0.057 A 
BRANCH  11  18
ATOM     17  C   LIG A   1      -8.485   0.275 130.919  0.00  0.00    +0.277 C 
ATOM     18  O   LIG A   1      -8.247  -1.095 130.583  0.00  0.00    -0.491 OA
ENDBRANCH  11  18
BRANCH  12  19
ATOM     19  O   LIG A   1      -6.774  -3.295 131.114  0.00  0.00    -0.488 OA
ATOM     20  C   LIG A   1      -6.107  -3.148 132.364  0.00  0.00    +0.277 C 
ENDBRANCH  12  19
BRANCH  13  21
ATOM     21  O   LIG A   1      -4.432  -3.863 129.442  0.00  0.00    -0.491 OA
ATOM     22  C   LIG A   1      -3.034  -3.617 129.295  0.00  0.00    +0.277 C 
ENDBRANCH  13  21
ENDBRANCH   1  15
BRANCH   5  23
ATOM     23  O   LIG A   1      -7.914  -2.424 122.029  0.00  0.00    -0.503 OA
ATOM     24  H   LIG A   1      -8.579  -1.998 121.459  0.00  0.00    +0.292 HD
ENDBRANCH   5  23
BRANCH   6  25
ATOM     25  O   LIG A   1      -9.943  -0.515 122.929  0.00  0.00    -0.491 OA
ATOM     26  C   LIG A   1     -10.333   0.787 122.513  0.00  0.00    +0.277 C 
ENDBRANCH   6  25
BRANCH   4  27
ATOM     27  C   LIG A   1      -5.313  -2.506 123.208  0.00  0.00    +0.069 C 
BRANCH  27  28
ATOM     28  C   LIG A   1      -5.106  -3.852 123.916  0.00  0.00    -0.030 C 
ATOM     29  C   LIG A   1      -4.363  -4.892 123.587  0.00  0.00    +0.004 C 
ENDBRANCH  27  28
ENDBRANCH   4  27
TORSDOF 8
ENDMDL
MODEL 3
REMARK VINA RESULT:      -6.8      2.698      4.094
REMARK  Name = NuBBE_2343
REMARK  13 active torsions:
REMARK  status: ('A' for Active; 'I' for Inactive)
REMARK    1  A    between atoms: C_1  and  O_2
REMARK    2  A    between atoms: O_2  and  C_3
REMARK    3  A    between atoms: C_4  and  O_5
REMARK    4  A    between atoms: O_5  and  C_6
REMARK    5  A    between atoms: C_7  and  O_8
REMARK    6  A    between atoms: O_8  and  C_9
REMARK    7  A    between atoms: C_11  and  C_12
REMARK    8  A    between atoms: C_16  and  C_17
REMARK    9  A    between atoms: C_17  and  C_18
REMARK   10  A    between atoms: C_20  and  O_21
REMARK   11  A    between atoms: C_22  and  O_23
REMARK   12  A    between atoms: O_23  and  C_24
REMARK   13  A    between atoms: C_27  and  C_29
REMARK                            x       y       z     vdW  Elec       q    Type
REMARK                         _______ _______ _______ _____ _____    ______ ____
ROOT
ATOM      1  C   LIG A   1      -6.665   0.219 127.800  0.00  0.00    +0.211 C 
ATOM      2  O   LIG A   1      -7.023  -1.146 127.547  0.00  0.00    -0.483 OA
ATOM      3  C   LIG A   1      -7.687  -1.151 126.348  0.00  0.00    +0.132 A 
ATOM      4  C   LIG A   1      -8.322  -2.271 125.836  0.00  0.00    +0.043 A 
ATOM      5  C   LIG A   1      -9.108  -2.045 124.690  0.00  0.00    +0.166 A 
ATOM      6  C   LIG A   1      -9.139  -0.785 124.047  0.00  0.00    +0.162 A 
ATOM      7  C   LIG A   1      -8.365   0.272 124.547  0.00  0.00    +0.057 A 
ATOM      8  C   LIG A   1      -7.654   0.080 125.714  0.00  0.00    +0.005 A 
ATOM      9  C   LIG A   1      -6.773   1.009 126.476  0.00  0.00    +0.065 C 
ATOM     10  C   LIG A   1      -5.406   1.176 125.812  0.00  0.00    +0.016 C 
ENDROOT
BRANCH   1  15
ATOM     11  C   LIG A   1      -8.589   0.382 131.063  0.00  0.00    +0.166 A 
ATOM     12  C   LIG A   1      -9.207   1.666 130.995  0.00  0.00    +0.203 A 
ATOM     13  C   LIG A   1      -9.017   2.449 129.838  0.00  0.00    +0.166 A 
ATOM     14  C   LIG A   1      -8.211   1.956 128.815  0.00  0.00    +0.057 A 
ATOM     15  C   LIG A   1      -7.582   0.714 128.890  0.00  0.00    +0.000 A 
ATOM     16  C   LIG A   1      -7.802  -0.074 130.003  0.00  0.00    +0.057 A 
BRANCH  11  18
ATOM     17  C   LIG A   1      -7.713  -1.372 132.418  0.00  0.00    +0.277 C 
ATOM     18  O   LIG A   1      -8.710  -0.367 132.214  0.00  0.00    -0.491 OA
ENDBRANCH  11  18
BRANCH  12  19
ATOM     19  O   LIG A   1      -9.939   2.035 132.102  0.00  0.00    -0.488 OA
ATOM     20  C   LIG A   1      -9.312   2.851 133.087  0.00  0.00    +0.277 C 
ENDBRANCH  12  19
BRANCH  13  21
ATOM     21  O   LIG A   1      -9.647   3.658 129.678  0.00  0.00    -0.491 OA
ATOM     22  C   LIG A   1      -8.799   4.800 129.550  0.00  0.00    +0.277 C 
ENDBRANCH  13  21
ENDBRANCH   1  15
BRANCH   5  23
ATOM     23  O   LIG A   1      -9.840  -3.089 124.192  0.00  0.00    -0.503 OA
ATOM     24  H   LIG A   1     -10.532  -3.275 124.852  0.00  0.00    +0.292 HD
ENDBRANCH   5  23
BRANCH   6  25
ATOM     25  O   LIG A   1      -9.838  -0.456 122.914  0.00  0.00    -0.491 OA
ATOM     26  C   LIG A   1     -10.155   0.916 122.721  0.00  0.00    +0.277 C 
ENDBRANCH   6  25
BRANCH   4  27
ATOM     27  C   LIG A   1      -8.240  -3.632 126.497  0.00  0.00    +0.069 C 
BRANCH  27  28
ATOM     28  C   LIG A   1      -8.997  -3.878 127.810  0.00  0.00    -0.030 C 
ATOM     29  C   LIG A   1      -8.670  -3.595 129.056  0.00  0.00    +0.004 C 
ENDBRANCH  27  28
ENDBRANCH   4  27
TORSDOF 8
ENDMDL
MODEL 4
REMARK VINA RESULT:      -6.5      3.037      5.605
REMARK  Name = NuBBE_2343
REMARK  13 active torsions:
REMARK  status: ('A' for Active; 'I' for Inactive)
REMARK    1  A    between atoms: C_1  and  O_2
REMARK    2  A    between atoms: O_2  and  C_3
REMARK    3  A    between atoms: C_4  and  O_5
REMARK    4  A    between atoms: O_5  and  C_6
REMARK    5  A    between atoms: C_7  and  O_8
REMARK    6  A    between atoms: O_8  and  C_9
REMARK    7  A    between atoms: C_11  and  C_12
REMARK    8  A    between atoms: C_16  and  C_17
REMARK    9  A    between atoms: C_17  and  C_18
REMARK   10  A    between atoms: C_20  and  O_21
REMARK   11  A    between atoms: C_22  and  O_23
REMARK   12  A    between atoms: O_23  and  C_24
REMARK   13  A    between atoms: C_27  and  C_29
REMARK                            x       y       z     vdW  Elec       q    Type
REMARK                         _______ _______ _______ _____ _____    ______ ____
ROOT
ATOM      1  C   LIG A   1      -5.081   0.742 126.911  0.00  0.00    +0.211 C 
ATOM      2  O   LIG A   1      -5.086   1.744 125.885  0.00  0.00    -0.483 OA
ATOM      3  C   LIG A   1      -5.945   2.723 126.310  0.00  0.00    +0.132 A 
ATOM      4  C   LIG A   1      -6.328   3.793 125.518  0.00  0.00    +0.043 A 
ATOM      5  C   LIG A   1      -7.356   4.596 126.048  0.00  0.00    +0.166 A 
ATOM      6  C   LIG A   1      -7.866   4.385 127.350  0.00  0.00    +0.162 A 
ATOM      7  C   LIG A   1      -7.337   3.361 128.149  0.00  0.00    +0.057 A 
ATOM      8  C   LIG A   1      -6.384   2.522 127.608  0.00  0.00    +0.005 A 
ATOM      9  C   LIG A   1      -5.667   1.360 128.202  0.00  0.00    +0.065 C 
ATOM     10  C   LIG A   1      -4.561   1.798 129.163  0.00  0.00    +0.016 C 
ENDROOT
BRANCH   1  15
ATOM     11  C   LIG A   1      -6.248  -2.040 124.614  0.00  0.00    +0.166 A 
ATOM     12  C   LIG A   1      -7.245  -2.692 125.399  0.00  0.00    +0.203 A 
ATOM     13  C   LIG A   1      -7.557  -2.169 126.670  0.00  0.00    +0.166 A 
ATOM     14  C   LIG A   1      -6.862  -1.053 127.129  0.00  0.00    +0.057 A 
ATOM     15  C   LIG A   1      -5.867  -0.429 126.378  0.00  0.00    +0.000 A 
ATOM     16  C   LIG A   1      -5.590  -0.914 125.114  0.00  0.00    +0.057 A 
BRANCH  11  18
ATOM     17  C   LIG A   1      -4.660  -3.318 123.379  0.00  0.00    +0.277 C 
ATOM     18  O   LIG A   1      -5.884  -2.578 123.399  0.00  0.00    -0.491 OA
ENDBRANCH  11  18
BRANCH  12  19
ATOM     19  O   LIG A   1      -7.815  -3.810 124.830  0.00  0.00    -0.488 OA
ATOM     20  C   LIG A   1      -9.020  -3.651 124.088  0.00  0.00    +0.277 C 
ENDBRANCH  12  19
BRANCH  13  21
ATOM     21  O   LIG A   1      -8.561  -2.702 127.440  0.00  0.00    -0.491 OA
ATOM     22  C   LIG A   1      -8.206  -3.071 128.773  0.00  0.00    +0.277 C 
ENDBRANCH  13  21
ENDBRANCH   1  15
BRANCH   5  23
ATOM     23  O   LIG A   1      -7.849   5.610 125.272  0.00  0.00    -0.503 OA
ATOM     24  H   LIG A   1      -8.009   6.359 125.873  0.00  0.00    +0.292 HD
ENDBRANCH   5  23
BRANCH   6  25
ATOM     25  O   LIG A   1      -8.839   5.116 127.982  0.00  0.00    -0.491 OA
ATOM     26  C   LIG A   1      -8.879   5.057 129.402  0.00  0.00    +0.277 C 
ENDBRANCH   6  25
BRANCH   4  27
ATOM     27  C   LIG A   1      -5.739   4.048 124.145  0.00  0.00    +0.069 C 
BRANCH  27  28
ATOM     28  C   LIG A   1      -6.327   3.323 122.927  0.00  0.00    -0.030 C 
ATOM     29  C   LIG A   1      -7.579   3.076 122.595  0.00  0.00    +0.004 C 
ENDBRANCH  27  28
ENDBRANCH   4  27
TORSDOF 8
ENDMDL
MODEL 5
REMARK VINA RESULT:      -6.4      6.656      9.464
REMARK  Name = NuBBE_2343
REMARK  13 active torsions:
REMARK  status: ('A' for Active; 'I' for Inactive)
REMARK    1  A    between atoms: C_1  and  O_2
REMARK    2  A    between atoms: O_2  and  C_3
REMARK    3  A    between atoms: C_4  and  O_5
REMARK    4  A    between atoms: O_5  and  C_6
REMARK    5  A    between atoms: C_7  and  O_8
REMARK    6  A    between atoms: O_8  and  C_9
REMARK    7  A    between atoms: C_11  and  C_12
REMARK    8  A    between atoms: C_16  and  C_17
REMARK    9  A    between atoms: C_17  and  C_18
REMARK   10  A    between atoms: C_20  and  O_21
REMARK   11  A    between atoms: C_22  and  O_23
REMARK   12  A    between atoms: O_23  and  C_24
REMARK   13  A    between atoms: C_27  and  C_29
REMARK                            x       y       z     vdW  Elec       q    Type
REMARK                         _______ _______ _______ _____ _____    ______ ____
ROOT
ATOM      1  C   LIG A   1      -5.903   3.297 130.762  0.00  0.00    +0.211 C 
ATOM      2  O   LIG A   1      -5.339   3.628 129.486  0.00  0.00    -0.483 OA
ATOM      3  C   LIG A   1      -4.199   4.343 129.746  0.00  0.00    +0.132 A 
ATOM      4  C   LIG A   1      -3.454   4.968 128.759  0.00  0.00    +0.043 A 
ATOM      5  C   LIG A   1      -2.424   5.809 129.225  0.00  0.00    +0.166 A 
ATOM      6  C   LIG A   1      -2.108   5.903 130.600  0.00  0.00    +0.162 A 
ATOM      7  C   LIG A   1      -2.823   5.139 131.534  0.00  0.00    +0.057 A 
ATOM      8  C   LIG A   1      -3.882   4.372 131.093  0.00  0.00    +0.005 A 
ATOM      9  C   LIG A   1      -4.815   3.486 131.844  0.00  0.00    +0.065 C 
ATOM     10  C   LIG A   1      -4.164   2.154 132.218  0.00  0.00    +0.016 C 
ENDROOT
BRANCH   1  15
ATOM     11  C   LIG A   1      -8.440   5.608 132.376  0.00  0.00    +0.166 A 
ATOM     12  C   LIG A   1      -9.304   5.928 131.287  0.00  0.00    +0.203 A 
ATOM     13  C   LIG A   1      -9.064   5.331 130.033  0.00  0.00    +0.166 A 
ATOM     14  C   LIG A   1      -7.976   4.473 129.891  0.00  0.00    +0.057 A 
ATOM     15  C   LIG A   1      -7.112   4.181 130.945  0.00  0.00    +0.000 A 
ATOM     16  C   LIG A   1      -7.370   4.730 132.186  0.00  0.00    +0.057 A 
BRANCH  11  18
ATOM     17  C   LIG A   1      -7.878   5.701 134.690  0.00  0.00    +0.277 C 
ATOM     18  O   LIG A   1      -8.620   6.235 133.590  0.00  0.00    -0.491 OA
ENDBRANCH  11  18
BRANCH  12  19
ATOM     19  O   LIG A   1     -10.311   6.825 131.569  0.00  0.00    -0.488 OA
ATOM     20  C   LIG A   1     -11.620   6.318 131.812  0.00  0.00    +0.277 C 
ENDBRANCH  12  19
BRANCH  13  21
ATOM     21  O   LIG A   1      -9.906   5.535 128.967  0.00  0.00    -0.491 OA
ATOM     22  C   LIG A   1     -10.017   6.880 128.500  0.00  0.00    +0.277 C 
ENDBRANCH  13  21
ENDBRANCH   1  15
BRANCH   5  23
ATOM     23  O   LIG A   1      -1.715   6.532 128.304  0.00  0.00    -0.503 OA
ATOM     24  H   LIG A   1      -1.930   6.151 127.434  0.00  0.00    +0.292 HD
ENDBRANCH   5  23
BRANCH   6  25
ATOM     25  O   LIG A   1      -1.115   6.660 131.167  0.00  0.00    -0.491 OA
ATOM     26  C   LIG A   1      -1.231   6.955 132.552  0.00  0.00    +0.277 C 
ENDBRANCH   6  25
BRANCH   4  27
ATOM     27  C   LIG A   1      -3.761   4.819 127.283  0.00  0.00    +0.069 C 
BRANCH  27  28
ATOM     28  C   LIG A   1      -3.057   3.719 126.475  0.00  0.00    -0.030 C 
ATOM     29  C   LIG A   1      -1.876   3.155 126.638  0.00  0.00    +0.004 C 
ENDBRANCH  27  28
ENDBRANCH   4  27
TORSDOF 8
ENDMDL
MODEL 6
REMARK VINA RESULT:      -6.3      3.874      5.831
REMARK  Name = NuBBE_2343
REMARK  13 active torsions:
REMARK  status: ('A' for Active; 'I' for Inactive)
REMARK    1  A    between atoms: C_1  and  O_2
REMARK    2  A    between atoms: O_2  and  C_3
REMARK    3  A    between atoms: C_4  and  O_5
REMARK    4  A    between atoms: O_5  and  C_6
REMARK    5  A    between atoms: C_7  and  O_8
REMARK    6  A    between atoms: O_8  and  C_9
REMARK    7  A    between atoms: C_11  and  C_12
REMARK    8  A    between atoms: C_16  and  C_17
REMARK    9  A    between atoms: C_17  and  C_18
REMARK   10  A    between atoms: C_20  and  O_21
REMARK   11  A    between atoms: C_22  and  O_23
REMARK   12  A    between atoms: O_23  and  C_24
REMARK   13  A    between atoms: C_27  and  C_29
REMARK                            x       y       z     vdW  Elec       q    Type
REMARK                         _______ _______ _______ _____ _____    ______ ____
ROOT
ATOM      1  C   LIG A   1      -7.130   2.488 127.724  0.00  0.00    +0.211 C 
ATOM      2  O   LIG A   1      -7.818   1.319 127.259  0.00  0.00    -0.483 OA
ATOM      3  C   LIG A   1      -8.143   1.561 125.949  0.00  0.00    +0.132 A 
ATOM      4  C   LIG A   1      -8.948   0.720 125.199  0.00  0.00    +0.043 A 
ATOM      5  C   LIG A   1      -9.326   1.218 123.937  0.00  0.00    +0.166 A 
ATOM      6  C   LIG A   1      -8.815   2.438 123.437  0.00  0.00    +0.162 A 
ATOM      7  C   LIG A   1      -7.899   3.176 124.200  0.00  0.00    +0.057 A 
ATOM      8  C   LIG A   1      -7.583   2.732 125.468  0.00  0.00    +0.005 A 
ATOM      9  C   LIG A   1      -6.670   3.308 126.495  0.00  0.00    +0.065 C 
ATOM     10  C   LIG A   1      -5.200   3.045 126.168  0.00  0.00    +0.016 C 
ENDROOT
BRANCH   1  15
ATOM     11  C   LIG A   1      -9.659   3.166 130.467  0.00  0.00    +0.166 A 
ATOM     12  C   LIG A   1      -9.798   4.584 130.416  0.00  0.00    +0.203 A 
ATOM     13  C   LIG A   1      -9.085   5.301 129.434  0.00  0.00    +0.166 A 
ATOM     14  C   LIG A   1      -8.247   4.605 128.567  0.00  0.00    +0.057 A 
ATOM     15  C   LIG A   1      -8.086   3.222 128.630  0.00  0.00    +0.000 A 
ATOM     16  C   LIG A   1      -8.817   2.512 129.563  0.00  0.00    +0.057 A 
BRANCH  11  18
ATOM     17  C   LIG A   1      -9.591   1.327 131.982  0.00  0.00    +0.277 C 
ATOM     18  O   LIG A   1     -10.297   2.458 131.462  0.00  0.00    -0.491 OA
ENDBRANCH  11  18
BRANCH  12  19
ATOM     19  O   LIG A   1     -10.629   5.136 131.367  0.00  0.00    -0.488 OA
ATOM     20  C   LIG A   1     -10.036   5.800 132.480  0.00  0.00    +0.277 C 
ENDBRANCH  12  19
BRANCH  13  21
ATOM     21  O   LIG A   1      -9.236   6.657 129.283  0.00  0.00    -0.491 OA
ATOM     22  C   LIG A   1     -10.356   7.085 128.506  0.00  0.00    +0.277 C 
ENDBRANCH  13  21
ENDBRANCH   1  15
BRANCH   5  23
ATOM     23  O   LIG A   1     -10.201   0.478 123.187  0.00  0.00    -0.503 OA
ATOM     24  H   LIG A   1     -10.909   0.196 123.794  0.00  0.00    +0.292 HD
ENDBRANCH   5  23
BRANCH   6  25
ATOM     25  O   LIG A   1      -9.086   3.006 122.218  0.00  0.00    -0.491 OA
ATOM     26  C   LIG A   1      -7.982   3.486 121.464  0.00  0.00    +0.277 C 
ENDBRANCH   6  25
BRANCH   4  27
ATOM     27  C   LIG A   1      -9.447  -0.613 125.718  0.00  0.00    +0.069 C 
BRANCH  27  28
ATOM     28  C   LIG A   1      -8.557  -1.856 125.579  0.00  0.00    -0.030 C 
ATOM     29  C   LIG A   1      -7.814  -2.485 126.470  0.00  0.00    +0.004 C 
ENDBRANCH  27  28
ENDBRANCH   4  27
TORSDOF 8
ENDMDL
MODEL 7
REMARK VINA RESULT:      -6.3      3.225      5.581
REMARK  Name = NuBBE_2343
REMARK  13 active torsions:
REMARK  status: ('A' for Active; 'I' for Inactive)
REMARK    1  A    between atoms: C_1  and  O_2
REMARK    2  A    between atoms: O_2  and  C_3
REMARK    3  A    between atoms: C_4  and  O_5
REMARK    4  A    between atoms: O_5  and  C_6
REMARK    5  A    between atoms: C_7  and  O_8
REMARK    6  A    between atoms: O_8  and  C_9
REMARK    7  A    between atoms: C_11  and  C_12
REMARK    8  A    between atoms: C_16  and  C_17
REMARK    9  A    between atoms: C_17  and  C_18
REMARK   10  A    between atoms: C_20  and  O_21
REMARK   11  A    between atoms: C_22  and  O_23
REMARK   12  A    between atoms: O_23  and  C_24
REMARK   13  A    between atoms: C_27  and  C_29
REMARK                            x       y       z     vdW  Elec       q    Type
REMARK                         _______ _______ _______ _____ _____    ______ ____
ROOT
ATOM      1  C   LIG A   1      -6.197   0.504 128.202  0.00  0.00    +0.211 C 
ATOM      2  O   LIG A   1      -6.456  -0.712 128.917  0.00  0.00    -0.483 OA
ATOM      3  C   LIG A   1      -7.239  -1.479 128.094  0.00  0.00    +0.132 A 
ATOM      4  C   LIG A   1      -7.821  -2.671 128.495  0.00  0.00    +0.043 A 
ATOM      5  C   LIG A   1      -8.739  -3.227 127.584  0.00  0.00    +0.166 A 
ATOM      6  C   LIG A   1      -8.951  -2.663 126.305  0.00  0.00    +0.162 A 
ATOM      7  C   LIG A   1      -8.228  -1.526 125.916  0.00  0.00    +0.057 A 
ATOM      8  C   LIG A   1      -7.383  -0.932 126.831  0.00  0.00    +0.005 A 
ATOM      9  C   LIG A   1      -6.515   0.272 126.707  0.00  0.00    +0.065 C 
ATOM     10  C   LIG A   1      -5.245  -0.016 125.905  0.00  0.00    +0.016 C 
ENDROOT
BRANCH   1  15
ATOM     11  C   LIG A   1      -8.128   3.729 128.701  0.00  0.00    +0.166 A 
ATOM     12  C   LIG A   1      -8.697   3.552 129.997  0.00  0.00    +0.203 A 
ATOM     13  C   LIG A   1      -8.393   2.379 130.717  0.00  0.00    +0.166 A 
ATOM     14  C   LIG A   1      -7.571   1.421 130.129  0.00  0.00    +0.057 A 
ATOM     15  C   LIG A   1      -7.036   1.576 128.851  0.00  0.00    +0.000 A 
ATOM     16  C   LIG A   1      -7.297   2.745 128.161  0.00  0.00    +0.057 A 
BRANCH  11  18
ATOM     17  C   LIG A   1      -8.116   4.800 126.572  0.00  0.00    +0.277 C 
ATOM     18  O   LIG A   1      -8.469   4.838 127.958  0.00  0.00    -0.491 OA
ENDBRANCH  11  18
BRANCH  12  19
ATOM     19  O   LIG A   1      -9.524   4.566 130.428  0.00  0.00    -0.488 OA
ATOM     20  C   LIG A   1     -10.931   4.338 130.428  0.00  0.00    +0.277 C 
ENDBRANCH  12  19
BRANCH  13  21
ATOM     21  O   LIG A   1      -8.844   2.185 131.999  0.00  0.00    -0.491 OA
ATOM     22  C   LIG A   1      -8.041   2.739 133.042  0.00  0.00    +0.277 C 
ENDBRANCH  13  21
ENDBRANCH   1  15
BRANCH   5  23
ATOM     23  O   LIG A   1      -9.423  -4.352 127.962  0.00  0.00    -0.503 OA
ATOM     24  H   LIG A   1      -8.757  -4.969 128.316  0.00  0.00    +0.292 HD
ENDBRANCH   5  23
BRANCH   6  25
ATOM     25  O   LIG A   1      -9.792  -3.130 125.327  0.00  0.00    -0.491 OA
ATOM     26  C   LIG A   1      -9.259  -3.258 124.016  0.00  0.00    +0.277 C 
ENDBRANCH   6  25
BRANCH   4  27
ATOM     27  C   LIG A   1      -7.548  -3.302 129.845  0.00  0.00    +0.069 C 
BRANCH  27  28
ATOM     28  C   LIG A   1      -6.229  -4.053 130.072  0.00  0.00    -0.030 C 
ATOM     29  C   LIG A   1      -5.753  -4.651 131.148  0.00  0.00    +0.004 C 
ENDBRANCH  27  28
ENDBRANCH   4  27
TORSDOF 8
ENDMDL
MODEL 8
REMARK VINA RESULT:      -6.3      3.353      8.178
REMARK  Name = NuBBE_2343
REMARK  13 active torsions:
REMARK  status: ('A' for Active; 'I' for Inactive)
REMARK    1  A    between atoms: C_1  and  O_2
REMARK    2  A    between atoms: O_2  and  C_3
REMARK    3  A    between atoms: C_4  and  O_5
REMARK    4  A    between atoms: O_5  and  C_6
REMARK    5  A    between atoms: C_7  and  O_8
REMARK    6  A    between atoms: O_8  and  C_9
REMARK    7  A    between atoms: C_11  and  C_12
REMARK    8  A    between atoms: C_16  and  C_17
REMARK    9  A    between atoms: C_17  and  C_18
REMARK   10  A    between atoms: C_20  and  O_21
REMARK   11  A    between atoms: C_22  and  O_23
REMARK   12  A    between atoms: O_23  and  C_24
REMARK   13  A    between atoms: C_27  and  C_29
REMARK                            x       y       z     vdW  Elec       q    Type
REMARK                         _______ _______ _______ _____ _____    ______ ____
ROOT
ATOM      1  C   LIG A   1      -7.684   2.511 127.736  0.00  0.00    +0.211 C 
ATOM      2  O   LIG A   1      -8.800   3.067 128.443  0.00  0.00    -0.483 OA
ATOM      3  C   LIG A   1      -8.576   2.815 129.771  0.00  0.00    +0.132 A 
ATOM      4  C   LIG A   1      -9.511   3.071 130.761  0.00  0.00    +0.043 A 
ATOM      5  C   LIG A   1      -9.184   2.578 132.039  0.00  0.00    +0.166 A 
ATOM      6  C   LIG A   1      -7.932   1.974 132.304  0.00  0.00    +0.162 A 
ATOM      7  C   LIG A   1      -6.980   1.866 131.280  0.00  0.00    +0.057 A 
ATOM      8  C   LIG A   1      -7.323   2.277 130.008  0.00  0.00    +0.005 A 
ATOM      9  C   LIG A   1      -6.537   2.267 128.743  0.00  0.00    +0.065 C 
ATOM     10  C   LIG A   1      -5.507   3.397 128.699  0.00  0.00    +0.016 C 
ENDROOT
BRANCH   1  15
ATOM     11  C   LIG A   1      -9.460   0.236 125.276  0.00  0.00    +0.166 A 
ATOM     12  C   LIG A   1      -9.037  -1.061 125.693  0.00  0.00    +0.203 A 
ATOM     13  C   LIG A   1      -8.202  -1.171 126.822  0.00  0.00    +0.166 A 
ATOM     14  C   LIG A   1      -7.794  -0.011 127.475  0.00  0.00    +0.057 A 
ATOM     15  C   LIG A   1      -8.181   1.260 127.055  0.00  0.00    +0.000 A 
ATOM     16  C   LIG A   1      -9.036   1.369 125.975  0.00  0.00    +0.057 A 
BRANCH  11  18
ATOM     17  C   LIG A   1      -9.629   1.104 123.063  0.00  0.00    +0.277 C 
ATOM     18  O   LIG A   1     -10.222   0.365 124.135  0.00  0.00    -0.491 OA
ENDBRANCH  11  18
BRANCH  12  19
ATOM     19  O   LIG A   1      -9.487  -2.111 124.922  0.00  0.00    -0.488 OA
ATOM     20  C   LIG A   1      -8.604  -2.663 123.950  0.00  0.00    +0.277 C 
ENDBRANCH  12  19
BRANCH  13  21
ATOM     21  O   LIG A   1      -7.824  -2.394 127.321  0.00  0.00    -0.491 OA
ATOM     22  C   LIG A   1      -6.535  -2.456 127.932  0.00  0.00    +0.277 C 
ENDBRANCH  13  21
ENDBRANCH   1  15
BRANCH   5  23
ATOM     23  O   LIG A   1     -10.109   2.711 133.039  0.00  0.00    -0.503 OA
ATOM     24  H   LIG A   1     -10.978   2.754 132.602  0.00  0.00    +0.292 HD
ENDBRANCH   5  23
BRANCH   6  25
ATOM     25  O   LIG A   1      -7.491   1.487 133.508  0.00  0.00    -0.491 OA
ATOM     26  C   LIG A   1      -6.388   2.148 134.113  0.00  0.00    +0.277 C 
ENDBRANCH   6  25
BRANCH   4  27
ATOM     27  C   LIG A   1     -10.827   3.769 130.483  0.00  0.00    +0.069 C 
BRANCH  27  28
ATOM     28  C   LIG A   1     -10.933   5.285 130.694  0.00  0.00    -0.030 C 
ATOM     29  C   LIG A   1     -10.448   6.057 131.647  0.00  0.00    +0.004 C 
ENDBRANCH  27  28
ENDBRANCH   4  27
TORSDOF 8
ENDMDL
MODEL 9
REMARK VINA RESULT:      -6.3      3.259      5.601
REMARK  Name = NuBBE_2343
REMARK  13 active torsions:
REMARK  status: ('A' for Active; 'I' for Inactive)
REMARK    1  A    between atoms: C_1  and  O_2
REMARK    2  A    between atoms: O_2  and  C_3
REMARK    3  A    between atoms: C_4  and  O_5
REMARK    4  A    between atoms: O_5  and  C_6
REMARK    5  A    between atoms: C_7  and  O_8
REMARK    6  A    between atoms: O_8  and  C_9
REMARK    7  A    between atoms: C_11  and  C_12
REMARK    8  A    between atoms: C_16  and  C_17
REMARK    9  A    between atoms: C_17  and  C_18
REMARK   10  A    between atoms: C_20  and  O_21
REMARK   11  A    between atoms: C_22  and  O_23
REMARK   12  A    between atoms: O_23  and  C_24
REMARK   13  A    between atoms: C_27  and  C_29
REMARK                            x       y       z     vdW  Elec       q    Type
REMARK                         _______ _______ _______ _____ _____    ______ ____
ROOT
ATOM      1  C   LIG A   1      -6.290   0.573 128.118  0.00  0.00    +0.211 C 
ATOM      2  O   LIG A   1      -6.570  -0.621 128.861  0.00  0.00    -0.483 OA
ATOM      3  C   LIG A   1      -7.316  -1.420 128.034  0.00  0.00    +0.132 A 
ATOM      4  C   LIG A   1      -7.906  -2.603 128.451  0.00  0.00    +0.043 A 
ATOM      5  C   LIG A   1      -8.786  -3.194 127.524  0.00  0.00    +0.166 A 
ATOM      6  C   LIG A   1      -8.952  -2.673 126.220  0.00  0.00    +0.162 A 
ATOM      7  C   LIG A   1      -8.220  -1.544 125.822  0.00  0.00    +0.057 A 
ATOM      8  C   LIG A   1      -7.414  -0.914 126.749  0.00  0.00    +0.005 A 
ATOM      9  C   LIG A   1      -6.549   0.291 126.620  0.00  0.00    +0.065 C 
ATOM     10  C   LIG A   1      -5.248  -0.014 125.877  0.00  0.00    +0.016 C 
ENDROOT
BRANCH   1  15
ATOM     11  C   LIG A   1      -8.415   2.530 130.575  0.00  0.00    +0.166 A 
ATOM     12  C   LIG A   1      -8.698   3.728 129.854  0.00  0.00    +0.203 A 
ATOM     13  C   LIG A   1      -8.219   3.854 128.534  0.00  0.00    +0.166 A 
ATOM     14  C   LIG A   1      -7.462   2.820 127.989  0.00  0.00    +0.057 A 
ATOM     15  C   LIG A   1      -7.160   1.659 128.699  0.00  0.00    +0.000 A 
ATOM     16  C   LIG A   1      -7.665   1.514 129.977  0.00  0.00    +0.057 A 
BRANCH  11  18
ATOM     17  C   LIG A   1      -7.776   2.281 132.857  0.00  0.00    +0.277 C 
ATOM     18  O   LIG A   1      -8.819   2.418 131.887  0.00  0.00    -0.491 OA
ENDBRANCH  11  18
BRANCH  12  19
ATOM     19  O   LIG A   1      -9.420   4.680 130.540  0.00  0.00    -0.488 OA
ATOM     20  C   LIG A   1     -10.837   4.692 130.389  0.00  0.00    +0.277 C 
ENDBRANCH  12  19
BRANCH  13  21
ATOM     21  O   LIG A   1      -8.523   4.948 127.761  0.00  0.00    -0.491 OA
ATOM     22  C   LIG A   1      -8.167   4.863 126.381  0.00  0.00    +0.277 C 
ENDBRANCH  13  21
ENDBRANCH   1  15
BRANCH   5  23
ATOM     23  O   LIG A   1      -9.476  -4.311 127.912  0.00  0.00    -0.503 OA
ATOM     24  H   LIG A   1      -9.063  -4.613 128.740  0.00  0.00    +0.292 HD
ENDBRANCH   5  23
BRANCH   6  25
ATOM     25  O   LIG A   1      -9.752  -3.177 125.227  0.00  0.00    -0.491 OA
ATOM     26  C   LIG A   1      -9.202  -3.241 123.918  0.00  0.00    +0.277 C 
ENDBRANCH   6  25
BRANCH   4  27
ATOM     27  C   LIG A   1      -7.681  -3.188 129.830  0.00  0.00    +0.069 C 
BRANCH  27  28
ATOM     28  C   LIG A   1      -6.438  -4.051 130.088  0.00  0.00    -0.030 C 
ATOM     29  C   LIG A   1      -5.156  -3.778 129.941  0.00  0.00    +0.004 C 
ENDBRANCH  27  28
ENDBRANCH   4  27
TORSDOF 8
ENDMDL
