MODEL 1
REMARK VINA RESULT:      -7.6      0.000      0.000
REMARK  Name = NuBBE_564
REMARK  5 active torsions:
REMARK  status: ('A' for Active; 'I' for Inactive)
REMARK    1  A    between atoms: O_1  and  C_2
REMARK    2  A    between atoms: C_4  and  O_5
REMARK    3  A    between atoms: C_9  and  C_10
REMARK    4  A    between atoms: C_12  and  O_13
REMARK    5  A    between atoms: C_14  and  O_15
REMARK                            x       y       z     vdW  Elec       q    Type
REMARK                         _______ _______ _______ _____ _____    ______ ____
ROOT
ATOM      1  C   LIG A   1      -8.883  -1.327 124.518  0.00  0.00    +0.124 A 
ATOM      2  C   LIG A   1      -8.584  -1.126 125.861  0.00  0.00    +0.091 A 
ATOM      3  C   LIG A   1      -7.847   0.003 126.237  0.00  0.00    +0.135 A 
ATOM      4  C   LIG A   1      -7.415   0.925 125.272  0.00  0.00    +0.105 A 
ATOM      5  C   LIG A   1      -6.635   2.140 125.602  0.00  0.00    +0.197 A 
ATOM      6  C   LIG A   1      -6.252   3.004 124.471  0.00  0.00    +0.098 A 
ATOM      7  C   LIG A   1      -6.610   2.667 123.225  0.00  0.00    +0.139 A 
ATOM      8  O   LIG A   1      -7.351   1.542 122.912  0.00  0.00    -0.454 OA
ATOM      9  O   LIG A   1      -6.296   2.465 126.732  0.00  0.00    -0.287 OA
ATOM     10  C   LIG A   1      -7.728   0.700 123.930  0.00  0.00    +0.146 A 
ATOM     11  C   LIG A   1      -8.462  -0.424 123.549  0.00  0.00    +0.092 A 
ENDROOT
BRANCH   7  12
ATOM     12  C   LIG A   1      -6.259   3.504 122.059  0.00  0.00    +0.021 A 
ATOM     13  C   LIG A   1      -5.206   4.430 122.155  0.00  0.00    +0.060 A 
ATOM     14  C   LIG A   1      -4.883   5.227 121.061  0.00  0.00    +0.159 A 
ATOM     15  C   LIG A   1      -5.598   5.118 119.873  0.00  0.00    +0.158 A 
ATOM     16  C   LIG A   1      -6.646   4.219 119.757  0.00  0.00    +0.050 A 
ATOM     17  C   LIG A   1      -6.978   3.414 120.852  0.00  0.00    +0.015 A 
BRANCH  14  18
ATOM     18  O   LIG A   1      -3.864   6.139 121.106  0.00  0.00    -0.503 OA
ATOM     19  H   LIG A   1      -3.021   5.655 121.082  0.00  0.00    +0.292 HD
ENDBRANCH  14  18
BRANCH  15  20
ATOM     20  O   LIG A   1      -5.274   5.903 118.805  0.00  0.00    -0.503 OA
ATOM     21  H   LIG A   1      -4.501   5.460 118.400  0.00  0.00    +0.292 HD
ENDBRANCH  15  20
ENDBRANCH   7  12
BRANCH   1  22
ATOM     22  O   LIG A   1      -9.599  -2.410 124.100  0.00  0.00    -0.506 OA
ATOM     23  H   LIG A   1      -9.934  -2.894 124.872  0.00  0.00    +0.292 HD
ENDBRANCH   1  22
BRANCH   3  24
ATOM     24  O   LIG A   1      -7.559   0.188 127.559  0.00  0.00    -0.506 OA
ATOM     25  H   LIG A   1      -7.636   1.124 127.804  0.00  0.00    +0.292 HD
ENDBRANCH   3  24
TORSDOF 5
ENDMDL
MODEL 2
REMARK VINA RESULT:      -7.3      9.395     10.243
REMARK  Name = NuBBE_564
REMARK  5 active torsions:
REMARK  status: ('A' for Active; 'I' for Inactive)
REMARK    1  A    between atoms: O_1  and  C_2
REMARK    2  A    between atoms: C_4  and  O_5
REMARK    3  A    between atoms: C_9  and  C_10
REMARK    4  A    between atoms: C_12  and  O_13
REMARK    5  A    between atoms: C_14  and  O_15
REMARK                            x       y       z     vdW  Elec       q    Type
REMARK                         _______ _______ _______ _____ _____    ______ ____
ROOT
ATOM      1  C   LIG A   1     -11.164   8.078 129.005  0.00  0.00    +0.124 A 
ATOM      2  C   LIG A   1     -12.005   7.419 129.896  0.00  0.00    +0.091 A 
ATOM      3  C   LIG A   1     -11.447   6.715 130.970  0.00  0.00    +0.135 A 
ATOM      4  C   LIG A   1     -10.057   6.674 131.149  0.00  0.00    +0.105 A 
ATOM      5  C   LIG A   1      -9.403   5.951 132.265  0.00  0.00    +0.197 A 
ATOM      6  C   LIG A   1      -7.930   6.000 132.307  0.00  0.00    +0.098 A 
ATOM      7  C   LIG A   1      -7.259   6.672 131.364  0.00  0.00    +0.139 A 
ATOM      8  O   LIG A   1      -7.864   7.363 130.329  0.00  0.00    -0.454 OA
ATOM      9  O   LIG A   1      -9.997   5.329 133.135  0.00  0.00    -0.287 OA
ATOM     10  C   LIG A   1      -9.235   7.343 130.240  0.00  0.00    +0.146 A 
ATOM     11  C   LIG A   1      -9.785   8.046 129.168  0.00  0.00    +0.092 A 
ENDROOT
BRANCH   7  12
ATOM     12  C   LIG A   1      -5.784   6.760 131.368  0.00  0.00    +0.021 A 
ATOM     13  C   LIG A   1      -5.047   6.092 132.361  0.00  0.00    +0.060 A 
ATOM     14  C   LIG A   1      -3.659   6.183 132.373  0.00  0.00    +0.159 A 
ATOM     15  C   LIG A   1      -2.993   6.935 131.410  0.00  0.00    +0.158 A 
ATOM     16  C   LIG A   1      -3.698   7.609 130.426  0.00  0.00    +0.050 A 
ATOM     17  C   LIG A   1      -5.094   7.524 130.407  0.00  0.00    +0.015 A 
BRANCH  14  18
ATOM     18  O   LIG A   1      -2.900   5.548 133.317  0.00  0.00    -0.503 OA
ATOM     19  H   LIG A   1      -3.499   5.090 133.931  0.00  0.00    +0.292 HD
ENDBRANCH  14  18
BRANCH  15  20
ATOM     20  O   LIG A   1      -1.631   7.018 131.429  0.00  0.00    -0.503 OA
ATOM     21  H   LIG A   1      -1.341   6.194 131.870  0.00  0.00    +0.292 HD
ENDBRANCH  15  20
ENDBRANCH   7  12
BRANCH   1  22
ATOM     22  O   LIG A   1     -11.657   8.778 127.943  0.00  0.00    -0.506 OA
ATOM     23  H   LIG A   1     -12.059   9.605 128.259  0.00  0.00    +0.292 HD
ENDBRANCH   1  22
BRANCH   3  24
ATOM     24  O   LIG A   1     -12.283   6.073 131.838  0.00  0.00    -0.506 OA
ATOM     25  H   LIG A   1     -12.234   5.111 131.721  0.00  0.00    +0.292 HD
ENDBRANCH   3  24
TORSDOF 5
ENDMDL
MODEL 3
REMARK VINA RESULT:      -7.3      9.291     10.340
REMARK  Name = NuBBE_564
REMARK  5 active torsions:
REMARK  status: ('A' for Active; 'I' for Inactive)
REMARK    1  A    between atoms: O_1  and  C_2
REMARK    2  A    between atoms: C_4  and  O_5
REMARK    3  A    between atoms: C_9  and  C_10
REMARK    4  A    between atoms: C_12  and  O_13
REMARK    5  A    between atoms: C_14  and  O_15
REMARK                            x       y       z     vdW  Elec       q    Type
REMARK                         _______ _______ _______ _____ _____    ______ ____
ROOT
ATOM      1  C   LIG A   1      -4.473   6.911 131.378  0.00  0.00    +0.124 A 
ATOM      2  C   LIG A   1      -4.434   6.186 132.564  0.00  0.00    +0.091 A 
ATOM      3  C   LIG A   1      -5.634   5.749 133.139  0.00  0.00    +0.135 A 
ATOM      4  C   LIG A   1      -6.863   6.036 132.526  0.00  0.00    +0.105 A 
ATOM      5  C   LIG A   1      -8.166   5.601 133.079  0.00  0.00    +0.197 A 
ATOM      6  C   LIG A   1      -9.367   5.990 132.318  0.00  0.00    +0.098 A 
ATOM      7  C   LIG A   1      -9.239   6.703 131.191  0.00  0.00    +0.139 A 
ATOM      8  O   LIG A   1      -8.024   7.098 130.662  0.00  0.00    -0.454 OA
ATOM      9  O   LIG A   1      -8.305   4.951 134.107  0.00  0.00    -0.287 OA
ATOM     10  C   LIG A   1      -6.874   6.767 131.336  0.00  0.00    +0.146 A 
ATOM     11  C   LIG A   1      -5.682   7.206 130.760  0.00  0.00    +0.092 A 
ENDROOT
BRANCH   7  12
ATOM     12  C   LIG A   1     -10.410   7.109 130.387  0.00  0.00    +0.021 A 
ATOM     13  C   LIG A   1     -10.219   7.713 129.132  0.00  0.00    +0.060 A 
ATOM     14  C   LIG A   1     -11.321   8.107 128.379  0.00  0.00    +0.159 A 
ATOM     15  C   LIG A   1     -12.611   7.912 128.861  0.00  0.00    +0.158 A 
ATOM     16  C   LIG A   1     -12.824   7.327 130.099  0.00  0.00    +0.050 A 
ATOM     17  C   LIG A   1     -11.722   6.929 130.863  0.00  0.00    +0.015 A 
BRANCH  14  18
ATOM     18  O   LIG A   1     -11.185   8.694 127.151  0.00  0.00    -0.503 OA
ATOM     19  H   LIG A   1     -10.365   9.217 127.153  0.00  0.00    +0.292 HD
ENDBRANCH  14  18
BRANCH  15  20
ATOM     20  O   LIG A   1     -13.686   8.301 128.115  0.00  0.00    -0.503 OA
ATOM     21  H   LIG A   1     -13.441   9.186 127.775  0.00  0.00    +0.292 HD
ENDBRANCH  15  20
ENDBRANCH   7  12
BRANCH   1  22
ATOM     22  O   LIG A   1      -3.333   7.360 130.778  0.00  0.00    -0.506 OA
ATOM     23  H   LIG A   1      -3.490   7.467 129.825  0.00  0.00    +0.292 HD
ENDBRANCH   1  22
BRANCH   3  24
ATOM     24  O   LIG A   1      -5.582   5.037 134.303  0.00  0.00    -0.506 OA
ATOM     25  H   LIG A   1      -5.154   4.177 134.166  0.00  0.00    +0.292 HD
ENDBRANCH   3  24
TORSDOF 5
ENDMDL
MODEL 4
REMARK VINA RESULT:      -7.3      8.714     10.403
REMARK  Name = NuBBE_564
REMARK  5 active torsions:
REMARK  status: ('A' for Active; 'I' for Inactive)
REMARK    1  A    between atoms: O_1  and  C_2
REMARK    2  A    between atoms: C_4  and  O_5
REMARK    3  A    between atoms: C_9  and  C_10
REMARK    4  A    between atoms: C_12  and  O_13
REMARK    5  A    between atoms: C_14  and  O_15
REMARK                            x       y       z     vdW  Elec       q    Type
REMARK                         _______ _______ _______ _____ _____    ______ ____
ROOT
ATOM      1  C   LIG A   1      -7.340   4.919 134.913  0.00  0.00    +0.124 A 
ATOM      2  C   LIG A   1      -7.289   3.559 134.629  0.00  0.00    +0.091 A 
ATOM      3  C   LIG A   1      -8.025   3.057 133.549  0.00  0.00    +0.135 A 
ATOM      4  C   LIG A   1      -8.805   3.914 132.759  0.00  0.00    +0.105 A 
ATOM      5  C   LIG A   1      -9.604   3.449 131.602  0.00  0.00    +0.197 A 
ATOM      6  C   LIG A   1     -10.376   4.476 130.879  0.00  0.00    +0.098 A 
ATOM      7  C   LIG A   1     -10.330   5.751 131.284  0.00  0.00    +0.139 A 
ATOM      8  O   LIG A   1      -9.573   6.195 132.354  0.00  0.00    -0.454 OA
ATOM      9  O   LIG A   1      -9.662   2.288 131.217  0.00  0.00    -0.287 OA
ATOM     10  C   LIG A   1      -8.841   5.276 133.066  0.00  0.00    +0.146 A 
ATOM     11  C   LIG A   1      -8.109   5.782 134.141  0.00  0.00    +0.092 A 
ENDROOT
BRANCH   7  12
ATOM     12  C   LIG A   1     -11.076   6.819 130.588  0.00  0.00    +0.021 A 
ATOM     13  C   LIG A   1     -10.577   7.350 129.385  0.00  0.00    +0.060 A 
ATOM     14  C   LIG A   1     -11.274   8.364 128.735  0.00  0.00    +0.159 A 
ATOM     15  C   LIG A   1     -12.458   8.861 129.269  0.00  0.00    +0.158 A 
ATOM     16  C   LIG A   1     -12.964   8.361 130.457  0.00  0.00    +0.050 A 
ATOM     17  C   LIG A   1     -12.271   7.342 131.118  0.00  0.00    +0.015 A 
BRANCH  14  18
ATOM     18  O   LIG A   1     -10.829   8.908 127.561  0.00  0.00    -0.503 OA
ATOM     19  H   LIG A   1     -10.549   9.823 127.736  0.00  0.00    +0.292 HD
ENDBRANCH  14  18
BRANCH  15  20
ATOM     20  O   LIG A   1     -13.134   9.856 128.624  0.00  0.00    -0.503 OA
ATOM     21  H   LIG A   1     -13.694   9.389 127.971  0.00  0.00    +0.292 HD
ENDBRANCH  15  20
ENDBRANCH   7  12
BRANCH   1  22
ATOM     22  O   LIG A   1      -6.642   5.459 135.953  0.00  0.00    -0.506 OA
ATOM     23  H   LIG A   1      -5.937   4.846 136.222  0.00  0.00    +0.292 HD
ENDBRANCH   1  22
BRANCH   3  24
ATOM     24  O   LIG A   1      -7.966   1.719 133.281  0.00  0.00    -0.506 OA
ATOM     25  H   LIG A   1      -8.621   1.469 132.611  0.00  0.00    +0.292 HD
ENDBRANCH   3  24
TORSDOF 5
ENDMDL
MODEL 5
REMARK VINA RESULT:      -7.2      2.408      6.755
REMARK  Name = NuBBE_564
REMARK  5 active torsions:
REMARK  status: ('A' for Active; 'I' for Inactive)
REMARK    1  A    between atoms: O_1  and  C_2
REMARK    2  A    between atoms: C_4  and  O_5
REMARK    3  A    between atoms: C_9  and  C_10
REMARK    4  A    between atoms: C_12  and  O_13
REMARK    5  A    between atoms: C_14  and  O_15
REMARK                            x       y       z     vdW  Elec       q    Type
REMARK                         _______ _______ _______ _____ _____    ______ ____
ROOT
ATOM      1  C   LIG A   1      -6.007   4.975 119.482  0.00  0.00    +0.124 A 
ATOM      2  C   LIG A   1      -7.316   4.619 119.176  0.00  0.00    +0.091 A 
ATOM      3  C   LIG A   1      -8.083   3.941 120.131  0.00  0.00    +0.135 A 
ATOM      4  C   LIG A   1      -7.540   3.624 121.385  0.00  0.00    +0.105 A 
ATOM      5  C   LIG A   1      -8.297   2.913 122.441  0.00  0.00    +0.197 A 
ATOM      6  C   LIG A   1      -7.580   2.650 123.702  0.00  0.00    +0.098 A 
ATOM      7  C   LIG A   1      -6.309   3.049 123.840  0.00  0.00    +0.139 A 
ATOM      8  O   LIG A   1      -5.602   3.728 122.864  0.00  0.00    -0.454 OA
ATOM      9  O   LIG A   1      -9.457   2.538 122.334  0.00  0.00    -0.287 OA
ATOM     10  C   LIG A   1      -6.223   3.992 121.667  0.00  0.00    +0.146 A 
ATOM     11  C   LIG A   1      -5.454   4.667 120.719  0.00  0.00    +0.092 A 
ENDROOT
BRANCH   7  12
ATOM     12  C   LIG A   1      -5.550   2.819 125.086  0.00  0.00    +0.021 A 
ATOM     13  C   LIG A   1      -5.679   1.595 125.766  0.00  0.00    +0.060 A 
ATOM     14  C   LIG A   1      -4.973   1.381 126.947  0.00  0.00    +0.159 A 
ATOM     15  C   LIG A   1      -4.143   2.372 127.462  0.00  0.00    +0.158 A 
ATOM     16  C   LIG A   1      -4.007   3.589 126.814  0.00  0.00    +0.050 A 
ATOM     17  C   LIG A   1      -4.713   3.813 125.627  0.00  0.00    +0.015 A 
BRANCH  14  18
ATOM     18  O   LIG A   1      -5.065   0.206 127.641  0.00  0.00    -0.503 OA
ATOM     19  H   LIG A   1      -5.593  -0.418 127.115  0.00  0.00    +0.292 HD
ENDBRANCH  14  18
BRANCH  15  20
ATOM     20  O   LIG A   1      -3.455   2.153 128.619  0.00  0.00    -0.503 OA
ATOM     21  H   LIG A   1      -3.121   1.237 128.537  0.00  0.00    +0.292 HD
ENDBRANCH  15  20
ENDBRANCH   7  12
BRANCH   1  22
ATOM     22  O   LIG A   1      -5.219   5.636 118.586  0.00  0.00    -0.506 OA
ATOM     23  H   LIG A   1      -5.517   5.436 117.684  0.00  0.00    +0.292 HD
ENDBRANCH   1  22
BRANCH   3  24
ATOM     24  O   LIG A   1      -9.367   3.598 119.818  0.00  0.00    -0.506 OA
ATOM     25  H   LIG A   1      -9.925   4.386 119.724  0.00  0.00    +0.292 HD
ENDBRANCH   3  24
TORSDOF 5
ENDMDL
MODEL 6
REMARK VINA RESULT:      -7.2      8.216     10.183
REMARK  Name = NuBBE_564
REMARK  5 active torsions:
REMARK  status: ('A' for Active; 'I' for Inactive)
REMARK    1  A    between atoms: O_1  and  C_2
REMARK    2  A    between atoms: C_4  and  O_5
REMARK    3  A    between atoms: C_9  and  C_10
REMARK    4  A    between atoms: C_12  and  O_13
REMARK    5  A    between atoms: C_14  and  O_15
REMARK                            x       y       z     vdW  Elec       q    Type
REMARK                         _______ _______ _______ _____ _____    ______ ____
ROOT
ATOM      1  C   LIG A   1     -11.292   7.588 126.794  0.00  0.00    +0.124 A 
ATOM      2  C   LIG A   1     -12.549   7.468 127.376  0.00  0.00    +0.091 A 
ATOM      3  C   LIG A   1     -12.647   7.156 128.737  0.00  0.00    +0.135 A 
ATOM      4  C   LIG A   1     -11.491   6.967 129.509  0.00  0.00    +0.105 A 
ATOM      5  C   LIG A   1     -11.524   6.639 130.953  0.00  0.00    +0.197 A 
ATOM      6  C   LIG A   1     -10.220   6.465 131.619  0.00  0.00    +0.098 A 
ATOM      7  C   LIG A   1      -9.090   6.604 130.914  0.00  0.00    +0.139 A 
ATOM      8  O   LIG A   1      -9.052   6.926 129.570  0.00  0.00    -0.454 OA
ATOM      9  O   LIG A   1     -12.546   6.506 131.614  0.00  0.00    -0.287 OA
ATOM     10  C   LIG A   1     -10.240   7.092 128.901  0.00  0.00    +0.146 A 
ATOM     11  C   LIG A   1     -10.137   7.402 127.544  0.00  0.00    +0.092 A 
ENDROOT
BRANCH   7  12
ATOM     12  C   LIG A   1      -7.759   6.450 131.536  0.00  0.00    +0.021 A 
ATOM     13  C   LIG A   1      -6.626   6.993 130.905  0.00  0.00    +0.060 A 
ATOM     14  C   LIG A   1      -5.370   6.838 131.484  0.00  0.00    +0.159 A 
ATOM     15  C   LIG A   1      -5.226   6.145 132.682  0.00  0.00    +0.158 A 
ATOM     16  C   LIG A   1      -6.326   5.593 133.317  0.00  0.00    +0.050 A 
ATOM     17  C   LIG A   1      -7.592   5.743 132.743  0.00  0.00    +0.015 A 
BRANCH  14  18
ATOM     18  O   LIG A   1      -4.240   7.352 130.909  0.00  0.00    -0.503 OA
ATOM     19  H   LIG A   1      -3.474   7.071 131.438  0.00  0.00    +0.292 HD
ENDBRANCH  14  18
BRANCH  15  20
ATOM     20  O   LIG A   1      -3.990   5.999 133.242  0.00  0.00    -0.503 OA
ATOM     21  H   LIG A   1      -4.041   6.498 134.082  0.00  0.00    +0.292 HD
ENDBRANCH  15  20
ENDBRANCH   7  12
BRANCH   1  22
ATOM     22  O   LIG A   1     -11.142   7.890 125.472  0.00  0.00    -0.506 OA
ATOM     23  H   LIG A   1     -12.015   7.924 125.047  0.00  0.00    +0.292 HD
ENDBRANCH   1  22
BRANCH   3  24
ATOM     24  O   LIG A   1     -13.887   7.043 129.296  0.00  0.00    -0.506 OA
ATOM     25  H   LIG A   1     -14.425   7.830 129.114  0.00  0.00    +0.292 HD
ENDBRANCH   3  24
TORSDOF 5
ENDMDL
MODEL 7
REMARK VINA RESULT:      -7.1      7.162      8.939
REMARK  Name = NuBBE_564
REMARK  5 active torsions:
REMARK  status: ('A' for Active; 'I' for Inactive)
REMARK    1  A    between atoms: O_1  and  C_2
REMARK    2  A    between atoms: C_4  and  O_5
REMARK    3  A    between atoms: C_9  and  C_10
REMARK    4  A    between atoms: C_12  and  O_13
REMARK    5  A    between atoms: C_14  and  O_15
REMARK                            x       y       z     vdW  Elec       q    Type
REMARK                         _______ _______ _______ _____ _____    ______ ____
ROOT
ATOM      1  C   LIG A   1      -8.232   1.215 129.710  0.00  0.00    +0.124 A 
ATOM      2  C   LIG A   1      -7.894   0.939 131.030  0.00  0.00    +0.091 A 
ATOM      3  C   LIG A   1      -8.243   1.853 132.032  0.00  0.00    +0.135 A 
ATOM      4  C   LIG A   1      -8.926   3.035 131.710  0.00  0.00    +0.105 A 
ATOM      5  C   LIG A   1      -9.328   4.041 132.721  0.00  0.00    +0.197 A 
ATOM      6  C   LIG A   1     -10.034   5.233 132.218  0.00  0.00    +0.098 A 
ATOM      7  C   LIG A   1     -10.278   5.360 130.907  0.00  0.00    +0.139 A 
ATOM      8  O   LIG A   1      -9.920   4.416 129.961  0.00  0.00    -0.454 OA
ATOM      9  O   LIG A   1      -9.113   3.946 133.922  0.00  0.00    -0.287 OA
ATOM     10  C   LIG A   1      -9.253   3.290 130.376  0.00  0.00    +0.146 A 
ATOM     11  C   LIG A   1      -8.908   2.382 129.374  0.00  0.00    +0.092 A 
ENDROOT
BRANCH   7  12
ATOM     12  C   LIG A   1     -10.991   6.529 130.355  0.00  0.00    +0.021 A 
ATOM     13  C   LIG A   1     -10.522   7.142 129.180  0.00  0.00    +0.060 A 
ATOM     14  C   LIG A   1     -11.186   8.251 128.665  0.00  0.00    +0.159 A 
ATOM     15  C   LIG A   1     -12.309   8.762 129.307  0.00  0.00    +0.158 A 
ATOM     16  C   LIG A   1     -12.784   8.181 130.472  0.00  0.00    +0.050 A 
ATOM     17  C   LIG A   1     -12.123   7.066 130.996  0.00  0.00    +0.015 A 
BRANCH  14  18
ATOM     18  O   LIG A   1     -10.769   8.878 127.522  0.00  0.00    -0.503 OA
ATOM     19  H   LIG A   1      -9.932   9.335 127.714  0.00  0.00    +0.292 HD
ENDBRANCH  14  18
BRANCH  15  20
ATOM     20  O   LIG A   1     -12.954   9.850 128.795  0.00  0.00    -0.503 OA
ATOM     21  H   LIG A   1     -13.121   9.618 127.859  0.00  0.00    +0.292 HD
ENDBRANCH  15  20
ENDBRANCH   7  12
BRANCH   1  22
ATOM     22  O   LIG A   1      -7.915   0.358 128.697  0.00  0.00    -0.506 OA
ATOM     23  H   LIG A   1      -7.134  -0.163 128.947  0.00  0.00    +0.292 HD
ENDBRANCH   1  22
BRANCH   3  24
ATOM     24  O   LIG A   1      -7.906   1.570 133.324  0.00  0.00    -0.506 OA
ATOM     25  H   LIG A   1      -7.691   2.379 133.813  0.00  0.00    +0.292 HD
ENDBRANCH   3  24
TORSDOF 5
ENDMDL
MODEL 8
REMARK VINA RESULT:      -7.1      3.896      8.108
REMARK  Name = NuBBE_564
REMARK  5 active torsions:
REMARK  status: ('A' for Active; 'I' for Inactive)
REMARK    1  A    between atoms: O_1  and  C_2
REMARK    2  A    between atoms: C_4  and  O_5
REMARK    3  A    between atoms: C_9  and  C_10
REMARK    4  A    between atoms: C_12  and  O_13
REMARK    5  A    between atoms: C_14  and  O_15
REMARK                            x       y       z     vdW  Elec       q    Type
REMARK                         _______ _______ _______ _____ _____    ______ ____
ROOT
ATOM      1  C   LIG A   1      -9.027   2.376 124.657  0.00  0.00    +0.124 A 
ATOM      2  C   LIG A   1      -9.669   1.737 123.602  0.00  0.00    +0.091 A 
ATOM      3  C   LIG A   1      -9.668   0.338 123.547  0.00  0.00    +0.135 A 
ATOM      4  C   LIG A   1      -9.027  -0.413 124.543  0.00  0.00    +0.105 A 
ATOM      5  C   LIG A   1      -8.991  -1.894 124.546  0.00  0.00    +0.197 A 
ATOM      6  C   LIG A   1      -8.270  -2.533 125.662  0.00  0.00    +0.098 A 
ATOM      7  C   LIG A   1      -7.690  -1.774 126.601  0.00  0.00    +0.139 A 
ATOM      8  O   LIG A   1      -7.734  -0.391 126.613  0.00  0.00    -0.454 OA
ATOM      9  O   LIG A   1      -9.512  -2.606 123.697  0.00  0.00    -0.287 OA
ATOM     10  C   LIG A   1      -8.388   0.253 125.591  0.00  0.00    +0.146 A 
ATOM     11  C   LIG A   1      -8.386   1.647 125.651  0.00  0.00    +0.092 A 
ENDROOT
BRANCH   7  12
ATOM     12  C   LIG A   1      -6.965  -2.365 127.745  0.00  0.00    +0.021 A 
ATOM     13  C   LIG A   1      -5.576  -2.181 127.861  0.00  0.00    +0.060 A 
ATOM     14  C   LIG A   1      -4.890  -2.748 128.931  0.00  0.00    +0.159 A 
ATOM     15  C   LIG A   1      -5.568  -3.499 129.885  0.00  0.00    +0.158 A 
ATOM     16  C   LIG A   1      -6.935  -3.701 129.787  0.00  0.00    +0.050 A 
ATOM     17  C   LIG A   1      -7.632  -3.136 128.715  0.00  0.00    +0.015 A 
BRANCH  14  18
ATOM     18  O   LIG A   1      -3.539  -2.593 129.087  0.00  0.00    -0.503 OA
ATOM     19  H   LIG A   1      -3.352  -2.495 130.037  0.00  0.00    +0.292 HD
ENDBRANCH  14  18
BRANCH  15  20
ATOM     20  O   LIG A   1      -4.887  -4.050 130.932  0.00  0.00    -0.503 OA
ATOM     21  H   LIG A   1      -5.535  -4.070 131.664  0.00  0.00    +0.292 HD
ENDBRANCH  15  20
ENDBRANCH   7  12
BRANCH   1  22
ATOM     22  O   LIG A   1      -9.000   3.737 124.757  0.00  0.00    -0.506 OA
ATOM     23  H   LIG A   1      -8.775   3.989 125.668  0.00  0.00    +0.292 HD
ENDBRANCH   1  22
BRANCH   3  24
ATOM     24  O   LIG A   1     -10.303  -0.278 122.507  0.00  0.00    -0.506 OA
ATOM     25  H   LIG A   1     -11.099  -0.742 122.810  0.00  0.00    +0.292 HD
ENDBRANCH   3  24
TORSDOF 5
ENDMDL
MODEL 9
REMARK VINA RESULT:      -7.0      7.672     10.819
REMARK  Name = NuBBE_564
REMARK  5 active torsions:
REMARK  status: ('A' for Active; 'I' for Inactive)
REMARK    1  A    between atoms: O_1  and  C_2
REMARK    2  A    between atoms: C_4  and  O_5
REMARK    3  A    between atoms: C_9  and  C_10
REMARK    4  A    between atoms: C_12  and  O_13
REMARK    5  A    between atoms: C_14  and  O_15
REMARK                            x       y       z     vdW  Elec       q    Type
REMARK                         _______ _______ _______ _____ _____    ______ ____
ROOT
ATOM      1  C   LIG A   1     -11.094   7.808 127.103  0.00  0.00    +0.124 A 
ATOM      2  C   LIG A   1     -12.097   8.589 127.666  0.00  0.00    +0.091 A 
ATOM      3  C   LIG A   1     -12.467   8.372 128.999  0.00  0.00    +0.135 A 
ATOM      4  C   LIG A   1     -11.834   7.379 129.761  0.00  0.00    +0.105 A 
ATOM      5  C   LIG A   1     -12.175   7.100 131.175  0.00  0.00    +0.197 A 
ATOM      6  C   LIG A   1     -11.420   6.017 131.833  0.00  0.00    +0.098 A 
ATOM      7  C   LIG A   1     -10.486   5.346 131.148  0.00  0.00    +0.139 A 
ATOM      8  O   LIG A   1     -10.152   5.612 129.832  0.00  0.00    -0.454 OA
ATOM      9  O   LIG A   1     -13.026   7.700 131.818  0.00  0.00    -0.287 OA
ATOM     10  C   LIG A   1     -10.831   6.607 129.171  0.00  0.00    +0.146 A 
ATOM     11  C   LIG A   1     -10.458   6.819 127.843  0.00  0.00    +0.092 A 
ENDROOT
BRANCH   7  12
ATOM     12  C   LIG A   1      -9.696   4.260 131.764  0.00  0.00    +0.021 A 
ATOM     13  C   LIG A   1      -9.341   3.135 130.999  0.00  0.00    +0.060 A 
ATOM     14  C   LIG A   1      -8.607   2.106 131.582  0.00  0.00    +0.159 A 
ATOM     15  C   LIG A   1      -8.225   2.180 132.917  0.00  0.00    +0.158 A 
ATOM     16  C   LIG A   1      -8.571   3.275 133.693  0.00  0.00    +0.050 A 
ATOM     17  C   LIG A   1      -9.309   4.313 133.116  0.00  0.00    +0.015 A 
BRANCH  14  18
ATOM     18  O   LIG A   1      -8.236   0.993 130.877  0.00  0.00    -0.503 OA
ATOM     19  H   LIG A   1      -9.004   0.687 130.365  0.00  0.00    +0.292 HD
ENDBRANCH  14  18
BRANCH  15  20
ATOM     20  O   LIG A   1      -7.505   1.166 133.480  0.00  0.00    -0.503 OA
ATOM     21  H   LIG A   1      -6.578   1.479 133.452  0.00  0.00    +0.292 HD
ENDBRANCH  15  20
ENDBRANCH   7  12
BRANCH   1  22
ATOM     22  O   LIG A   1     -10.697   7.980 125.809  0.00  0.00    -0.506 OA
ATOM     23  H   LIG A   1     -11.374   8.484 125.327  0.00  0.00    +0.292 HD
ENDBRANCH   1  22
BRANCH   3  24
ATOM     24  O   LIG A   1     -13.453   9.146 129.541  0.00  0.00    -0.506 OA
ATOM     25  H   LIG A   1     -13.714   8.817 130.415  0.00  0.00    +0.292 HD
ENDBRANCH   3  24
TORSDOF 5
ENDMDL
