MODEL 1
REMARK VINA RESULT:      -4.6      0.000      0.000
REMARK  Name = NuBBE_2126
REMARK  1 active torsions:
REMARK  status: ('A' for Active; 'I' for Inactive)
REMARK    1  A    between atoms: C_1  and  C_2
REMARK                            x       y       z     vdW  Elec       q    Type
REMARK                         _______ _______ _______ _____ _____    ______ ____
ROOT
ATOM      1  C   LIG A   1     -12.930   9.487 129.611  0.00  0.00    +0.007 C 
ATOM      2  C   LIG A   1     -12.327   8.080 129.609  0.00  0.00    -0.014 C 
ATOM      3  C   LIG A   1     -13.229   7.078 128.874  0.00  0.00    +0.003 C 
ATOM      4  C   LIG A   1     -13.224   7.271 127.359  0.00  0.00    +0.000 C 
ATOM      5  C   LIG A   1     -11.808   7.262 126.791  0.00  0.00    +0.000 C 
ATOM      6  C   LIG A   1     -10.900   8.264 127.497  0.00  0.00    +0.000 C 
ATOM      7  C   LIG A   1     -10.912   8.069 129.013  0.00  0.00    +0.003 C 
ENDROOT
TORSDOF 0
ENDMDL
MODEL 2
REMARK VINA RESULT:      -4.4      0.900      2.160
REMARK  Name = NuBBE_2126
REMARK  1 active torsions:
REMARK  status: ('A' for Active; 'I' for Inactive)
REMARK    1  A    between atoms: C_1  and  C_2
REMARK                            x       y       z     vdW  Elec       q    Type
REMARK                         _______ _______ _______ _____ _____    ______ ____
ROOT
ATOM      1  C   LIG A   1     -12.406   7.715 130.337  0.00  0.00    +0.007 C 
ATOM      2  C   LIG A   1     -12.339   8.697 129.165  0.00  0.00    -0.014 C 
ATOM      3  C   LIG A   1     -10.977   8.643 128.456  0.00  0.00    +0.003 C 
ATOM      4  C   LIG A   1     -10.785   7.373 127.630  0.00  0.00    +0.000 C 
ATOM      5  C   LIG A   1     -11.931   7.159 126.645  0.00  0.00    +0.000 C 
ATOM      6  C   LIG A   1     -13.293   7.193 127.333  0.00  0.00    +0.000 C 
ATOM      7  C   LIG A   1     -13.478   8.463 128.162  0.00  0.00    +0.003 C 
ENDROOT
TORSDOF 0
ENDMDL
MODEL 3
REMARK VINA RESULT:      -4.3      1.050      2.864
REMARK  Name = NuBBE_2126
REMARK  1 active torsions:
REMARK  status: ('A' for Active; 'I' for Inactive)
REMARK    1  A    between atoms: C_1  and  C_2
REMARK                            x       y       z     vdW  Elec       q    Type
REMARK                         _______ _______ _______ _____ _____    ______ ____
ROOT
ATOM      1  C   LIG A   1     -11.085   8.175 127.601  0.00  0.00    +0.007 C 
ATOM      2  C   LIG A   1     -12.561   7.892 127.891  0.00  0.00    -0.014 C 
ATOM      3  C   LIG A   1     -12.744   6.590 128.684  0.00  0.00    +0.003 C 
ATOM      4  C   LIG A   1     -12.301   6.712 130.141  0.00  0.00    +0.000 C 
ATOM      5  C   LIG A   1     -12.975   7.887 130.842  0.00  0.00    +0.000 C 
ATOM      6  C   LIG A   1     -12.791   9.195 130.077  0.00  0.00    +0.000 C 
ATOM      7  C   LIG A   1     -13.231   9.066 128.620  0.00  0.00    +0.003 C 
ENDROOT
TORSDOF 0
ENDMDL
MODEL 4
REMARK VINA RESULT:      -4.3      1.067      2.415
REMARK  Name = NuBBE_2126
REMARK  1 active torsions:
REMARK  status: ('A' for Active; 'I' for Inactive)
REMARK    1  A    between atoms: C_1  and  C_2
REMARK                            x       y       z     vdW  Elec       q    Type
REMARK                         _______ _______ _______ _____ _____    ______ ____
ROOT
ATOM      1  C   LIG A   1     -13.520   7.622 127.713  0.00  0.00    +0.007 C 
ATOM      2  C   LIG A   1     -12.567   8.633 128.356  0.00  0.00    -0.014 C 
ATOM      3  C   LIG A   1     -12.700   8.643 129.887  0.00  0.00    +0.003 C 
ATOM      4  C   LIG A   1     -12.105   7.400 130.545  0.00  0.00    +0.000 C 
ATOM      5  C   LIG A   1     -10.659   7.169 130.116  0.00  0.00    +0.000 C 
ATOM      6  C   LIG A   1     -10.508   7.139 128.598  0.00  0.00    +0.000 C 
ATOM      7  C   LIG A   1     -11.109   8.382 127.943  0.00  0.00    +0.003 C 
ENDROOT
TORSDOF 0
ENDMDL
MODEL 5
REMARK VINA RESULT:      -4.3     11.541     12.316
REMARK  Name = NuBBE_2126
REMARK  1 active torsions:
REMARK  status: ('A' for Active; 'I' for Inactive)
REMARK    1  A    between atoms: C_1  and  C_2
REMARK                            x       y       z     vdW  Elec       q    Type
REMARK                         _______ _______ _______ _____ _____    ______ ____
ROOT
ATOM      1  C   LIG A   1      -9.220  -2.840 125.830  0.00  0.00    +0.007 C 
ATOM      2  C   LIG A   1      -8.793  -3.651 124.604  0.00  0.00    -0.014 C 
ATOM      3  C   LIG A   1      -9.435  -3.113 123.316  0.00  0.00    +0.003 C 
ATOM      4  C   LIG A   1      -8.836  -1.784 122.862  0.00  0.00    +0.000 C 
ATOM      5  C   LIG A   1      -7.318  -1.861 122.734  0.00  0.00    +0.000 C 
ATOM      6  C   LIG A   1      -6.659  -2.378 124.009  0.00  0.00    +0.000 C 
ATOM      7  C   LIG A   1      -7.265  -3.706 124.463  0.00  0.00    +0.003 C 
ENDROOT
TORSDOF 0
ENDMDL
MODEL 6
REMARK VINA RESULT:      -4.3      1.090      2.471
REMARK  Name = NuBBE_2126
REMARK  1 active torsions:
REMARK  status: ('A' for Active; 'I' for Inactive)
REMARK    1  A    between atoms: C_1  and  C_2
REMARK                            x       y       z     vdW  Elec       q    Type
REMARK                         _______ _______ _______ _____ _____    ______ ____
ROOT
ATOM      1  C   LIG A   1     -13.121   9.781 129.278  0.00  0.00    +0.007 C 
ATOM      2  C   LIG A   1     -12.959   8.403 128.631  0.00  0.00    -0.014 C 
ATOM      3  C   LIG A   1     -11.707   8.338 127.743  0.00  0.00    +0.003 C 
ATOM      4  C   LIG A   1     -10.408   8.308 128.546  0.00  0.00    +0.000 C 
ATOM      5  C   LIG A   1     -10.410   7.190 129.585  0.00  0.00    +0.000 C 
ATOM      6  C   LIG A   1     -11.638   7.247 130.488  0.00  0.00    +0.000 C 
ATOM      7  C   LIG A   1     -12.935   7.282 129.680  0.00  0.00    +0.003 C 
ENDROOT
TORSDOF 0
ENDMDL
MODEL 7
REMARK VINA RESULT:      -4.1     11.691     12.555
REMARK  Name = NuBBE_2126
REMARK  1 active torsions:
REMARK  status: ('A' for Active; 'I' for Inactive)
REMARK    1  A    between atoms: C_1  and  C_2
REMARK                            x       y       z     vdW  Elec       q    Type
REMARK                         _______ _______ _______ _____ _____    ______ ____
ROOT
ATOM      1  C   LIG A   1      -6.078  -1.376 124.928  0.00  0.00    +0.007 C 
ATOM      2  C   LIG A   1      -6.192  -2.413 123.808  0.00  0.00    -0.014 C 
ATOM      3  C   LIG A   1      -6.838  -3.715 124.306  0.00  0.00    +0.003 C 
ATOM      4  C   LIG A   1      -8.336  -3.576 124.567  0.00  0.00    +0.000 C 
ATOM      5  C   LIG A   1      -9.074  -3.020 123.352  0.00  0.00    +0.000 C 
ATOM      6  C   LIG A   1      -8.457  -1.716 122.853  0.00  0.00    +0.000 C 
ATOM      7  C   LIG A   1      -6.957  -1.860 122.598  0.00  0.00    +0.003 C 
ENDROOT
TORSDOF 0
ENDMDL
MODEL 8
REMARK VINA RESULT:      -4.0      1.129      2.288
REMARK  Name = NuBBE_2126
REMARK  1 active torsions:
REMARK  status: ('A' for Active; 'I' for Inactive)
REMARK    1  A    between atoms: C_1  and  C_2
REMARK                            x       y       z     vdW  Elec       q    Type
REMARK                         _______ _______ _______ _____ _____    ______ ____
ROOT
ATOM      1  C   LIG A   1     -12.043   5.976 129.600  0.00  0.00    +0.007 C 
ATOM      2  C   LIG A   1     -11.576   6.968 128.531  0.00  0.00    -0.014 C 
ATOM      3  C   LIG A   1     -12.585   7.074 127.377  0.00  0.00    +0.003 C 
ATOM      4  C   LIG A   1     -13.858   7.822 127.766  0.00  0.00    +0.000 C 
ATOM      5  C   LIG A   1     -13.551   9.193 128.361  0.00  0.00    +0.000 C 
ATOM      6  C   LIG A   1     -12.563   9.108 129.520  0.00  0.00    +0.000 C 
ATOM      7  C   LIG A   1     -11.292   8.354 129.128  0.00  0.00    +0.003 C 
ENDROOT
TORSDOF 0
ENDMDL
MODEL 9
REMARK VINA RESULT:      -3.9     10.848     12.152
REMARK  Name = NuBBE_2126
REMARK  1 active torsions:
REMARK  status: ('A' for Active; 'I' for Inactive)
REMARK    1  A    between atoms: C_1  and  C_2
REMARK                            x       y       z     vdW  Elec       q    Type
REMARK                         _______ _______ _______ _____ _____    ______ ____
ROOT
ATOM      1  C   LIG A   1      -9.541  -3.115 123.280  0.00  0.00    +0.007 C 
ATOM      2  C   LIG A   1      -8.897  -3.666 124.555  0.00  0.00    -0.014 C 
ATOM      3  C   LIG A   1      -7.366  -3.708 124.444  0.00  0.00    +0.003 C 
ATOM      4  C   LIG A   1      -6.725  -2.324 124.509  0.00  0.00    +0.000 C 
ATOM      5  C   LIG A   1      -7.169  -1.551 125.747  0.00  0.00    +0.000 C 
ATOM      6  C   LIG A   1      -8.689  -1.483 125.867  0.00  0.00    +0.000 C 
ATOM      7  C   LIG A   1      -9.326  -2.870 125.796  0.00  0.00    +0.003 C 
ENDROOT
TORSDOF 0
ENDMDL
