MODEL 1
REMARK VINA RESULT:      -6.9      0.000      0.000
REMARK  Name = NuBBE_1835
REMARK  13 active torsions:
REMARK  status: ('A' for Active; 'I' for Inactive)
REMARK    1  A    between atoms: C_1  and  C_2
REMARK    2  A    between atoms: C_4  and  C_19
REMARK    3  A    between atoms: C_10  and  O_17
REMARK    4  A    between atoms: C_11  and  O_13
REMARK    5  A    between atoms: O_13  and  C_14
REMARK    6  A    between atoms: C_14  and  C_15
REMARK    7  A    between atoms: O_17  and  C_18
REMARK    8  A    between atoms: C_21  and  O_22
REMARK    9  A    between atoms: O_22  and  C_23
REMARK   10  A    between atoms: C_24  and  O_29
REMARK   11  A    between atoms: C_25  and  O_27
REMARK   12  A    between atoms: O_27  and  C_28
REMARK   13  A    between atoms: O_29  and  C_30
REMARK                            x       y       z     vdW  Elec       q    Type
REMARK                         _______ _______ _______ _____ _____    ______ ____
ROOT
ATOM      1  C   LIG A   1      -7.970   1.310 131.569  0.00  0.00    +0.016 C 
ATOM      2  C   LIG A   1      -8.604   1.557 130.203  0.00  0.00    +0.065 C 
ATOM      3  C   LIG A   1      -7.553   1.475 129.065  0.00  0.00    +0.211 C 
ATOM      4  O   LIG A   1      -7.270   2.806 128.563  0.00  0.00    -0.483 OA
ATOM      5  C   LIG A   1      -8.254   3.595 129.091  0.00  0.00    +0.129 A 
ATOM      6  C   LIG A   1      -9.059   2.959 130.015  0.00  0.00    +0.005 A 
ATOM      7  C   LIG A   1     -10.112   3.638 130.602  0.00  0.00    +0.057 A 
ATOM      8  C   LIG A   1     -10.352   4.978 130.243  0.00  0.00    +0.162 A 
ATOM      9  C   LIG A   1      -9.505   5.618 129.305  0.00  0.00    +0.166 A 
ATOM     10  C   LIG A   1      -8.444   4.913 128.728  0.00  0.00    +0.095 A 
ENDROOT
BRANCH   3  11
ATOM     11  C   LIG A   1      -8.006   0.565 127.937  0.00  0.00    +0.000 A 
ATOM     12  C   LIG A   1      -8.710   1.041 126.829  0.00  0.00    +0.057 A 
ATOM     13  C   LIG A   1      -9.227   0.166 125.868  0.00  0.00    +0.166 A 
ATOM     14  C   LIG A   1      -8.978  -1.227 125.985  0.00  0.00    +0.203 A 
ATOM     15  C   LIG A   1      -8.188  -1.701 127.055  0.00  0.00    +0.166 A 
ATOM     16  C   LIG A   1      -7.767  -0.804 128.041  0.00  0.00    +0.057 A 
BRANCH  13  17
ATOM     17  O   LIG A   1     -10.011   0.587 124.817  0.00  0.00    -0.491 OA
ATOM     18  C   LIG A   1      -9.689   1.828 124.188  0.00  0.00    +0.277 C 
ENDBRANCH  13  17
BRANCH  15  19
ATOM     19  O   LIG A   1      -7.898  -3.037 127.163  0.00  0.00    -0.491 OA
ATOM     20  C   LIG A   1      -8.744  -3.818 128.007  0.00  0.00    +0.277 C 
ENDBRANCH  15  19
BRANCH  14  21
ATOM     21  O   LIG A   1      -9.499  -2.009 124.977  0.00  0.00    -0.488 OA
ATOM     22  C   LIG A   1      -8.622  -2.355 123.909  0.00  0.00    +0.277 C 
ENDBRANCH  14  21
ENDBRANCH   3  11
BRANCH   8  23
ATOM     23  O   LIG A   1     -11.456   5.495 130.874  0.00  0.00    -0.491 OA
ATOM     24  C   LIG A   1     -11.276   6.288 132.039  0.00  0.00    +0.277 C 
ENDBRANCH   8  23
BRANCH   9  25
ATOM     25  O   LIG A   1      -9.702   6.949 129.045  0.00  0.00    -0.484 OA
BRANCH  25  26
ATOM     26  C   LIG A   1     -10.400   7.290 127.850  0.00  0.00    +0.256 C 
BRANCH  26  27
ATOM     27  C   LIG A   1     -11.213   8.503 128.164  0.00  0.00    +0.006 C 
ATOM     28  C   LIG A   1     -12.099   8.593 129.209  0.00  0.00    +0.007 C 
ENDBRANCH  26  27
ENDBRANCH  25  26
ENDBRANCH   9  25
TORSDOF 8
ENDMDL
MODEL 2
REMARK VINA RESULT:      -6.5      1.843      7.791
REMARK  Name = NuBBE_1835
REMARK  13 active torsions:
REMARK  status: ('A' for Active; 'I' for Inactive)
REMARK    1  A    between atoms: C_1  and  C_2
REMARK    2  A    between atoms: C_4  and  C_19
REMARK    3  A    between atoms: C_10  and  O_17
REMARK    4  A    between atoms: C_11  and  O_13
REMARK    5  A    between atoms: O_13  and  C_14
REMARK    6  A    between atoms: C_14  and  C_15
REMARK    7  A    between atoms: O_17  and  C_18
REMARK    8  A    between atoms: C_21  and  O_22
REMARK    9  A    between atoms: O_22  and  C_23
REMARK   10  A    between atoms: C_24  and  O_29
REMARK   11  A    between atoms: C_25  and  O_27
REMARK   12  A    between atoms: O_27  and  C_28
REMARK   13  A    between atoms: O_29  and  C_30
REMARK                            x       y       z     vdW  Elec       q    Type
REMARK                         _______ _______ _______ _____ _____    ______ ____
ROOT
ATOM      1  C   LIG A   1      -5.712   3.888 125.906  0.00  0.00    +0.016 C 
ATOM      2  C   LIG A   1      -7.179   3.683 126.272  0.00  0.00    +0.065 C 
ATOM      3  C   LIG A   1      -7.328   2.917 127.613  0.00  0.00    +0.211 C 
ATOM      4  O   LIG A   1      -7.772   1.559 127.356  0.00  0.00    -0.483 OA
ATOM      5  C   LIG A   1      -8.167   1.564 126.046  0.00  0.00    +0.129 A 
ATOM      6  C   LIG A   1      -7.879   2.733 125.369  0.00  0.00    +0.005 A 
ATOM      7  C   LIG A   1      -8.254   2.877 124.045  0.00  0.00    +0.057 A 
ATOM      8  C   LIG A   1      -8.930   1.823 123.403  0.00  0.00    +0.162 A 
ATOM      9  C   LIG A   1      -9.201   0.625 124.109  0.00  0.00    +0.166 A 
ATOM     10  C   LIG A   1      -8.809   0.500 125.446  0.00  0.00    +0.095 A 
ENDROOT
BRANCH   3  11
ATOM     11  C   LIG A   1      -8.281   3.617 128.565  0.00  0.00    +0.000 A 
ATOM     12  C   LIG A   1      -8.586   4.976 128.454  0.00  0.00    +0.057 A 
ATOM     13  C   LIG A   1      -9.365   5.626 129.416  0.00  0.00    +0.166 A 
ATOM     14  C   LIG A   1      -9.911   4.879 130.494  0.00  0.00    +0.203 A 
ATOM     15  C   LIG A   1      -9.681   3.488 130.558  0.00  0.00    +0.166 A 
ATOM     16  C   LIG A   1      -8.824   2.894 129.626  0.00  0.00    +0.057 A 
BRANCH  13  17
ATOM     17  O   LIG A   1      -9.603   6.982 129.396  0.00  0.00    -0.491 OA
ATOM     18  C   LIG A   1     -10.534   7.490 128.440  0.00  0.00    +0.277 C 
ENDBRANCH  13  17
BRANCH  15  19
ATOM     19  O   LIG A   1     -10.235   2.740 131.565  0.00  0.00    -0.491 OA
ATOM     20  C   LIG A   1      -9.361   2.312 132.611  0.00  0.00    +0.277 C 
ENDBRANCH  15  19
BRANCH  14  21
ATOM     21  O   LIG A   1     -10.691   5.595 131.376  0.00  0.00    -0.488 OA
ATOM     22  C   LIG A   1     -10.071   6.023 132.585  0.00  0.00    +0.277 C 
ENDBRANCH  14  21
ENDBRANCH   3  11
BRANCH   8  23
ATOM     23  O   LIG A   1      -9.273   2.137 122.111  0.00  0.00    -0.491 OA
ATOM     24  C   LIG A   1      -8.636   3.237 121.476  0.00  0.00    +0.277 C 
ENDBRANCH   8  23
BRANCH   9  25
ATOM     25  O   LIG A   1      -9.775  -0.419 123.434  0.00  0.00    -0.484 OA
BRANCH  25  26
ATOM     26  C   LIG A   1      -8.905  -1.358 122.808  0.00  0.00    +0.256 C 
BRANCH  26  27
ATOM     27  C   LIG A   1      -9.372  -2.714 123.223  0.00  0.00    +0.006 C 
ATOM     28  C   LIG A   1      -9.069  -3.303 124.426  0.00  0.00    +0.007 C 
ENDBRANCH  26  27
ENDBRANCH  25  26
ENDBRANCH   9  25
TORSDOF 8
ENDMDL
MODEL 3
REMARK VINA RESULT:      -6.4      2.607      8.269
REMARK  Name = NuBBE_1835
REMARK  13 active torsions:
REMARK  status: ('A' for Active; 'I' for Inactive)
REMARK    1  A    between atoms: C_1  and  C_2
REMARK    2  A    between atoms: C_4  and  C_19
REMARK    3  A    between atoms: C_10  and  O_17
REMARK    4  A    between atoms: C_11  and  O_13
REMARK    5  A    between atoms: O_13  and  C_14
REMARK    6  A    between atoms: C_14  and  C_15
REMARK    7  A    between atoms: O_17  and  C_18
REMARK    8  A    between atoms: C_21  and  O_22
REMARK    9  A    between atoms: O_22  and  C_23
REMARK   10  A    between atoms: C_24  and  O_29
REMARK   11  A    between atoms: C_25  and  O_27
REMARK   12  A    between atoms: O_27  and  C_28
REMARK   13  A    between atoms: O_29  and  C_30
REMARK                            x       y       z     vdW  Elec       q    Type
REMARK                         _______ _______ _______ _____ _____    ______ ____
ROOT
ATOM      1  C   LIG A   1      -4.713  -2.578 129.281  0.00  0.00    +0.016 C 
ATOM      2  C   LIG A   1      -5.758  -1.669 128.641  0.00  0.00    +0.065 C 
ATOM      3  C   LIG A   1      -7.090  -1.685 129.437  0.00  0.00    +0.211 C 
ATOM      4  O   LIG A   1      -8.091  -2.435 128.701  0.00  0.00    -0.483 OA
ATOM      5  C   LIG A   1      -7.559  -2.596 127.452  0.00  0.00    +0.129 A 
ATOM      6  C   LIG A   1      -6.249  -2.174 127.332  0.00  0.00    +0.005 A 
ATOM      7  C   LIG A   1      -5.604  -2.254 126.111  0.00  0.00    +0.057 A 
ATOM      8  C   LIG A   1      -6.298  -2.766 124.999  0.00  0.00    +0.162 A 
ATOM      9  C   LIG A   1      -7.636  -3.208 125.146  0.00  0.00    +0.166 A 
ATOM     10  C   LIG A   1      -8.267  -3.122 126.391  0.00  0.00    +0.095 A 
ENDROOT
BRANCH   3  11
ATOM     11  C   LIG A   1      -7.589  -0.283 129.738  0.00  0.00    +0.000 A 
ATOM     12  C   LIG A   1      -7.825   0.164 131.040  0.00  0.00    +0.057 A 
ATOM     13  C   LIG A   1      -8.405   1.413 131.284  0.00  0.00    +0.166 A 
ATOM     14  C   LIG A   1      -8.701   2.271 130.192  0.00  0.00    +0.203 A 
ATOM     15  C   LIG A   1      -8.379   1.859 128.881  0.00  0.00    +0.166 A 
ATOM     16  C   LIG A   1      -7.883   0.568 128.674  0.00  0.00    +0.057 A 
BRANCH  13  17
ATOM     17  O   LIG A   1      -8.745   1.847 132.545  0.00  0.00    -0.491 OA
ATOM     18  C   LIG A   1      -7.706   2.333 133.396  0.00  0.00    +0.277 C 
ENDBRANCH  13  17
BRANCH  15  19
ATOM     19  O   LIG A   1      -8.615   2.690 127.816  0.00  0.00    -0.491 OA
ATOM     20  C   LIG A   1      -8.147   2.256 126.538  0.00  0.00    +0.277 C 
ENDBRANCH  15  19
BRANCH  14  21
ATOM     21  O   LIG A   1      -9.241   3.494 130.528  0.00  0.00    -0.488 OA
ATOM     22  C   LIG A   1     -10.658   3.616 130.452  0.00  0.00    +0.277 C 
ENDBRANCH  14  21
ENDBRANCH   3  11
BRANCH   8  23
ATOM     23  O   LIG A   1      -5.539  -2.736 123.855  0.00  0.00    -0.491 OA
ATOM     24  C   LIG A   1      -4.644  -3.808 123.593  0.00  0.00    +0.277 C 
ENDBRANCH   8  23
BRANCH   9  25
ATOM     25  O   LIG A   1      -8.256  -3.788 124.070  0.00  0.00    -0.484 OA
BRANCH  25  26
ATOM     26  C   LIG A   1      -9.498  -3.233 123.648  0.00  0.00    +0.256 C 
BRANCH  26  27
ATOM     27  C   LIG A   1      -9.169  -2.099 122.734  0.00  0.00    +0.006 C 
ATOM     28  C   LIG A   1      -9.028  -0.794 123.137  0.00  0.00    +0.007 C 
ENDBRANCH  26  27
ENDBRANCH  25  26
ENDBRANCH   9  25
TORSDOF 8
ENDMDL
MODEL 4
REMARK VINA RESULT:      -6.4      3.540      5.241
REMARK  Name = NuBBE_1835
REMARK  13 active torsions:
REMARK  status: ('A' for Active; 'I' for Inactive)
REMARK    1  A    between atoms: C_1  and  C_2
REMARK    2  A    between atoms: C_4  and  C_19
REMARK    3  A    between atoms: C_10  and  O_17
REMARK    4  A    between atoms: C_11  and  O_13
REMARK    5  A    between atoms: O_13  and  C_14
REMARK    6  A    between atoms: C_14  and  C_15
REMARK    7  A    between atoms: O_17  and  C_18
REMARK    8  A    between atoms: C_21  and  O_22
REMARK    9  A    between atoms: O_22  and  C_23
REMARK   10  A    between atoms: C_24  and  O_29
REMARK   11  A    between atoms: C_25  and  O_27
REMARK   12  A    between atoms: O_27  and  C_28
REMARK   13  A    between atoms: O_29  and  C_30
REMARK                            x       y       z     vdW  Elec       q    Type
REMARK                         _______ _______ _______ _____ _____    ______ ____
ROOT
ATOM      1  C   LIG A   1      -5.613  -3.142 128.946  0.00  0.00    +0.016 C 
ATOM      2  C   LIG A   1      -6.705  -2.077 128.918  0.00  0.00    +0.065 C 
ATOM      3  C   LIG A   1      -6.260  -0.827 128.112  0.00  0.00    +0.211 C 
ATOM      4  O   LIG A   1      -5.981   0.268 129.022  0.00  0.00    -0.483 OA
ATOM      5  C   LIG A   1      -6.495  -0.136 130.223  0.00  0.00    +0.129 A 
ATOM      6  C   LIG A   1      -6.938  -1.443 130.242  0.00  0.00    +0.005 A 
ATOM      7  C   LIG A   1      -7.508  -1.965 131.390  0.00  0.00    +0.057 A 
ATOM      8  C   LIG A   1      -7.632  -1.149 132.529  0.00  0.00    +0.162 A 
ATOM      9  C   LIG A   1      -7.156   0.186 132.495  0.00  0.00    +0.166 A 
ATOM     10  C   LIG A   1      -6.579   0.691 131.325  0.00  0.00    +0.095 A 
ENDROOT
BRANCH   3  11
ATOM     11  C   LIG A   1      -7.299  -0.415 127.085  0.00  0.00    +0.000 A 
ATOM     12  C   LIG A   1      -7.573   0.923 126.793  0.00  0.00    +0.057 A 
ATOM     13  C   LIG A   1      -8.621   1.280 125.937  0.00  0.00    +0.166 A 
ATOM     14  C   LIG A   1      -9.382   0.262 125.304  0.00  0.00    +0.203 A 
ATOM     15  C   LIG A   1      -9.048  -1.092 125.526  0.00  0.00    +0.166 A 
ATOM     16  C   LIG A   1      -8.052  -1.405 126.456  0.00  0.00    +0.057 A 
BRANCH  13  17
ATOM     17  O   LIG A   1      -8.985   2.587 125.704  0.00  0.00    -0.491 OA
ATOM     18  C   LIG A   1      -8.091   3.414 124.958  0.00  0.00    +0.277 C 
ENDBRANCH  13  17
BRANCH  15  19
ATOM     19  O   LIG A   1      -9.742  -2.089 124.890  0.00  0.00    -0.491 OA
ATOM     20  C   LIG A   1      -9.038  -2.837 123.898  0.00  0.00    +0.277 C 
ENDBRANCH  15  19
BRANCH  14  21
ATOM     21  O   LIG A   1     -10.373   0.705 124.455  0.00  0.00    -0.488 OA
ATOM     22  C   LIG A   1     -10.042   0.810 123.074  0.00  0.00    +0.277 C 
ENDBRANCH  14  21
ENDBRANCH   3  11
BRANCH   8  23
ATOM     23  O   LIG A   1      -8.258  -1.795 133.566  0.00  0.00    -0.491 OA
ATOM     24  C   LIG A   1      -7.989  -3.173 133.781  0.00  0.00    +0.277 C 
ENDBRANCH   8  23
BRANCH   9  25
ATOM     25  O   LIG A   1      -7.203   0.928 133.645  0.00  0.00    -0.484 OA
BRANCH  25  26
ATOM     26  C   LIG A   1      -7.224   2.346 133.514  0.00  0.00    +0.256 C 
BRANCH  26  27
ATOM     27  C   LIG A   1      -8.655   2.735 133.335  0.00  0.00    +0.006 C 
ATOM     28  C   LIG A   1      -9.227   3.859 133.880  0.00  0.00    +0.007 C 
ENDBRANCH  26  27
ENDBRANCH  25  26
ENDBRANCH   9  25
TORSDOF 8
ENDMDL
MODEL 5
REMARK VINA RESULT:      -6.4      4.400      8.282
REMARK  Name = NuBBE_1835
REMARK  13 active torsions:
REMARK  status: ('A' for Active; 'I' for Inactive)
REMARK    1  A    between atoms: C_1  and  C_2
REMARK    2  A    between atoms: C_4  and  C_19
REMARK    3  A    between atoms: C_10  and  O_17
REMARK    4  A    between atoms: C_11  and  O_13
REMARK    5  A    between atoms: O_13  and  C_14
REMARK    6  A    between atoms: C_14  and  C_15
REMARK    7  A    between atoms: O_17  and  C_18
REMARK    8  A    between atoms: C_21  and  O_22
REMARK    9  A    between atoms: O_22  and  C_23
REMARK   10  A    between atoms: C_24  and  O_29
REMARK   11  A    between atoms: C_25  and  O_27
REMARK   12  A    between atoms: O_27  and  C_28
REMARK   13  A    between atoms: O_29  and  C_30
REMARK                            x       y       z     vdW  Elec       q    Type
REMARK                         _______ _______ _______ _____ _____    ______ ____
ROOT
ATOM      1  C   LIG A   1      -9.795   1.962 132.211  0.00  0.00    +0.016 C 
ATOM      2  C   LIG A   1      -8.806   3.116 132.348  0.00  0.00    +0.065 C 
ATOM      3  C   LIG A   1      -9.089   3.960 133.619  0.00  0.00    +0.211 C 
ATOM      4  O   LIG A   1      -9.676   5.232 133.241  0.00  0.00    -0.483 OA
ATOM      5  C   LIG A   1      -9.487   5.316 131.890  0.00  0.00    +0.129 A 
ATOM      6  C   LIG A   1      -8.986   4.166 131.312  0.00  0.00    +0.005 A 
ATOM      7  C   LIG A   1      -8.721   4.130 129.955  0.00  0.00    +0.057 A 
ATOM      8  C   LIG A   1      -8.966   5.276 129.176  0.00  0.00    +0.162 A 
ATOM      9  C   LIG A   1      -9.497   6.441 129.784  0.00  0.00    +0.166 A 
ATOM     10  C   LIG A   1      -9.761   6.453 131.157  0.00  0.00    +0.095 A 
ENDROOT
BRANCH   3  11
ATOM     11  C   LIG A   1      -7.836   4.176 134.449  0.00  0.00    +0.000 A 
ATOM     12  C   LIG A   1      -6.743   3.309 134.394  0.00  0.00    +0.057 A 
ATOM     13  C   LIG A   1      -5.654   3.458 135.259  0.00  0.00    +0.166 A 
ATOM     14  C   LIG A   1      -5.629   4.549 136.169  0.00  0.00    +0.203 A 
ATOM     15  C   LIG A   1      -6.691   5.479 136.163  0.00  0.00    +0.166 A 
ATOM     16  C   LIG A   1      -7.800   5.244 135.345  0.00  0.00    +0.057 A 
BRANCH  13  17
ATOM     17  O   LIG A   1      -4.606   2.567 135.304  0.00  0.00    -0.491 OA
ATOM     18  C   LIG A   1      -3.888   2.307 134.098  0.00  0.00    +0.277 C 
ENDBRANCH  13  17
BRANCH  15  19
ATOM     19  O   LIG A   1      -6.666   6.564 137.002  0.00  0.00    -0.491 OA
ATOM     20  C   LIG A   1      -7.338   6.430 138.255  0.00  0.00    +0.277 C 
ENDBRANCH  15  19
BRANCH  14  21
ATOM     21  O   LIG A   1      -4.505   4.634 136.961  0.00  0.00    -0.488 OA
ATOM     22  C   LIG A   1      -3.460   5.490 136.509  0.00  0.00    +0.277 C 
ENDBRANCH  14  21
ENDBRANCH   3  11
BRANCH   8  23
ATOM     23  O   LIG A   1      -8.609   5.098 127.862  0.00  0.00    -0.491 OA
ATOM     24  C   LIG A   1      -7.694   4.062 127.532  0.00  0.00    +0.277 C 
ENDBRANCH   8  23
BRANCH   9  25
ATOM     25  O   LIG A   1      -9.814   7.510 128.987  0.00  0.00    -0.484 OA
BRANCH  25  26
ATOM     26  C   LIG A   1     -11.153   7.996 129.039  0.00  0.00    +0.256 C 
BRANCH  26  27
ATOM     27  C   LIG A   1     -11.719   7.829 127.667  0.00  0.00    +0.006 C 
ATOM     28  C   LIG A   1     -10.966   7.630 126.536  0.00  0.00    +0.007 C 
ENDBRANCH  26  27
ENDBRANCH  25  26
ENDBRANCH   9  25
TORSDOF 8
ENDMDL
MODEL 6
REMARK VINA RESULT:      -6.3      4.243      7.996
REMARK  Name = NuBBE_1835
REMARK  13 active torsions:
REMARK  status: ('A' for Active; 'I' for Inactive)
REMARK    1  A    between atoms: C_1  and  C_2
REMARK    2  A    between atoms: C_4  and  C_19
REMARK    3  A    between atoms: C_10  and  O_17
REMARK    4  A    between atoms: C_11  and  O_13
REMARK    5  A    between atoms: O_13  and  C_14
REMARK    6  A    between atoms: C_14  and  C_15
REMARK    7  A    between atoms: O_17  and  C_18
REMARK    8  A    between atoms: C_21  and  O_22
REMARK    9  A    between atoms: O_22  and  C_23
REMARK   10  A    between atoms: C_24  and  O_29
REMARK   11  A    between atoms: C_25  and  O_27
REMARK   12  A    between atoms: O_27  and  C_28
REMARK   13  A    between atoms: O_29  and  C_30
REMARK                            x       y       z     vdW  Elec       q    Type
REMARK                         _______ _______ _______ _____ _____    ______ ____
ROOT
ATOM      1  C   LIG A   1      -9.834   1.892 132.177  0.00  0.00    +0.016 C 
ATOM      2  C   LIG A   1      -8.872   3.065 132.342  0.00  0.00    +0.065 C 
ATOM      3  C   LIG A   1      -9.214   3.908 133.599  0.00  0.00    +0.211 C 
ATOM      4  O   LIG A   1      -9.812   5.168 133.196  0.00  0.00    -0.483 OA
ATOM      5  C   LIG A   1      -9.580   5.250 131.851  0.00  0.00    +0.129 A 
ATOM      6  C   LIG A   1      -9.037   4.108 131.296  0.00  0.00    +0.005 A 
ATOM      7  C   LIG A   1      -8.727   4.072 129.948  0.00  0.00    +0.057 A 
ATOM      8  C   LIG A   1      -8.968   5.210 129.156  0.00  0.00    +0.162 A 
ATOM      9  C   LIG A   1      -9.540   6.367 129.741  0.00  0.00    +0.166 A 
ATOM     10  C   LIG A   1      -9.850   6.379 131.105  0.00  0.00    +0.095 A 
ENDROOT
BRANCH   3  11
ATOM     11  C   LIG A   1      -7.993   4.152 134.469  0.00  0.00    +0.000 A 
ATOM     12  C   LIG A   1      -7.902   5.237 135.342  0.00  0.00    +0.057 A 
ATOM     13  C   LIG A   1      -6.719   5.511 136.037  0.00  0.00    +0.166 A 
ATOM     14  C   LIG A   1      -5.610   4.634 135.902  0.00  0.00    +0.203 A 
ATOM     15  C   LIG A   1      -5.731   3.486 135.090  0.00  0.00    +0.166 A 
ATOM     16  C   LIG A   1      -6.899   3.297 134.345  0.00  0.00    +0.057 A 
BRANCH  13  17
ATOM     17  O   LIG A   1      -6.557   6.626 136.828  0.00  0.00    -0.491 OA
ATOM     18  C   LIG A   1      -7.727   7.306 137.285  0.00  0.00    +0.277 C 
ENDBRANCH  13  17
BRANCH  15  19
ATOM     19  O   LIG A   1      -4.688   2.602 134.980  0.00  0.00    -0.491 OA
ATOM     20  C   LIG A   1      -4.070   2.485 133.698  0.00  0.00    +0.277 C 
ENDBRANCH  15  19
BRANCH  14  21
ATOM     21  O   LIG A   1      -4.499   4.965 136.647  0.00  0.00    -0.488 OA
ATOM     22  C   LIG A   1      -3.449   5.650 135.970  0.00  0.00    +0.277 C 
ENDBRANCH  14  21
ENDBRANCH   3  11
BRANCH   8  23
ATOM     23  O   LIG A   1      -8.564   5.034 127.856  0.00  0.00    -0.491 OA
ATOM     24  C   LIG A   1      -7.579   4.051 127.568  0.00  0.00    +0.277 C 
ENDBRANCH   8  23
BRANCH   9  25
ATOM     25  O   LIG A   1      -9.851   7.426 128.930  0.00  0.00    -0.484 OA
BRANCH  25  26
ATOM     26  C   LIG A   1     -11.153   7.454 128.352  0.00  0.00    +0.256 C 
BRANCH  26  27
ATOM     27  C   LIG A   1     -11.878   8.593 128.992  0.00  0.00    +0.006 C 
ATOM     28  C   LIG A   1     -13.112   9.046 128.595  0.00  0.00    +0.007 C 
ENDBRANCH  26  27
ENDBRANCH  25  26
ENDBRANCH   9  25
TORSDOF 8
ENDMDL
MODEL 7
REMARK VINA RESULT:      -6.3      3.948      5.793
REMARK  Name = NuBBE_1835
REMARK  13 active torsions:
REMARK  status: ('A' for Active; 'I' for Inactive)
REMARK    1  A    between atoms: C_1  and  C_2
REMARK    2  A    between atoms: C_4  and  C_19
REMARK    3  A    between atoms: C_10  and  O_17
REMARK    4  A    between atoms: C_11  and  O_13
REMARK    5  A    between atoms: O_13  and  C_14
REMARK    6  A    between atoms: C_14  and  C_15
REMARK    7  A    between atoms: O_17  and  C_18
REMARK    8  A    between atoms: C_21  and  O_22
REMARK    9  A    between atoms: O_22  and  C_23
REMARK   10  A    between atoms: C_24  and  O_29
REMARK   11  A    between atoms: C_25  and  O_27
REMARK   12  A    between atoms: O_27  and  C_28
REMARK   13  A    between atoms: O_29  and  C_30
REMARK                            x       y       z     vdW  Elec       q    Type
REMARK                         _______ _______ _______ _____ _____    ______ ____
ROOT
ATOM      1  C   LIG A   1      -4.131  -3.217 129.671  0.00  0.00    +0.016 C 
ATOM      2  C   LIG A   1      -5.491  -2.706 129.204  0.00  0.00    +0.065 C 
ATOM      3  C   LIG A   1      -5.343  -1.534 128.198  0.00  0.00    +0.211 C 
ATOM      4  O   LIG A   1      -5.709  -0.286 128.841  0.00  0.00    -0.483 OA
ATOM      5  C   LIG A   1      -6.321  -0.660 130.005  0.00  0.00    +0.129 A 
ATOM      6  C   LIG A   1      -6.254  -2.013 130.275  0.00  0.00    +0.005 A 
ATOM      7  C   LIG A   1      -6.861  -2.525 131.408  0.00  0.00    +0.057 A 
ATOM      8  C   LIG A   1      -7.546  -1.653 132.275  0.00  0.00    +0.162 A 
ATOM      9  C   LIG A   1      -7.590  -0.266 131.990  0.00  0.00    +0.166 A 
ATOM     10  C   LIG A   1      -6.966   0.230 130.841  0.00  0.00    +0.095 A 
ENDROOT
BRANCH   3  11
ATOM     11  C   LIG A   1      -6.174  -1.753 126.946  0.00  0.00    +0.000 A 
ATOM     12  C   LIG A   1      -5.675  -2.414 125.822  0.00  0.00    +0.057 A 
ATOM     13  C   LIG A   1      -6.415  -2.490 124.637  0.00  0.00    +0.166 A 
ATOM     14  C   LIG A   1      -7.724  -1.941 124.594  0.00  0.00    +0.203 A 
ATOM     15  C   LIG A   1      -8.266  -1.353 125.758  0.00  0.00    +0.166 A 
ATOM     16  C   LIG A   1      -7.461  -1.219 126.893  0.00  0.00    +0.057 A 
BRANCH  13  17
ATOM     17  O   LIG A   1      -5.918  -3.044 123.479  0.00  0.00    -0.491 OA
ATOM     18  C   LIG A   1      -4.673  -3.741 123.543  0.00  0.00    +0.277 C 
ENDBRANCH  13  17
BRANCH  15  19
ATOM     19  O   LIG A   1      -9.544  -0.857 125.751  0.00  0.00    -0.491 OA
ATOM     20  C   LIG A   1      -9.692   0.551 125.563  0.00  0.00    +0.277 C 
ENDBRANCH  15  19
BRANCH  14  21
ATOM     21  O   LIG A   1      -8.390  -2.089 123.397  0.00  0.00    -0.488 OA
ATOM     22  C   LIG A   1      -9.374  -3.117 123.328  0.00  0.00    +0.277 C 
ENDBRANCH  14  21
ENDBRANCH   3  11
BRANCH   8  23
ATOM     23  O   LIG A   1      -8.132  -2.318 133.324  0.00  0.00    -0.491 OA
ATOM     24  C   LIG A   1      -7.458  -3.431 133.896  0.00  0.00    +0.277 C 
ENDBRANCH   8  23
BRANCH   9  25
ATOM     25  O   LIG A   1      -8.182   0.572 132.898  0.00  0.00    -0.484 OA
BRANCH  25  26
ATOM     26  C   LIG A   1      -7.786   1.940 132.888  0.00  0.00    +0.256 C 
BRANCH  26  27
ATOM     27  C   LIG A   1      -9.018   2.741 133.156  0.00  0.00    +0.006 C 
ATOM     28  C   LIG A   1      -9.051   3.877 133.927  0.00  0.00    +0.007 C 
ENDBRANCH  26  27
ENDBRANCH  25  26
ENDBRANCH   9  25
TORSDOF 8
ENDMDL
MODEL 8
REMARK VINA RESULT:      -6.3      3.998      5.787
REMARK  Name = NuBBE_1835
REMARK  13 active torsions:
REMARK  status: ('A' for Active; 'I' for Inactive)
REMARK    1  A    between atoms: C_1  and  C_2
REMARK    2  A    between atoms: C_4  and  C_19
REMARK    3  A    between atoms: C_10  and  O_17
REMARK    4  A    between atoms: C_11  and  O_13
REMARK    5  A    between atoms: O_13  and  C_14
REMARK    6  A    between atoms: C_14  and  C_15
REMARK    7  A    between atoms: O_17  and  C_18
REMARK    8  A    between atoms: C_21  and  O_22
REMARK    9  A    between atoms: O_22  and  C_23
REMARK   10  A    between atoms: C_24  and  O_29
REMARK   11  A    between atoms: C_25  and  O_27
REMARK   12  A    between atoms: O_27  and  C_28
REMARK   13  A    between atoms: O_29  and  C_30
REMARK                            x       y       z     vdW  Elec       q    Type
REMARK                         _______ _______ _______ _____ _____    ______ ____
ROOT
ATOM      1  C   LIG A   1      -1.849   3.099 126.922  0.00  0.00    +0.016 C 
ATOM      2  C   LIG A   1      -3.367   3.037 127.063  0.00  0.00    +0.065 C 
ATOM      3  C   LIG A   1      -4.068   4.054 126.124  0.00  0.00    +0.211 C 
ATOM      4  O   LIG A   1      -4.591   5.161 126.903  0.00  0.00    -0.483 OA
ATOM      5  C   LIG A   1      -4.517   4.739 128.201  0.00  0.00    +0.129 A 
ATOM      6  C   LIG A   1      -3.853   3.541 128.374  0.00  0.00    +0.005 A 
ATOM      7  C   LIG A   1      -3.735   2.989 129.637  0.00  0.00    +0.057 A 
ATOM      8  C   LIG A   1      -4.301   3.661 130.737  0.00  0.00    +0.162 A 
ATOM      9  C   LIG A   1      -4.964   4.898 130.542  0.00  0.00    +0.166 A 
ATOM     10  C   LIG A   1      -5.068   5.439 129.256  0.00  0.00    +0.095 A 
ENDROOT
BRANCH   3  11
ATOM     11  C   LIG A   1      -5.173   3.406 125.309  0.00  0.00    +0.000 A 
ATOM     12  C   LIG A   1      -5.907   2.315 125.778  0.00  0.00    +0.057 A 
ATOM     13  C   LIG A   1      -6.831   1.657 124.960  0.00  0.00    +0.166 A 
ATOM     14  C   LIG A   1      -7.076   2.145 123.649  0.00  0.00    +0.203 A 
ATOM     15  C   LIG A   1      -6.402   3.304 123.205  0.00  0.00    +0.166 A 
ATOM     16  C   LIG A   1      -5.422   3.877 124.021  0.00  0.00    +0.057 A 
BRANCH  13  17
ATOM     17  O   LIG A   1      -7.499   0.518 125.350  0.00  0.00    -0.491 OA
ATOM     18  C   LIG A   1      -8.466   0.627 126.396  0.00  0.00    +0.277 C 
ENDBRANCH  13  17
BRANCH  15  19
ATOM     19  O   LIG A   1      -6.656   3.818 121.959  0.00  0.00    -0.491 OA
ATOM     20  C   LIG A   1      -5.758   3.451 120.911  0.00  0.00    +0.277 C 
ENDBRANCH  15  19
BRANCH  14  21
ATOM     21  O   LIG A   1      -8.024   1.454 122.926  0.00  0.00    -0.488 OA
ATOM     22  C   LIG A   1      -9.346   1.984 122.921  0.00  0.00    +0.277 C 
ENDBRANCH  14  21
ENDBRANCH   3  11
BRANCH   8  23
ATOM     23  O   LIG A   1      -4.141   2.965 131.909  0.00  0.00    -0.491 OA
ATOM     24  C   LIG A   1      -4.012   1.550 131.859  0.00  0.00    +0.277 C 
ENDBRANCH   8  23
BRANCH   9  25
ATOM     25  O   LIG A   1      -5.423   5.576 131.640  0.00  0.00    -0.484 OA
BRANCH  25  26
ATOM     26  C   LIG A   1      -6.130   6.792 131.416  0.00  0.00    +0.256 C 
BRANCH  26  27
ATOM     27  C   LIG A   1      -7.577   6.489 131.626  0.00  0.00    +0.006 C 
ATOM     28  C   LIG A   1      -8.585   6.908 130.792  0.00  0.00    +0.007 C 
ENDBRANCH  26  27
ENDBRANCH  25  26
ENDBRANCH   9  25
TORSDOF 8
ENDMDL
MODEL 9
REMARK VINA RESULT:      -6.3      1.856      8.034
REMARK  Name = NuBBE_1835
REMARK  13 active torsions:
REMARK  status: ('A' for Active; 'I' for Inactive)
REMARK    1  A    between atoms: C_1  and  C_2
REMARK    2  A    between atoms: C_4  and  C_19
REMARK    3  A    between atoms: C_10  and  O_17
REMARK    4  A    between atoms: C_11  and  O_13
REMARK    5  A    between atoms: O_13  and  C_14
REMARK    6  A    between atoms: C_14  and  C_15
REMARK    7  A    between atoms: O_17  and  C_18
REMARK    8  A    between atoms: C_21  and  O_22
REMARK    9  A    between atoms: O_22  and  C_23
REMARK   10  A    between atoms: C_24  and  O_29
REMARK   11  A    between atoms: C_25  and  O_27
REMARK   12  A    between atoms: O_27  and  C_28
REMARK   13  A    between atoms: O_29  and  C_30
REMARK                            x       y       z     vdW  Elec       q    Type
REMARK                         _______ _______ _______ _____ _____    ______ ____
ROOT
ATOM      1  C   LIG A   1      -5.688   3.978 125.803  0.00  0.00    +0.016 C 
ATOM      2  C   LIG A   1      -7.122   3.721 126.260  0.00  0.00    +0.065 C 
ATOM      3  C   LIG A   1      -7.160   2.929 127.593  0.00  0.00    +0.211 C 
ATOM      4  O   LIG A   1      -7.578   1.563 127.340  0.00  0.00    -0.483 OA
ATOM      5  C   LIG A   1      -8.057   1.576 126.059  0.00  0.00    +0.129 A 
ATOM      6  C   LIG A   1      -7.850   2.764 125.386  0.00  0.00    +0.005 A 
ATOM      7  C   LIG A   1      -8.314   2.918 124.092  0.00  0.00    +0.057 A 
ATOM      8  C   LIG A   1      -8.998   1.853 123.476  0.00  0.00    +0.162 A 
ATOM      9  C   LIG A   1      -9.185   0.636 124.177  0.00  0.00    +0.166 A 
ATOM     10  C   LIG A   1      -8.704   0.502 125.483  0.00  0.00    +0.095 A 
ENDROOT
BRANCH   3  11
ATOM     11  C   LIG A   1      -8.070   3.584 128.617  0.00  0.00    +0.000 A 
ATOM     12  C   LIG A   1      -8.649   2.871 129.669  0.00  0.00    +0.057 A 
ATOM     13  C   LIG A   1      -9.583   3.467 130.523  0.00  0.00    +0.166 A 
ATOM     14  C   LIG A   1      -9.903   4.840 130.358  0.00  0.00    +0.203 A 
ATOM     15  C   LIG A   1      -9.251   5.587 129.352  0.00  0.00    +0.166 A 
ATOM     16  C   LIG A   1      -8.391   4.932 128.465  0.00  0.00    +0.057 A 
BRANCH  13  17
ATOM     17  O   LIG A   1     -10.249   2.771 131.506  0.00  0.00    -0.491 OA
ATOM     18  C   LIG A   1      -9.490   2.254 132.600  0.00  0.00    +0.277 C 
ENDBRANCH  13  17
BRANCH  15  19
ATOM     19  O   LIG A   1      -9.512   6.925 129.204  0.00  0.00    -0.491 OA
ATOM     20  C   LIG A   1     -10.308   7.310 128.082  0.00  0.00    +0.277 C 
ENDBRANCH  15  19
BRANCH  14  21
ATOM     21  O   LIG A   1     -10.809   5.351 131.262  0.00  0.00    -0.488 OA
ATOM     22  C   LIG A   1     -12.056   5.802 130.742  0.00  0.00    +0.277 C 
ENDBRANCH  14  21
ENDBRANCH   3  11
BRANCH   8  23
ATOM     23  O   LIG A   1      -9.434   2.177 122.215  0.00  0.00    -0.491 OA
ATOM     24  C   LIG A   1      -8.778   3.218 121.505  0.00  0.00    +0.277 C 
ENDBRANCH   8  23
BRANCH   9  25
ATOM     25  O   LIG A   1      -9.771  -0.415 123.521  0.00  0.00    -0.484 OA
BRANCH  25  26
ATOM     26  C   LIG A   1      -8.911  -1.359 122.889  0.00  0.00    +0.256 C 
BRANCH  26  27
ATOM     27  C   LIG A   1      -9.386  -2.712 123.305  0.00  0.00    +0.006 C 
ATOM     28  C   LIG A   1      -8.876  -3.422 124.364  0.00  0.00    +0.007 C 
ENDBRANCH  26  27
ENDBRANCH  25  26
ENDBRANCH   9  25
TORSDOF 8
ENDMDL
