MODEL 1
REMARK VINA RESULT:      -6.4      0.000      0.000
REMARK  Name = NuBBE_1372
REMARK  5 active torsions:
REMARK  status: ('A' for Active; 'I' for Inactive)
REMARK    1  A    between atoms: C_4  and  O_15
REMARK    2  A    between atoms: C_6  and  C_14
REMARK    3  A    between atoms: C_8  and  O_12
REMARK    4  A    between atoms: O_12  and  C_13
REMARK    5  A    between atoms: O_15  and  C_16
REMARK                            x       y       z     vdW  Elec       q    Type
REMARK                         _______ _______ _______ _____ _____    ______ ____
ROOT
ATOM      1  O   LIG A   1     -10.163   7.188 125.779  0.00  0.00    -0.245 OA
ATOM      2  C   LIG A   1     -10.543   7.164 126.945  0.00  0.00    +0.341 A 
ATOM      3  C   LIG A   1     -11.753   7.882 127.349  0.00  0.00    +0.138 A 
ATOM      4  C   LIG A   1     -12.215   7.895 128.608  0.00  0.00    +0.138 A 
ATOM      5  C   LIG A   1     -11.481   7.153 129.659  0.00  0.00    +0.062 A 
ATOM      6  C   LIG A   1     -11.835   7.073 131.025  0.00  0.00    -0.033 A 
ATOM      7  C   LIG A   1     -11.030   6.319 131.909  0.00  0.00    +0.050 A 
ATOM      8  C   LIG A   1      -9.887   5.642 131.479  0.00  0.00    +0.124 A 
ATOM      9  C   LIG A   1      -9.532   5.717 130.143  0.00  0.00    +0.092 A 
ATOM     10  C   LIG A   1     -10.325   6.462 129.263  0.00  0.00    +0.146 A 
ATOM     11  O   LIG A   1      -9.870   6.471 127.927  0.00  0.00    -0.422 OA
ATOM     12  C   LIG A   1     -13.042   7.755 131.616  0.00  0.00    +0.045 C 
ENDROOT
BRANCH   8  13
ATOM     13  O   LIG A   1      -9.220   4.960 132.457  0.00  0.00    -0.495 OA
ATOM     14  C   LIG A   1      -8.417   5.729 133.345  0.00  0.00    +0.277 C 
ENDBRANCH   8  13
BRANCH   4  15
ATOM     15  O   LIG A   1     -13.349   8.557 129.023  0.00  0.00    -0.494 OA
ATOM     16  C   LIG A   1     -13.448   9.958 128.801  0.00  0.00    +0.277 C 
ENDBRANCH   4  15
TORSDOF 2
ENDMDL
MODEL 2
REMARK VINA RESULT:      -6.3      1.359      5.291
REMARK  Name = NuBBE_1372
REMARK  5 active torsions:
REMARK  status: ('A' for Active; 'I' for Inactive)
REMARK    1  A    between atoms: C_4  and  O_15
REMARK    2  A    between atoms: C_6  and  C_14
REMARK    3  A    between atoms: C_8  and  O_12
REMARK    4  A    between atoms: O_12  and  C_13
REMARK    5  A    between atoms: O_15  and  C_16
REMARK                            x       y       z     vdW  Elec       q    Type
REMARK                         _______ _______ _______ _____ _____    ______ ____
ROOT
ATOM      1  O   LIG A   1      -9.950   5.260 132.890  0.00  0.00    -0.245 OA
ATOM      2  C   LIG A   1     -10.192   5.749 131.792  0.00  0.00    +0.341 A 
ATOM      3  C   LIG A   1      -9.466   5.304 130.602  0.00  0.00    +0.138 A 
ATOM      4  C   LIG A   1      -9.686   5.804 129.377  0.00  0.00    +0.138 A 
ATOM      5  C   LIG A   1     -10.709   6.859 129.195  0.00  0.00    +0.062 A 
ATOM      6  C   LIG A   1     -11.051   7.487 127.975  0.00  0.00    -0.033 A 
ATOM      7  C   LIG A   1     -12.057   8.481 127.964  0.00  0.00    +0.050 A 
ATOM      8  C   LIG A   1     -12.730   8.870 129.123  0.00  0.00    +0.124 A 
ATOM      9  C   LIG A   1     -12.399   8.262 130.322  0.00  0.00    +0.092 A 
ATOM     10  C   LIG A   1     -11.404   7.277 130.339  0.00  0.00    +0.146 A 
ATOM     11  O   LIG A   1     -11.146   6.726 131.613  0.00  0.00    -0.422 OA
ATOM     12  C   LIG A   1     -10.402   7.159 126.656  0.00  0.00    +0.045 C 
ENDROOT
BRANCH   8  13
ATOM     13  O   LIG A   1     -13.673   9.842 128.943  0.00  0.00    -0.495 OA
ATOM     14  C   LIG A   1     -13.577  10.993 129.775  0.00  0.00    +0.277 C 
ENDBRANCH   8  13
BRANCH   4  15
ATOM     15  O   LIG A   1      -9.024   5.409 128.235  0.00  0.00    -0.494 OA
ATOM     16  C   LIG A   1      -8.071   4.356 128.322  0.00  0.00    +0.277 C 
ENDBRANCH   4  15
TORSDOF 2
ENDMDL
MODEL 3
REMARK VINA RESULT:      -5.7      9.073     10.589
REMARK  Name = NuBBE_1372
REMARK  5 active torsions:
REMARK  status: ('A' for Active; 'I' for Inactive)
REMARK    1  A    between atoms: C_4  and  O_15
REMARK    2  A    between atoms: C_6  and  C_14
REMARK    3  A    between atoms: C_8  and  O_12
REMARK    4  A    between atoms: O_12  and  C_13
REMARK    5  A    between atoms: O_15  and  C_16
REMARK                            x       y       z     vdW  Elec       q    Type
REMARK                         _______ _______ _______ _____ _____    ______ ____
ROOT
ATOM      1  O   LIG A   1     -10.888   0.425 122.472  0.00  0.00    -0.245 OA
ATOM      2  C   LIG A   1      -9.827   0.189 123.040  0.00  0.00    +0.341 A 
ATOM      3  C   LIG A   1      -9.165   1.220 123.840  0.00  0.00    +0.138 A 
ATOM      4  C   LIG A   1      -8.004   1.021 124.481  0.00  0.00    +0.138 A 
ATOM      5  C   LIG A   1      -7.340  -0.300 124.390  0.00  0.00    +0.062 A 
ATOM      6  C   LIG A   1      -6.118  -0.663 125.000  0.00  0.00    -0.033 A 
ATOM      7  C   LIG A   1      -5.612  -1.971 124.820  0.00  0.00    +0.050 A 
ATOM      8  C   LIG A   1      -6.281  -2.927 124.054  0.00  0.00    +0.124 A 
ATOM      9  C   LIG A   1      -7.478  -2.579 123.451  0.00  0.00    +0.092 A 
ATOM     10  C   LIG A   1      -7.983  -1.285 123.626  0.00  0.00    +0.146 A 
ATOM     11  O   LIG A   1      -9.206  -1.039 122.966  0.00  0.00    -0.422 OA
ATOM     12  C   LIG A   1      -5.299   0.274 125.851  0.00  0.00    +0.045 C 
ENDROOT
BRANCH   8  13
ATOM     13  O   LIG A   1      -5.661  -4.141 123.979  0.00  0.00    -0.495 OA
ATOM     14  C   LIG A   1      -4.291  -4.141 123.594  0.00  0.00    +0.277 C 
ENDBRANCH   8  13
BRANCH   4  15
ATOM     15  O   LIG A   1      -7.354   1.967 125.243  0.00  0.00    -0.494 OA
ATOM     16  C   LIG A   1      -7.651   3.342 125.034  0.00  0.00    +0.277 C 
ENDBRANCH   4  15
TORSDOF 2
ENDMDL
MODEL 4
REMARK VINA RESULT:      -5.6      1.359      4.364
REMARK  Name = NuBBE_1372
REMARK  5 active torsions:
REMARK  status: ('A' for Active; 'I' for Inactive)
REMARK    1  A    between atoms: C_4  and  O_15
REMARK    2  A    between atoms: C_6  and  C_14
REMARK    3  A    between atoms: C_8  and  O_12
REMARK    4  A    between atoms: O_12  and  C_13
REMARK    5  A    between atoms: O_15  and  C_16
REMARK                            x       y       z     vdW  Elec       q    Type
REMARK                         _______ _______ _______ _____ _____    ______ ____
ROOT
ATOM      1  O   LIG A   1      -8.476   5.373 126.362  0.00  0.00    -0.245 OA
ATOM      2  C   LIG A   1      -9.188   5.773 127.277  0.00  0.00    +0.341 A 
ATOM      3  C   LIG A   1      -9.119   5.154 128.601  0.00  0.00    +0.138 A 
ATOM      4  C   LIG A   1      -9.875   5.547 129.637  0.00  0.00    +0.138 A 
ATOM      5  C   LIG A   1     -10.834   6.660 129.456  0.00  0.00    +0.062 A 
ATOM      6  C   LIG A   1     -11.700   7.184 130.444  0.00  0.00    -0.033 A 
ATOM      7  C   LIG A   1     -12.561   8.256 130.116  0.00  0.00    +0.050 A 
ATOM      8  C   LIG A   1     -12.589   8.823 128.840  0.00  0.00    +0.124 A 
ATOM      9  C   LIG A   1     -11.747   8.314 127.866  0.00  0.00    +0.092 A 
ATOM     10  C   LIG A   1     -10.892   7.253 128.186  0.00  0.00    +0.146 A 
ATOM     11  O   LIG A   1     -10.079   6.812 127.119  0.00  0.00    -0.422 OA
ATOM     12  C   LIG A   1     -11.767   6.664 131.856  0.00  0.00    +0.045 C 
ENDROOT
BRANCH   8  13
ATOM     13  O   LIG A   1     -13.476   9.850 128.685  0.00  0.00    -0.495 OA
ATOM     14  C   LIG A   1     -13.513  10.829 129.718  0.00  0.00    +0.277 C 
ENDBRANCH   8  13
BRANCH   4  15
ATOM     15  O   LIG A   1      -9.835   4.990 130.896  0.00  0.00    -0.494 OA
ATOM     16  C   LIG A   1      -8.574   4.646 131.457  0.00  0.00    +0.277 C 
ENDBRANCH   4  15
TORSDOF 2
ENDMDL
MODEL 5
REMARK VINA RESULT:      -5.6      2.943      6.018
REMARK  Name = NuBBE_1372
REMARK  5 active torsions:
REMARK  status: ('A' for Active; 'I' for Inactive)
REMARK    1  A    between atoms: C_4  and  O_15
REMARK    2  A    between atoms: C_6  and  C_14
REMARK    3  A    between atoms: C_8  and  O_12
REMARK    4  A    between atoms: O_12  and  C_13
REMARK    5  A    between atoms: O_15  and  C_16
REMARK                            x       y       z     vdW  Elec       q    Type
REMARK                         _______ _______ _______ _____ _____    ______ ____
ROOT
ATOM      1  O   LIG A   1      -4.740   7.844 129.928  0.00  0.00    -0.245 OA
ATOM      2  C   LIG A   1      -5.565   7.306 130.659  0.00  0.00    +0.341 A 
ATOM      3  C   LIG A   1      -5.139   6.572 131.851  0.00  0.00    +0.138 A 
ATOM      4  C   LIG A   1      -5.995   5.962 132.684  0.00  0.00    +0.138 A 
ATOM      5  C   LIG A   1      -7.448   6.020 132.404  0.00  0.00    +0.062 A 
ATOM      6  C   LIG A   1      -8.471   5.427 133.179  0.00  0.00    -0.033 A 
ATOM      7  C   LIG A   1      -9.819   5.575 132.781  0.00  0.00    +0.050 A 
ATOM      8  C   LIG A   1     -10.182   6.291 131.639  0.00  0.00    +0.124 A 
ATOM      9  C   LIG A   1      -9.186   6.872 130.872  0.00  0.00    +0.092 A 
ATOM     10  C   LIG A   1      -7.849   6.730 131.263  0.00  0.00    +0.146 A 
ATOM     11  O   LIG A   1      -6.919   7.361 130.409  0.00  0.00    -0.422 OA
ATOM     12  C   LIG A   1      -8.214   4.630 134.432  0.00  0.00    +0.045 C 
ENDROOT
BRANCH   8  13
ATOM     13  O   LIG A   1     -11.525   6.339 131.392  0.00  0.00    -0.495 OA
ATOM     14  C   LIG A   1     -11.925   6.412 130.028  0.00  0.00    +0.277 C 
ENDBRANCH   8  13
BRANCH   4  15
ATOM     15  O   LIG A   1      -5.630   5.265 133.815  0.00  0.00    -0.494 OA
ATOM     16  C   LIG A   1      -4.755   5.882 134.751  0.00  0.00    +0.277 C 
ENDBRANCH   4  15
TORSDOF 2
ENDMDL
MODEL 6
REMARK VINA RESULT:      -5.6      7.979      9.865
REMARK  Name = NuBBE_1372
REMARK  5 active torsions:
REMARK  status: ('A' for Active; 'I' for Inactive)
REMARK    1  A    between atoms: C_4  and  O_15
REMARK    2  A    between atoms: C_6  and  C_14
REMARK    3  A    between atoms: C_8  and  O_12
REMARK    4  A    between atoms: O_12  and  C_13
REMARK    5  A    between atoms: O_15  and  C_16
REMARK                            x       y       z     vdW  Elec       q    Type
REMARK                         _______ _______ _______ _____ _____    ______ ____
ROOT
ATOM      1  O   LIG A   1      -9.713  -3.625 123.250  0.00  0.00    -0.245 OA
ATOM      2  C   LIG A   1      -9.381  -2.758 124.051  0.00  0.00    +0.341 A 
ATOM      3  C   LIG A   1      -8.851  -3.122 125.366  0.00  0.00    +0.138 A 
ATOM      4  C   LIG A   1      -8.475  -2.218 126.283  0.00  0.00    +0.138 A 
ATOM      5  C   LIG A   1      -8.593  -0.775 125.972  0.00  0.00    +0.062 A 
ATOM      6  C   LIG A   1      -8.246   0.294 126.830  0.00  0.00    -0.033 A 
ATOM      7  C   LIG A   1      -8.415   1.625 126.385  0.00  0.00    +0.050 A 
ATOM      8  C   LIG A   1      -8.918   1.927 125.119  0.00  0.00    +0.124 A 
ATOM      9  C   LIG A   1      -9.263   0.886 124.273  0.00  0.00    +0.092 A 
ATOM     10  C   LIG A   1      -9.097  -0.434 124.708  0.00  0.00    +0.146 A 
ATOM     11  O   LIG A   1      -9.482  -1.414 123.768  0.00  0.00    -0.422 OA
ATOM     12  C   LIG A   1      -7.694   0.104 128.219  0.00  0.00    +0.045 C 
ENDROOT
BRANCH   8  13
ATOM     13  O   LIG A   1      -9.020   3.261 124.842  0.00  0.00    -0.495 OA
ATOM     14  C   LIG A   1      -8.004   4.107 125.370  0.00  0.00    +0.277 C 
ENDBRANCH   8  13
BRANCH   4  15
ATOM     15  O   LIG A   1      -7.971  -2.523 127.527  0.00  0.00    -0.494 OA
ATOM     16  C   LIG A   1      -8.573  -3.572 128.276  0.00  0.00    +0.277 C 
ENDBRANCH   4  15
TORSDOF 2
ENDMDL
MODEL 7
REMARK VINA RESULT:      -5.5      8.775     10.718
REMARK  Name = NuBBE_1372
REMARK  5 active torsions:
REMARK  status: ('A' for Active; 'I' for Inactive)
REMARK    1  A    between atoms: C_4  and  O_15
REMARK    2  A    between atoms: C_6  and  C_14
REMARK    3  A    between atoms: C_8  and  O_12
REMARK    4  A    between atoms: O_12  and  C_13
REMARK    5  A    between atoms: O_15  and  C_16
REMARK                            x       y       z     vdW  Elec       q    Type
REMARK                         _______ _______ _______ _____ _____    ______ ____
ROOT
ATOM      1  O   LIG A   1     -10.086  -3.637 123.242  0.00  0.00    -0.245 OA
ATOM      2  C   LIG A   1      -9.317  -2.814 123.724  0.00  0.00    +0.341 A 
ATOM      3  C   LIG A   1      -7.952  -3.194 124.092  0.00  0.00    +0.138 A 
ATOM      4  C   LIG A   1      -7.068  -2.338 124.625  0.00  0.00    +0.138 A 
ATOM      5  C   LIG A   1      -7.470  -0.932 124.863  0.00  0.00    +0.062 A 
ATOM      6  C   LIG A   1      -6.660   0.084 125.419  0.00  0.00    -0.033 A 
ATOM      7  C   LIG A   1      -7.189   1.384 125.581  0.00  0.00    +0.050 A 
ATOM      8  C   LIG A   1      -8.496   1.706 125.209  0.00  0.00    +0.124 A 
ATOM      9  C   LIG A   1      -9.297   0.716 124.666  0.00  0.00    +0.092 A 
ATOM     10  C   LIG A   1      -8.778  -0.573 124.503  0.00  0.00    +0.146 A 
ATOM     11  O   LIG A   1      -9.680  -1.503 123.943  0.00  0.00    -0.422 OA
ATOM     12  C   LIG A   1      -5.235  -0.132 125.861  0.00  0.00    +0.045 C 
ENDROOT
BRANCH   8  13
ATOM     13  O   LIG A   1      -8.854   3.006 125.431  0.00  0.00    -0.495 OA
ATOM     14  C   LIG A   1      -7.877   4.000 125.146  0.00  0.00    +0.277 C 
ENDBRANCH   8  13
BRANCH   4  15
ATOM     15  O   LIG A   1      -5.777  -2.660 124.981  0.00  0.00    -0.494 OA
ATOM     16  C   LIG A   1      -4.964  -3.367 124.053  0.00  0.00    +0.277 C 
ENDBRANCH   4  15
TORSDOF 2
ENDMDL
MODEL 8
REMARK VINA RESULT:      -5.4      8.131      9.499
REMARK  Name = NuBBE_1372
REMARK  5 active torsions:
REMARK  status: ('A' for Active; 'I' for Inactive)
REMARK    1  A    between atoms: C_4  and  O_15
REMARK    2  A    between atoms: C_6  and  C_14
REMARK    3  A    between atoms: C_8  and  O_12
REMARK    4  A    between atoms: O_12  and  C_13
REMARK    5  A    between atoms: O_15  and  C_16
REMARK                            x       y       z     vdW  Elec       q    Type
REMARK                         _______ _______ _______ _____ _____    ______ ____
ROOT
ATOM      1  O   LIG A   1      -8.278   2.886 126.516  0.00  0.00    -0.245 OA
ATOM      2  C   LIG A   1      -8.414   1.688 126.292  0.00  0.00    +0.341 A 
ATOM      3  C   LIG A   1      -8.914   1.224 124.997  0.00  0.00    +0.138 A 
ATOM      4  C   LIG A   1      -9.086  -0.072 124.696  0.00  0.00    +0.138 A 
ATOM      5  C   LIG A   1      -8.762  -1.102 125.709  0.00  0.00    +0.062 A 
ATOM      6  C   LIG A   1      -8.893  -2.501 125.547  0.00  0.00    -0.033 A 
ATOM      7  C   LIG A   1      -8.538  -3.360 126.612  0.00  0.00    +0.050 A 
ATOM      8  C   LIG A   1      -8.058  -2.875 127.829  0.00  0.00    +0.124 A 
ATOM      9  C   LIG A   1      -7.928  -1.506 127.997  0.00  0.00    +0.092 A 
ATOM     10  C   LIG A   1      -8.278  -0.651 126.946  0.00  0.00    +0.146 A 
ATOM     11  O   LIG A   1      -8.109   0.722 127.226  0.00  0.00    -0.422 OA
ATOM     12  C   LIG A   1      -9.398  -3.151 124.285  0.00  0.00    +0.045 C 
ENDROOT
BRANCH   8  13
ATOM     13  O   LIG A   1      -7.760  -3.835 128.755  0.00  0.00    -0.495 OA
ATOM     14  C   LIG A   1      -7.178  -3.392 129.976  0.00  0.00    +0.277 C 
ENDBRANCH   8  13
BRANCH   4  15
ATOM     15  O   LIG A   1      -9.552  -0.544 123.489  0.00  0.00    -0.494 OA
ATOM     16  C   LIG A   1     -10.135   0.373 122.571  0.00  0.00    +0.277 C 
ENDBRANCH   4  15
TORSDOF 2
ENDMDL
MODEL 9
REMARK VINA RESULT:      -5.4      9.934     10.721
REMARK  Name = NuBBE_1372
REMARK  5 active torsions:
REMARK  status: ('A' for Active; 'I' for Inactive)
REMARK    1  A    between atoms: C_4  and  O_15
REMARK    2  A    between atoms: C_6  and  C_14
REMARK    3  A    between atoms: C_8  and  O_12
REMARK    4  A    between atoms: O_12  and  C_13
REMARK    5  A    between atoms: O_15  and  C_16
REMARK                            x       y       z     vdW  Elec       q    Type
REMARK                         _______ _______ _______ _____ _____    ______ ____
ROOT
ATOM      1  O   LIG A   1     -10.130  -3.574 123.251  0.00  0.00    -0.245 OA
ATOM      2  C   LIG A   1      -9.360  -3.114 124.087  0.00  0.00    +0.341 A 
ATOM      3  C   LIG A   1      -8.361  -2.113 123.709  0.00  0.00    +0.138 A 
ATOM      4  C   LIG A   1      -7.492  -1.576 124.578  0.00  0.00    +0.138 A 
ATOM      5  C   LIG A   1      -7.525  -2.002 125.996  0.00  0.00    +0.062 A 
ATOM      6  C   LIG A   1      -6.677  -1.537 127.027  0.00  0.00    -0.033 A 
ATOM      7  C   LIG A   1      -6.835  -2.040 128.338  0.00  0.00    +0.050 A 
ATOM      8  C   LIG A   1      -7.807  -2.990 128.657  0.00  0.00    +0.124 A 
ATOM      9  C   LIG A   1      -8.641  -3.454 127.653  0.00  0.00    +0.092 A 
ATOM     10  C   LIG A   1      -8.489  -2.958 126.352  0.00  0.00    +0.146 A 
ATOM     11  O   LIG A   1      -9.388  -3.500 125.409  0.00  0.00    -0.422 OA
ATOM     12  C   LIG A   1      -5.590  -0.515 126.816  0.00  0.00    +0.045 C 
ENDROOT
BRANCH   8  13
ATOM     13  O   LIG A   1      -7.830  -3.374 129.967  0.00  0.00    -0.495 OA
ATOM     14  C   LIG A   1      -6.571  -3.580 130.599  0.00  0.00    +0.277 C 
ENDBRANCH   8  13
BRANCH   4  15
ATOM     15  O   LIG A   1      -6.541  -0.632 124.259  0.00  0.00    -0.494 OA
ATOM     16  C   LIG A   1      -6.941   0.534 123.550  0.00  0.00    +0.277 C 
ENDBRANCH   4  15
TORSDOF 2
ENDMDL
