MODEL 1
REMARK VINA RESULT:      -7.6      0.000      0.000
REMARK  Name = NuBBE_535
REMARK  12 active torsions:
REMARK  status: ('A' for Active; 'I' for Inactive)
REMARK    1  A    between atoms: O_1  and  C_2
REMARK    2  A    between atoms: C_4  and  O_5
REMARK    3  A    between atoms: C_8  and  O_9
REMARK    4  A    between atoms: O_9  and  C_10
REMARK    5  A    between atoms: C_13  and  C_21
REMARK    6  A    between atoms: C_15  and  O_20
REMARK    7  A    between atoms: C_17  and  O_19
REMARK    8  A    between atoms: C_21  and  O_22
REMARK    9  A    between atoms: C_23  and  O_25
REMARK   10  A    between atoms: C_26  and  C_30
REMARK   11  A    between atoms: C_32  and  O_33
REMARK   12  A    between atoms: C_34  and  O_37
REMARK                            x       y       z     vdW  Elec       q    Type
REMARK                         _______ _______ _______ _____ _____    ______ ____
ROOT
ATOM      1  C   LIG A   1      -6.956   0.665 124.269  0.00  0.00    +0.124 A 
ATOM      2  C   LIG A   1      -7.587   1.777 123.723  0.00  0.00    +0.091 A 
ATOM      3  C   LIG A   1      -7.904   2.865 124.554  0.00  0.00    +0.135 A 
ATOM      4  C   LIG A   1      -7.591   2.829 125.919  0.00  0.00    +0.109 A 
ATOM      5  C   LIG A   1      -7.820   3.948 126.859  0.00  0.00    +0.238 A 
ATOM      6  C   LIG A   1      -7.848   3.648 128.330  0.00  0.00    +0.214 A 
ATOM      7  C   LIG A   1      -7.329   2.445 128.680  0.00  0.00    +0.181 A 
ATOM      8  O   LIG A   1      -6.743   1.554 127.779  0.00  0.00    -0.451 OA
ATOM      9  C   LIG A   1      -7.011   1.688 126.448  0.00  0.00    +0.146 A 
ATOM     10  C   LIG A   1      -6.672   0.608 125.628  0.00  0.00    +0.092 A 
ATOM     11  O   LIG A   1      -7.943   5.115 126.466  0.00  0.00    -0.283 OA
ENDROOT
BRANCH   7  12
ATOM     12  C   LIG A   1      -7.290   1.839 130.019  0.00  0.00    +0.025 A 
ATOM     13  C   LIG A   1      -8.380   1.070 130.456  0.00  0.00    +0.060 A 
ATOM     14  C   LIG A   1      -8.330   0.468 131.708  0.00  0.00    +0.159 A 
ATOM     15  C   LIG A   1      -7.239   0.672 132.547  0.00  0.00    +0.158 A 
ATOM     16  C   LIG A   1      -6.184   1.483 132.156  0.00  0.00    +0.050 A 
ATOM     17  C   LIG A   1      -6.208   2.070 130.886  0.00  0.00    +0.015 A 
BRANCH  14  18
ATOM     18  O   LIG A   1      -9.326  -0.359 132.147  0.00  0.00    -0.503 OA
ATOM     19  H   LIG A   1      -9.660  -0.854 131.378  0.00  0.00    +0.292 HD
ENDBRANCH  14  18
BRANCH  15  20
ATOM     20  O   LIG A   1      -7.189   0.048 133.760  0.00  0.00    -0.503 OA
ATOM     21  H   LIG A   1      -7.858   0.513 134.302  0.00  0.00    +0.292 HD
ENDBRANCH  15  20
ENDBRANCH   7  12
BRANCH   1  22
ATOM     22  O   LIG A   1      -6.604  -0.407 123.505  0.00  0.00    -0.506 OA
ATOM     23  H   LIG A   1      -6.251  -1.112 124.072  0.00  0.00    +0.292 HD
ENDBRANCH   1  22
BRANCH   3  24
ATOM     24  O   LIG A   1      -8.558   3.934 124.015  0.00  0.00    -0.506 OA
ATOM     25  H   LIG A   1      -9.500   3.911 124.244  0.00  0.00    +0.292 HD
ENDBRANCH   3  24
BRANCH   6  26
ATOM     26  O   LIG A   1      -8.404   4.664 129.098  0.00  0.00    -0.453 OA
BRANCH  26  27
ATOM     27  C   LIG A   1      -9.557   4.467 129.921  0.00  0.00    +0.340 C 
ATOM     28  O   LIG A   1     -10.704   5.150 129.381  0.00  0.00    -0.331 OA
ATOM     29  C   LIG A   1     -11.045   6.467 129.832  0.00  0.00    +0.179 C 
ATOM     30  C   LIG A   1     -10.921   6.643 131.349  0.00  0.00    +0.177 C 
ATOM     31  C   LIG A   1      -9.526   6.221 131.799  0.00  0.00    +0.180 C 
ATOM     32  C   LIG A   1      -9.261   4.761 131.411  0.00  0.00    +0.214 C 
BRANCH  31  33
ATOM     33  O   LIG A   1      -9.453   6.356 133.231  0.00  0.00    -0.386 OA
ATOM     34  H   LIG A   1     -10.241   6.877 133.487  0.00  0.00    +0.210 HD
ENDBRANCH  31  33
BRANCH  30  35
ATOM     35  O   LIG A   1     -11.894   5.807 132.018  0.00  0.00    -0.387 OA
ATOM     36  H   LIG A   1     -12.134   6.304 132.825  0.00  0.00    +0.210 HD
ENDBRANCH  30  35
BRANCH  32  37
ATOM     37  O   LIG A   1     -10.086   3.924 132.263  0.00  0.00    -0.383 OA
ATOM     38  H   LIG A   1     -10.107   3.042 131.822  0.00  0.00    +0.210 HD
ENDBRANCH  32  37
BRANCH  29  39
ATOM     39  C   LIG A   1     -10.311   7.567 129.050  0.00  0.00    +0.190 C 
BRANCH  39  40
ATOM     40  O   LIG A   1      -9.890   7.069 127.781  0.00  0.00    -0.392 OA
ATOM     41  H   LIG A   1      -9.597   7.829 127.248  0.00  0.00    +0.209 HD
ENDBRANCH  39  40
ENDBRANCH  29  39
ENDBRANCH  26  27
ENDBRANCH   6  26
TORSDOF 12
ENDMDL
MODEL 2
REMARK VINA RESULT:      -7.4      2.841      4.443
REMARK  Name = NuBBE_535
REMARK  12 active torsions:
REMARK  status: ('A' for Active; 'I' for Inactive)
REMARK    1  A    between atoms: O_1  and  C_2
REMARK    2  A    between atoms: C_4  and  O_5
REMARK    3  A    between atoms: C_8  and  O_9
REMARK    4  A    between atoms: O_9  and  C_10
REMARK    5  A    between atoms: C_13  and  C_21
REMARK    6  A    between atoms: C_15  and  O_20
REMARK    7  A    between atoms: C_17  and  O_19
REMARK    8  A    between atoms: C_21  and  O_22
REMARK    9  A    between atoms: C_23  and  O_25
REMARK   10  A    between atoms: C_26  and  C_30
REMARK   11  A    between atoms: C_32  and  O_33
REMARK   12  A    between atoms: C_34  and  O_37
REMARK                            x       y       z     vdW  Elec       q    Type
REMARK                         _______ _______ _______ _____ _____    ______ ____
ROOT
ATOM      1  C   LIG A   1     -10.207   1.172 123.504  0.00  0.00    +0.124 A 
ATOM      2  C   LIG A   1      -9.162   1.766 122.804  0.00  0.00    +0.091 A 
ATOM      3  C   LIG A   1      -8.022   2.194 123.504  0.00  0.00    +0.135 A 
ATOM      4  C   LIG A   1      -7.939   2.029 124.893  0.00  0.00    +0.109 A 
ATOM      5  C   LIG A   1      -6.757   2.383 125.708  0.00  0.00    +0.238 A 
ATOM      6  C   LIG A   1      -6.939   2.562 127.187  0.00  0.00    +0.214 A 
ATOM      7  C   LIG A   1      -8.094   2.056 127.688  0.00  0.00    +0.181 A 
ATOM      8  O   LIG A   1      -9.036   1.358 126.931  0.00  0.00    -0.451 OA
ATOM      9  C   LIG A   1      -9.016   1.483 125.572  0.00  0.00    +0.146 A 
ATOM     10  C   LIG A   1     -10.147   1.034 124.884  0.00  0.00    +0.092 A 
ATOM     11  O   LIG A   1      -5.629   2.489 125.210  0.00  0.00    -0.283 OA
ENDROOT
BRANCH   7  12
ATOM     12  C   LIG A   1      -8.590   2.149 129.069  0.00  0.00    +0.025 A 
ATOM     13  C   LIG A   1      -9.292   3.295 129.471  0.00  0.00    +0.060 A 
ATOM     14  C   LIG A   1      -9.791   3.369 130.767  0.00  0.00    +0.159 A 
ATOM     15  C   LIG A   1      -9.549   2.344 131.677  0.00  0.00    +0.158 A 
ATOM     16  C   LIG A   1      -8.800   1.235 131.314  0.00  0.00    +0.050 A 
ATOM     17  C   LIG A   1      -8.318   1.134 130.004  0.00  0.00    +0.015 A 
BRANCH  14  18
ATOM     18  O   LIG A   1     -10.553   4.424 131.184  0.00  0.00    -0.503 OA
ATOM     19  H   LIG A   1     -10.963   4.176 132.032  0.00  0.00    +0.292 HD
ENDBRANCH  14  18
BRANCH  15  20
ATOM     20  O   LIG A   1     -10.073   2.415 132.936  0.00  0.00    -0.503 OA
ATOM     21  H   LIG A   1     -11.006   2.142 132.828  0.00  0.00    +0.292 HD
ENDBRANCH  15  20
ENDBRANCH   7  12
BRANCH   1  22
ATOM     22  O   LIG A   1     -11.326   0.716 122.872  0.00  0.00    -0.506 OA
ATOM     23  H   LIG A   1     -11.833   1.466 122.521  0.00  0.00    +0.292 HD
ENDBRANCH   1  22
BRANCH   3  24
ATOM     24  O   LIG A   1      -7.021   2.811 122.813  0.00  0.00    -0.506 OA
ATOM     25  H   LIG A   1      -7.202   2.797 121.860  0.00  0.00    +0.292 HD
ENDBRANCH   3  24
BRANCH   6  26
ATOM     26  O   LIG A   1      -5.883   3.220 127.806  0.00  0.00    -0.453 OA
BRANCH  26  27
ATOM     27  C   LIG A   1      -5.929   4.610 128.141  0.00  0.00    +0.340 C 
ATOM     28  O   LIG A   1      -5.043   5.376 127.304  0.00  0.00    -0.331 OA
ATOM     29  C   LIG A   1      -3.712   5.679 127.740  0.00  0.00    +0.179 C 
ATOM     30  C   LIG A   1      -3.632   6.097 129.212  0.00  0.00    +0.177 C 
ATOM     31  C   LIG A   1      -4.298   5.034 130.080  0.00  0.00    +0.180 C 
ATOM     32  C   LIG A   1      -5.761   4.844 129.661  0.00  0.00    +0.214 C 
BRANCH  31  33
ATOM     33  O   LIG A   1      -4.247   5.475 131.451  0.00  0.00    -0.386 OA
ATOM     34  H   LIG A   1      -4.426   6.436 131.426  0.00  0.00    +0.210 HD
ENDBRANCH  31  33
BRANCH  30  35
ATOM     35  O   LIG A   1      -4.329   7.350 129.400  0.00  0.00    -0.387 OA
ATOM     36  H   LIG A   1      -4.238   7.544 130.354  0.00  0.00    +0.210 HD
ENDBRANCH  30  35
BRANCH  32  37
ATOM     37  O   LIG A   1      -6.492   6.029 130.072  0.00  0.00    -0.383 OA
ATOM     38  H   LIG A   1      -5.857   6.777 129.970  0.00  0.00    +0.210 HD
ENDBRANCH  32  37
BRANCH  29  39
ATOM     39  C   LIG A   1      -2.709   4.568 127.390  0.00  0.00    +0.190 C 
BRANCH  39  40
ATOM     40  O   LIG A   1      -3.201   3.790 126.300  0.00  0.00    -0.392 OA
ATOM     41  H   LIG A   1      -3.382   4.398 125.561  0.00  0.00    +0.209 HD
ENDBRANCH  39  40
ENDBRANCH  29  39
ENDBRANCH  26  27
ENDBRANCH   6  26
TORSDOF 12
ENDMDL
MODEL 3
REMARK VINA RESULT:      -7.3      2.426      8.703
REMARK  Name = NuBBE_535
REMARK  12 active torsions:
REMARK  status: ('A' for Active; 'I' for Inactive)
REMARK    1  A    between atoms: O_1  and  C_2
REMARK    2  A    between atoms: C_4  and  O_5
REMARK    3  A    between atoms: C_8  and  O_9
REMARK    4  A    between atoms: O_9  and  C_10
REMARK    5  A    between atoms: C_13  and  C_21
REMARK    6  A    between atoms: C_15  and  O_20
REMARK    7  A    between atoms: C_17  and  O_19
REMARK    8  A    between atoms: C_21  and  O_22
REMARK    9  A    between atoms: C_23  and  O_25
REMARK   10  A    between atoms: C_26  and  C_30
REMARK   11  A    between atoms: C_32  and  O_33
REMARK   12  A    between atoms: C_34  and  O_37
REMARK                            x       y       z     vdW  Elec       q    Type
REMARK                         _______ _______ _______ _____ _____    ______ ____
ROOT
ATOM      1  C   LIG A   1      -9.790   3.076 131.179  0.00  0.00    +0.124 A 
ATOM      2  C   LIG A   1      -9.531   1.832 131.743  0.00  0.00    +0.091 A 
ATOM      3  C   LIG A   1      -8.799   0.884 131.009  0.00  0.00    +0.135 A 
ATOM      4  C   LIG A   1      -8.338   1.185 129.721  0.00  0.00    +0.109 A 
ATOM      5  C   LIG A   1      -7.504   0.283 128.899  0.00  0.00    +0.238 A 
ATOM      6  C   LIG A   1      -7.439   0.524 127.419  0.00  0.00    +0.214 A 
ATOM      7  C   LIG A   1      -7.878   1.742 127.017  0.00  0.00    +0.181 A 
ATOM      8  O   LIG A   1      -8.304   2.747 127.887  0.00  0.00    -0.451 OA
ATOM      9  C   LIG A   1      -8.656   2.412 129.162  0.00  0.00    +0.146 A 
ATOM     10  C   LIG A   1      -9.366   3.371 129.889  0.00  0.00    +0.092 A 
ATOM     11  O   LIG A   1      -6.833  -0.627 129.404  0.00  0.00    -0.283 OA
ENDROOT
BRANCH   7  12
ATOM     12  C   LIG A   1      -8.013   2.238 125.639  0.00  0.00    +0.025 A 
ATOM     13  C   LIG A   1      -7.054   3.128 125.132  0.00  0.00    +0.060 A 
ATOM     14  C   LIG A   1      -7.162   3.570 123.818  0.00  0.00    +0.159 A 
ATOM     15  C   LIG A   1      -8.241   3.183 123.029  0.00  0.00    +0.158 A 
ATOM     16  C   LIG A   1      -9.232   2.357 123.537  0.00  0.00    +0.050 A 
ATOM     17  C   LIG A   1      -9.119   1.880 124.848  0.00  0.00    +0.015 A 
BRANCH  14  18
ATOM     18  O   LIG A   1      -6.210   4.370 123.249  0.00  0.00    -0.503 OA
ATOM     19  H   LIG A   1      -6.637   4.874 122.534  0.00  0.00    +0.292 HD
ENDBRANCH  14  18
BRANCH  15  20
ATOM     20  O   LIG A   1      -8.317   3.599 121.731  0.00  0.00    -0.503 OA
ATOM     21  H   LIG A   1      -9.261   3.820 121.600  0.00  0.00    +0.292 HD
ENDBRANCH  15  20
ENDBRANCH   7  12
BRANCH   1  22
ATOM     22  O   LIG A   1     -10.474   4.042 131.855  0.00  0.00    -0.506 OA
ATOM     23  H   LIG A   1     -11.067   3.630 132.505  0.00  0.00    +0.292 HD
ENDBRANCH   1  22
BRANCH   3  24
ATOM     24  O   LIG A   1      -8.585  -0.347 131.558  0.00  0.00    -0.506 OA
ATOM     25  H   LIG A   1      -8.252  -0.967 130.891  0.00  0.00    +0.292 HD
ENDBRANCH   3  24
BRANCH   6  26
ATOM     26  O   LIG A   1      -6.932  -0.551 126.698  0.00  0.00    -0.453 OA
BRANCH  26  27
ATOM     27  C   LIG A   1      -7.704  -1.719 126.408  0.00  0.00    +0.340 C 
ATOM     28  O   LIG A   1      -6.859  -2.810 125.992  0.00  0.00    -0.331 OA
ATOM     29  C   LIG A   1      -6.621  -3.054 124.600  0.00  0.00    +0.179 C 
ATOM     30  C   LIG A   1      -7.879  -2.925 123.734  0.00  0.00    +0.177 C 
ATOM     31  C   LIG A   1      -8.530  -1.568 123.980  0.00  0.00    +0.180 C 
ATOM     32  C   LIG A   1      -8.889  -1.410 125.462  0.00  0.00    +0.214 C 
BRANCH  31  33
ATOM     33  O   LIG A   1      -9.730  -1.493 123.187  0.00  0.00    -0.386 OA
ATOM     34  H   LIG A   1      -9.578  -0.769 122.546  0.00  0.00    +0.210 HD
ENDBRANCH  31  33
BRANCH  30  35
ATOM     35  O   LIG A   1      -8.824  -3.962 124.090  0.00  0.00    -0.387 OA
ATOM     36  H   LIG A   1      -9.221  -4.237 123.240  0.00  0.00    +0.210 HD
ENDBRANCH  30  35
BRANCH  32  37
ATOM     37  O   LIG A   1     -10.001  -2.300 125.742  0.00  0.00    -0.383 OA
ATOM     38  H   LIG A   1      -9.852  -3.092 125.173  0.00  0.00    +0.210 HD
ENDBRANCH  32  37
BRANCH  29  39
ATOM     39  C   LIG A   1      -5.443  -2.236 124.051  0.00  0.00    +0.190 C 
BRANCH  39  40
ATOM     40  O   LIG A   1      -4.540  -3.088 123.348  0.00  0.00    -0.392 OA
ATOM     41  H   LIG A   1      -3.695  -3.086 123.831  0.00  0.00    +0.209 HD
ENDBRANCH  39  40
ENDBRANCH  29  39
ENDBRANCH  26  27
ENDBRANCH   6  26
TORSDOF 12
ENDMDL
MODEL 4
REMARK VINA RESULT:      -7.3      2.448      6.176
REMARK  Name = NuBBE_535
REMARK  12 active torsions:
REMARK  status: ('A' for Active; 'I' for Inactive)
REMARK    1  A    between atoms: O_1  and  C_2
REMARK    2  A    between atoms: C_4  and  O_5
REMARK    3  A    between atoms: C_8  and  O_9
REMARK    4  A    between atoms: O_9  and  C_10
REMARK    5  A    between atoms: C_13  and  C_21
REMARK    6  A    between atoms: C_15  and  O_20
REMARK    7  A    between atoms: C_17  and  O_19
REMARK    8  A    between atoms: C_21  and  O_22
REMARK    9  A    between atoms: C_23  and  O_25
REMARK   10  A    between atoms: C_26  and  C_30
REMARK   11  A    between atoms: C_32  and  O_33
REMARK   12  A    between atoms: C_34  and  O_37
REMARK                            x       y       z     vdW  Elec       q    Type
REMARK                         _______ _______ _______ _____ _____    ______ ____
ROOT
ATOM      1  C   LIG A   1     -12.177   7.080 130.894  0.00  0.00    +0.124 A 
ATOM      2  C   LIG A   1     -11.643   7.825 129.848  0.00  0.00    +0.091 A 
ATOM      3  C   LIG A   1     -10.617   7.272 129.064  0.00  0.00    +0.135 A 
ATOM      4  C   LIG A   1     -10.134   5.985 129.334  0.00  0.00    +0.109 A 
ATOM      5  C   LIG A   1      -9.108   5.290 128.526  0.00  0.00    +0.238 A 
ATOM      6  C   LIG A   1      -8.379   4.132 129.143  0.00  0.00    +0.214 A 
ATOM      7  C   LIG A   1      -8.959   3.617 130.255  0.00  0.00    +0.181 A 
ATOM      8  O   LIG A   1     -10.175   4.059 130.781  0.00  0.00    -0.451 OA
ATOM      9  C   LIG A   1     -10.646   5.286 130.414  0.00  0.00    +0.146 A 
ATOM     10  C   LIG A   1     -11.681   5.817 131.189  0.00  0.00    +0.092 A 
ATOM     11  O   LIG A   1      -8.873   5.612 127.354  0.00  0.00    -0.283 OA
ENDROOT
BRANCH   7  12
ATOM     12  C   LIG A   1      -8.446   2.544 131.121  0.00  0.00    +0.025 A 
ATOM     13  C   LIG A   1      -7.664   2.878 132.237  0.00  0.00    +0.060 A 
ATOM     14  C   LIG A   1      -7.207   1.867 133.076  0.00  0.00    +0.159 A 
ATOM     15  C   LIG A   1      -7.470   0.533 132.782  0.00  0.00    +0.158 A 
ATOM     16  C   LIG A   1      -8.186   0.183 131.646  0.00  0.00    +0.050 A 
ATOM     17  C   LIG A   1      -8.677   1.193 130.811  0.00  0.00    +0.015 A 
BRANCH  14  18
ATOM     18  O   LIG A   1      -6.514   2.143 134.221  0.00  0.00    -0.503 OA
ATOM     19  H   LIG A   1      -7.101   2.655 134.806  0.00  0.00    +0.292 HD
ENDBRANCH  14  18
BRANCH  15  20
ATOM     20  O   LIG A   1      -7.044  -0.447 133.631  0.00  0.00    -0.503 OA
ATOM     21  H   LIG A   1      -7.866  -0.815 134.014  0.00  0.00    +0.292 HD
ENDBRANCH  15  20
ENDBRANCH   7  12
BRANCH   1  22
ATOM     22  O   LIG A   1     -13.190   7.559 131.671  0.00  0.00    -0.506 OA
ATOM     23  H   LIG A   1     -13.799   6.836 131.896  0.00  0.00    +0.292 HD
ENDBRANCH   1  22
BRANCH   3  24
ATOM     24  O   LIG A   1     -10.074   8.027 128.067  0.00  0.00    -0.506 OA
ATOM     25  H   LIG A   1      -9.169   7.739 127.871  0.00  0.00    +0.292 HD
ENDBRANCH   3  24
BRANCH   6  26
ATOM     26  O   LIG A   1      -7.221   3.773 128.464  0.00  0.00    -0.453 OA
BRANCH  26  27
ATOM     27  C   LIG A   1      -5.943   4.341 128.764  0.00  0.00    +0.340 C 
ATOM     28  O   LIG A   1      -5.627   5.416 127.859  0.00  0.00    -0.331 OA
ATOM     29  C   LIG A   1      -4.846   5.170 126.683  0.00  0.00    +0.179 C 
ATOM     30  C   LIG A   1      -3.653   4.240 126.926  0.00  0.00    +0.177 C 
ATOM     31  C   LIG A   1      -4.136   2.950 127.579  0.00  0.00    +0.180 C 
ATOM     32  C   LIG A   1      -4.847   3.257 128.903  0.00  0.00    +0.214 C 
BRANCH  31  33
ATOM     33  O   LIG A   1      -2.990   2.116 127.835  0.00  0.00    -0.386 OA
ATOM     34  H   LIG A   1      -3.167   1.679 128.692  0.00  0.00    +0.210 HD
ENDBRANCH  31  33
BRANCH  30  35
ATOM     35  O   LIG A   1      -2.708   4.882 127.815  0.00  0.00    -0.387 OA
ATOM     36  H   LIG A   1      -3.263   5.386 128.444  0.00  0.00    +0.210 HD
ENDBRANCH  30  35
BRANCH  32  37
ATOM     37  O   LIG A   1      -3.837   3.682 129.855  0.00  0.00    -0.383 OA
ATOM     38  H   LIG A   1      -4.177   4.525 130.238  0.00  0.00    +0.210 HD
ENDBRANCH  32  37
BRANCH  29  39
ATOM     39  C   LIG A   1      -5.704   4.725 125.488  0.00  0.00    +0.190 C 
BRANCH  39  40
ATOM     40  O   LIG A   1      -6.614   5.762 125.126  0.00  0.00    -0.392 OA
ATOM     41  H   LIG A   1      -6.370   6.071 124.235  0.00  0.00    +0.209 HD
ENDBRANCH  39  40
ENDBRANCH  29  39
ENDBRANCH  26  27
ENDBRANCH   6  26
TORSDOF 12
ENDMDL
MODEL 5
REMARK VINA RESULT:      -7.3      2.810      4.581
REMARK  Name = NuBBE_535
REMARK  12 active torsions:
REMARK  status: ('A' for Active; 'I' for Inactive)
REMARK    1  A    between atoms: O_1  and  C_2
REMARK    2  A    between atoms: C_4  and  O_5
REMARK    3  A    between atoms: C_8  and  O_9
REMARK    4  A    between atoms: O_9  and  C_10
REMARK    5  A    between atoms: C_13  and  C_21
REMARK    6  A    between atoms: C_15  and  O_20
REMARK    7  A    between atoms: C_17  and  O_19
REMARK    8  A    between atoms: C_21  and  O_22
REMARK    9  A    between atoms: C_23  and  O_25
REMARK   10  A    between atoms: C_26  and  C_30
REMARK   11  A    between atoms: C_32  and  O_33
REMARK   12  A    between atoms: C_34  and  O_37
REMARK                            x       y       z     vdW  Elec       q    Type
REMARK                         _______ _______ _______ _____ _____    ______ ____
ROOT
ATOM      1  C   LIG A   1      -2.368   3.708 126.842  0.00  0.00    +0.124 A 
ATOM      2  C   LIG A   1      -2.689   4.963 127.347  0.00  0.00    +0.091 A 
ATOM      3  C   LIG A   1      -3.964   5.176 127.898  0.00  0.00    +0.135 A 
ATOM      4  C   LIG A   1      -4.904   4.137 127.933  0.00  0.00    +0.109 A 
ATOM      5  C   LIG A   1      -6.243   4.243 128.552  0.00  0.00    +0.238 A 
ATOM      6  C   LIG A   1      -7.290   3.242 128.158  0.00  0.00    +0.214 A 
ATOM      7  C   LIG A   1      -6.819   2.136 127.531  0.00  0.00    +0.181 A 
ATOM      8  O   LIG A   1      -5.464   1.879 127.308  0.00  0.00    -0.451 OA
ATOM      9  C   LIG A   1      -4.577   2.913 127.374  0.00  0.00    +0.146 A 
ATOM     10  C   LIG A   1      -3.304   2.683 126.843  0.00  0.00    +0.092 A 
ATOM     11  O   LIG A   1      -6.501   5.099 129.407  0.00  0.00    -0.283 OA
ENDROOT
BRANCH   7  12
ATOM     12  C   LIG A   1      -7.598   1.028 126.958  0.00  0.00    +0.025 A 
ATOM     13  C   LIG A   1      -8.548   1.300 125.962  0.00  0.00    +0.060 A 
ATOM     14  C   LIG A   1      -9.261   0.250 125.395  0.00  0.00    +0.159 A 
ATOM     15  C   LIG A   1      -9.079  -1.053 125.848  0.00  0.00    +0.158 A 
ATOM     16  C   LIG A   1      -8.191  -1.330 126.876  0.00  0.00    +0.050 A 
ATOM     17  C   LIG A   1      -7.445  -0.286 127.434  0.00  0.00    +0.015 A 
BRANCH  14  18
ATOM     18  O   LIG A   1     -10.138   0.450 124.365  0.00  0.00    -0.503 OA
ATOM     19  H   LIG A   1     -10.624   1.274 124.547  0.00  0.00    +0.292 HD
ENDBRANCH  14  18
BRANCH  15  20
ATOM     20  O   LIG A   1      -9.761  -2.079 125.259  0.00  0.00    -0.503 OA
ATOM     21  H   LIG A   1     -10.450  -1.638 124.722  0.00  0.00    +0.292 HD
ENDBRANCH  15  20
ENDBRANCH   7  12
BRANCH   1  22
ATOM     22  O   LIG A   1      -1.137   3.439 126.319  0.00  0.00    -0.506 OA
ATOM     23  H   LIG A   1      -0.471   4.003 126.744  0.00  0.00    +0.292 HD
ENDBRANCH   1  22
BRANCH   3  24
ATOM     24  O   LIG A   1      -4.281   6.421 128.355  0.00  0.00    -0.506 OA
ATOM     25  H   LIG A   1      -3.720   7.094 127.938  0.00  0.00    +0.292 HD
ENDBRANCH   3  24
BRANCH   6  26
ATOM     26  O   LIG A   1      -8.582   3.616 128.507  0.00  0.00    -0.453 OA
BRANCH  26  27
ATOM     27  C   LIG A   1      -9.319   2.968 129.548  0.00  0.00    +0.340 C 
ATOM     28  O   LIG A   1     -10.333   3.838 130.085  0.00  0.00    -0.331 OA
ATOM     29  C   LIG A   1     -10.069   4.630 131.250  0.00  0.00    +0.179 C 
ATOM     30  C   LIG A   1      -9.310   3.872 132.344  0.00  0.00    +0.177 C 
ATOM     31  C   LIG A   1      -8.040   3.266 131.757  0.00  0.00    +0.180 C 
ATOM     32  C   LIG A   1      -8.386   2.321 130.600  0.00  0.00    +0.214 C 
BRANCH  31  33
ATOM     33  O   LIG A   1      -7.372   2.525 132.796  0.00  0.00    -0.386 OA
ATOM     34  H   LIG A   1      -7.214   3.166 133.518  0.00  0.00    +0.210 HD
ENDBRANCH  31  33
BRANCH  30  35
ATOM     35  O   LIG A   1     -10.137   2.802 132.858  0.00  0.00    -0.387 OA
ATOM     36  H   LIG A   1      -9.517   2.061 133.014  0.00  0.00    +0.210 HD
ENDBRANCH  30  35
BRANCH  32  37
ATOM     37  O   LIG A   1      -9.012   1.141 131.170  0.00  0.00    -0.383 OA
ATOM     38  H   LIG A   1      -9.903   1.089 130.748  0.00  0.00    +0.210 HD
ENDBRANCH  32  37
BRANCH  29  39
ATOM     39  C   LIG A   1      -9.418   5.980 130.911  0.00  0.00    +0.190 C 
BRANCH  39  40
ATOM     40  O   LIG A   1      -9.354   6.151 129.496  0.00  0.00    -0.392 OA
ATOM     41  H   LIG A   1      -8.674   5.543 129.156  0.00  0.00    +0.209 HD
ENDBRANCH  39  40
ENDBRANCH  29  39
ENDBRANCH  26  27
ENDBRANCH   6  26
TORSDOF 12
ENDMDL
MODEL 6
REMARK VINA RESULT:      -7.2      3.133      7.479
REMARK  Name = NuBBE_535
REMARK  12 active torsions:
REMARK  status: ('A' for Active; 'I' for Inactive)
REMARK    1  A    between atoms: O_1  and  C_2
REMARK    2  A    between atoms: C_4  and  O_5
REMARK    3  A    between atoms: C_8  and  O_9
REMARK    4  A    between atoms: O_9  and  C_10
REMARK    5  A    between atoms: C_13  and  C_21
REMARK    6  A    between atoms: C_15  and  O_20
REMARK    7  A    between atoms: C_17  and  O_19
REMARK    8  A    between atoms: C_21  and  O_22
REMARK    9  A    between atoms: C_23  and  O_25
REMARK   10  A    between atoms: C_26  and  C_30
REMARK   11  A    between atoms: C_32  and  O_33
REMARK   12  A    between atoms: C_34  and  O_37
REMARK                            x       y       z     vdW  Elec       q    Type
REMARK                         _______ _______ _______ _____ _____    ______ ____
ROOT
ATOM      1  C   LIG A   1      -8.239   4.555 134.305  0.00  0.00    +0.124 A 
ATOM      2  C   LIG A   1      -9.301   3.810 133.806  0.00  0.00    +0.091 A 
ATOM      3  C   LIG A   1      -9.186   3.211 132.540  0.00  0.00    +0.135 A 
ATOM      4  C   LIG A   1      -8.015   3.366 131.786  0.00  0.00    +0.109 A 
ATOM      5  C   LIG A   1      -7.772   2.721 130.478  0.00  0.00    +0.238 A 
ATOM      6  C   LIG A   1      -6.701   3.288 129.593  0.00  0.00    +0.214 A 
ATOM      7  C   LIG A   1      -5.830   4.126 130.210  0.00  0.00    +0.181 A 
ATOM      8  O   LIG A   1      -5.855   4.412 131.576  0.00  0.00    -0.451 OA
ATOM      9  C   LIG A   1      -6.993   4.158 132.284  0.00  0.00    +0.146 A 
ATOM     10  C   LIG A   1      -7.088   4.742 133.551  0.00  0.00    +0.092 A 
ATOM     11  O   LIG A   1      -8.393   1.711 130.123  0.00  0.00    -0.283 OA
ENDROOT
BRANCH   7  12
ATOM     12  C   LIG A   1      -4.736   4.894 129.597  0.00  0.00    +0.025 A 
ATOM     13  C   LIG A   1      -3.825   4.238 128.755  0.00  0.00    +0.060 A 
ATOM     14  C   LIG A   1      -2.810   4.969 128.148  0.00  0.00    +0.159 A 
ATOM     15  C   LIG A   1      -2.660   6.326 128.417  0.00  0.00    +0.158 A 
ATOM     16  C   LIG A   1      -3.512   6.975 129.299  0.00  0.00    +0.050 A 
ATOM     17  C   LIG A   1      -4.556   6.256 129.892  0.00  0.00    +0.015 A 
BRANCH  14  18
ATOM     18  O   LIG A   1      -1.948   4.397 127.254  0.00  0.00    -0.503 OA
ATOM     19  H   LIG A   1      -1.068   4.787 127.402  0.00  0.00    +0.292 HD
ENDBRANCH  14  18
BRANCH  15  20
ATOM     20  O   LIG A   1      -1.680   7.040 127.789  0.00  0.00    -0.503 OA
ATOM     21  H   LIG A   1      -1.072   6.360 127.434  0.00  0.00    +0.292 HD
ENDBRANCH  15  20
ENDBRANCH   7  12
BRANCH   1  22
ATOM     22  O   LIG A   1      -8.287   5.137 135.537  0.00  0.00    -0.506 OA
ATOM     23  H   LIG A   1      -8.658   6.032 135.463  0.00  0.00    +0.292 HD
ENDBRANCH   1  22
BRANCH   3  24
ATOM     24  O   LIG A   1     -10.249   2.515 132.044  0.00  0.00    -0.506 OA
ATOM     25  H   LIG A   1     -10.745   2.089 132.760  0.00  0.00    +0.292 HD
ENDBRANCH   3  24
BRANCH   6  26
ATOM     26  O   LIG A   1      -6.776   2.855 128.275  0.00  0.00    -0.453 OA
BRANCH  26  27
ATOM     27  C   LIG A   1      -7.440   3.604 127.252  0.00  0.00    +0.340 C 
ATOM     28  O   LIG A   1      -8.585   2.892 126.747  0.00  0.00    -0.331 OA
ATOM     29  C   LIG A   1      -8.473   2.071 125.578  0.00  0.00    +0.179 C 
ATOM     30  C   LIG A   1      -7.643   2.711 124.461  0.00  0.00    +0.177 C 
ATOM     31  C   LIG A   1      -6.281   3.124 125.009  0.00  0.00    +0.180 C 
ATOM     32  C   LIG A   1      -6.453   4.109 126.172  0.00  0.00    +0.214 C 
BRANCH  31  33
ATOM     33  O   LIG A   1      -5.542   3.760 123.950  0.00  0.00    -0.386 OA
ATOM     34  H   LIG A   1      -5.258   3.036 123.355  0.00  0.00    +0.210 HD
ENDBRANCH  31  33
BRANCH  30  35
ATOM     35  O   LIG A   1      -8.319   3.890 123.966  0.00  0.00    -0.387 OA
ATOM     36  H   LIG A   1      -7.638   4.592 123.985  0.00  0.00    +0.210 HD
ENDBRANCH  30  35
BRANCH  32  37
ATOM     37  O   LIG A   1      -6.916   5.368 125.616  0.00  0.00    -0.383 OA
ATOM     38  H   LIG A   1      -7.873   5.230 125.418  0.00  0.00    +0.210 HD
ENDBRANCH  32  37
BRANCH  29  39
ATOM     39  C   LIG A   1      -8.017   0.640 125.904  0.00  0.00    +0.190 C 
BRANCH  39  40
ATOM     40  O   LIG A   1      -8.206   0.370 127.292  0.00  0.00    -0.392 OA
ATOM     41  H   LIG A   1      -7.418  -0.106 127.610  0.00  0.00    +0.209 HD
ENDBRANCH  39  40
ENDBRANCH  29  39
ENDBRANCH  26  27
ENDBRANCH   6  26
TORSDOF 12
ENDMDL
MODEL 7
REMARK VINA RESULT:      -7.2      1.999      6.565
REMARK  Name = NuBBE_535
REMARK  12 active torsions:
REMARK  status: ('A' for Active; 'I' for Inactive)
REMARK    1  A    between atoms: O_1  and  C_2
REMARK    2  A    between atoms: C_4  and  O_5
REMARK    3  A    between atoms: C_8  and  O_9
REMARK    4  A    between atoms: O_9  and  C_10
REMARK    5  A    between atoms: C_13  and  C_21
REMARK    6  A    between atoms: C_15  and  O_20
REMARK    7  A    between atoms: C_17  and  O_19
REMARK    8  A    between atoms: C_21  and  O_22
REMARK    9  A    between atoms: C_23  and  O_25
REMARK   10  A    between atoms: C_26  and  C_30
REMARK   11  A    between atoms: C_32  and  O_33
REMARK   12  A    between atoms: C_34  and  O_37
REMARK                            x       y       z     vdW  Elec       q    Type
REMARK                         _______ _______ _______ _____ _____    ______ ____
ROOT
ATOM      1  C   LIG A   1      -7.866  -1.201 132.371  0.00  0.00    +0.124 A 
ATOM      2  C   LIG A   1      -7.670  -1.974 131.232  0.00  0.00    +0.091 A 
ATOM      3  C   LIG A   1      -7.676  -1.355 129.972  0.00  0.00    +0.135 A 
ATOM      4  C   LIG A   1      -7.882   0.026 129.861  0.00  0.00    +0.109 A 
ATOM      5  C   LIG A   1      -7.838   0.779 128.589  0.00  0.00    +0.238 A 
ATOM      6  C   LIG A   1      -8.483   2.134 128.540  0.00  0.00    +0.214 A 
ATOM      7  C   LIG A   1      -8.751   2.685 129.749  0.00  0.00    +0.181 A 
ATOM      8  O   LIG A   1      -8.409   2.099 130.970  0.00  0.00    -0.451 OA
ATOM      9  C   LIG A   1      -8.129   0.765 131.006  0.00  0.00    +0.146 A 
ATOM     10  C   LIG A   1      -8.105   0.163 132.268  0.00  0.00    +0.092 A 
ATOM     11  O   LIG A   1      -7.251   0.341 127.591  0.00  0.00    -0.283 OA
ENDROOT
BRANCH   7  12
ATOM     12  C   LIG A   1      -9.447   3.951 130.025  0.00  0.00    +0.025 A 
ATOM     13  C   LIG A   1      -8.728   5.155 129.969  0.00  0.00    +0.060 A 
ATOM     14  C   LIG A   1      -9.391   6.356 130.196  0.00  0.00    +0.159 A 
ATOM     15  C   LIG A   1     -10.741   6.364 130.532  0.00  0.00    +0.158 A 
ATOM     16  C   LIG A   1     -11.450   5.178 130.655  0.00  0.00    +0.050 A 
ATOM     17  C   LIG A   1     -10.801   3.965 130.400  0.00  0.00    +0.015 A 
BRANCH  14  18
ATOM     18  O   LIG A   1      -8.758   7.561 130.071  0.00  0.00    -0.503 OA
ATOM     19  H   LIG A   1      -8.794   8.005 130.937  0.00  0.00    +0.292 HD
ENDBRANCH  14  18
BRANCH  15  20
ATOM     20  O   LIG A   1     -11.388   7.552 130.719  0.00  0.00    -0.503 OA
ATOM     21  H   LIG A   1     -10.756   8.227 130.401  0.00  0.00    +0.292 HD
ENDBRANCH  15  20
ENDBRANCH   7  12
BRANCH   1  22
ATOM     22  O   LIG A   1      -7.845  -1.746 133.621  0.00  0.00    -0.506 OA
ATOM     23  H   LIG A   1      -8.719  -2.113 133.833  0.00  0.00    +0.292 HD
ENDBRANCH   1  22
BRANCH   3  24
ATOM     24  O   LIG A   1      -7.521  -2.130 128.859  0.00  0.00    -0.506 OA
ATOM     25  H   LIG A   1      -8.196  -1.917 128.196  0.00  0.00    +0.292 HD
ENDBRANCH   3  24
BRANCH   6  26
ATOM     26  O   LIG A   1      -8.699   2.605 127.251  0.00  0.00    -0.453 OA
BRANCH  26  27
ATOM     27  C   LIG A   1      -8.071   3.787 126.745  0.00  0.00    +0.340 C 
ATOM     28  O   LIG A   1      -8.655   4.190 125.492  0.00  0.00    -0.331 OA
ATOM     29  C   LIG A   1      -8.070   3.777 124.251  0.00  0.00    +0.179 C 
ATOM     30  C   LIG A   1      -6.541   3.865 124.238  0.00  0.00    +0.177 C 
ATOM     31  C   LIG A   1      -5.976   3.096 125.428  0.00  0.00    +0.180 C 
ATOM     32  C   LIG A   1      -6.528   3.666 126.740  0.00  0.00    +0.214 C 
BRANCH  31  33
ATOM     33  O   LIG A   1      -4.542   3.233 125.414  0.00  0.00    -0.386 OA
ATOM     34  H   LIG A   1      -4.349   4.044 125.928  0.00  0.00    +0.210 HD
ENDBRANCH  31  33
BRANCH  30  35
ATOM     35  O   LIG A   1      -6.132   5.248 124.346  0.00  0.00    -0.387 OA
ATOM     36  H   LIG A   1      -6.799   5.659 124.931  0.00  0.00    +0.210 HD
ENDBRANCH  30  35
BRANCH  32  37
ATOM     37  O   LIG A   1      -5.921   4.968 126.944  0.00  0.00    -0.383 OA
ATOM     38  H   LIG A   1      -6.617   5.517 127.376  0.00  0.00    +0.210 HD
ENDBRANCH  32  37
BRANCH  29  39
ATOM     39  C   LIG A   1      -8.584   2.406 123.785  0.00  0.00    +0.190 C 
BRANCH  39  40
ATOM     40  O   LIG A   1      -9.857   2.135 124.369  0.00  0.00    -0.392 OA
ATOM     41  H   LIG A   1     -10.217   1.340 123.937  0.00  0.00    +0.209 HD
ENDBRANCH  39  40
ENDBRANCH  29  39
ENDBRANCH  26  27
ENDBRANCH   6  26
TORSDOF 12
ENDMDL
MODEL 8
REMARK VINA RESULT:      -7.1      3.021      4.576
REMARK  Name = NuBBE_535
REMARK  12 active torsions:
REMARK  status: ('A' for Active; 'I' for Inactive)
REMARK    1  A    between atoms: O_1  and  C_2
REMARK    2  A    between atoms: C_4  and  O_5
REMARK    3  A    between atoms: C_8  and  O_9
REMARK    4  A    between atoms: O_9  and  C_10
REMARK    5  A    between atoms: C_13  and  C_21
REMARK    6  A    between atoms: C_15  and  O_20
REMARK    7  A    between atoms: C_17  and  O_19
REMARK    8  A    between atoms: C_21  and  O_22
REMARK    9  A    between atoms: C_23  and  O_25
REMARK   10  A    between atoms: C_26  and  C_30
REMARK   11  A    between atoms: C_32  and  O_33
REMARK   12  A    between atoms: C_34  and  O_37
REMARK                            x       y       z     vdW  Elec       q    Type
REMARK                         _______ _______ _______ _____ _____    ______ ____
ROOT
ATOM      1  C   LIG A   1      -9.796   1.435 123.621  0.00  0.00    +0.124 A 
ATOM      2  C   LIG A   1      -8.971   2.299 122.910  0.00  0.00    +0.091 A 
ATOM      3  C   LIG A   1      -7.989   3.033 123.597  0.00  0.00    +0.135 A 
ATOM      4  C   LIG A   1      -7.845   2.899 124.984  0.00  0.00    +0.109 A 
ATOM      5  C   LIG A   1      -6.801   3.573 125.786  0.00  0.00    +0.238 A 
ATOM      6  C   LIG A   1      -7.007   3.694 127.268  0.00  0.00    +0.214 A 
ATOM      7  C   LIG A   1      -7.965   2.883 127.781  0.00  0.00    +0.181 A 
ATOM      8  O   LIG A   1      -8.681   1.946 127.033  0.00  0.00    -0.451 OA
ATOM      9  C   LIG A   1      -8.715   2.071 125.675  0.00  0.00    +0.146 A 
ATOM     10  C   LIG A   1      -9.682   1.320 125.000  0.00  0.00    +0.092 A 
ATOM     11  O   LIG A   1      -5.755   3.994 125.274  0.00  0.00    -0.283 OA
ENDROOT
BRANCH   7  12
ATOM     12  C   LIG A   1      -8.449   2.832 129.169  0.00  0.00    +0.025 A 
ATOM     13  C   LIG A   1      -9.404   3.766 129.598  0.00  0.00    +0.060 A 
ATOM     14  C   LIG A   1      -9.888   3.697 130.899  0.00  0.00    +0.159 A 
ATOM     15  C   LIG A   1      -9.390   2.750 131.789  0.00  0.00    +0.158 A 
ATOM     16  C   LIG A   1      -8.398   1.862 131.399  0.00  0.00    +0.050 A 
ATOM     17  C   LIG A   1      -7.925   1.901 130.083  0.00  0.00    +0.015 A 
BRANCH  14  18
ATOM     18  O   LIG A   1     -10.879   4.529 131.342  0.00  0.00    -0.503 OA
ATOM     19  H   LIG A   1     -11.464   4.008 131.921  0.00  0.00    +0.292 HD
ENDBRANCH  14  18
BRANCH  15  20
ATOM     20  O   LIG A   1      -9.897   2.673 133.054  0.00  0.00    -0.503 OA
ATOM     21  H   LIG A   1      -9.288   3.213 133.595  0.00  0.00    +0.292 HD
ENDBRANCH  15  20
ENDBRANCH   7  12
BRANCH   1  22
ATOM     22  O   LIG A   1     -10.748   0.681 123.001  0.00  0.00    -0.506 OA
ATOM     23  H   LIG A   1     -11.615   1.109 123.092  0.00  0.00    +0.292 HD
ENDBRANCH   1  22
BRANCH   3  24
ATOM     24  O   LIG A   1      -7.212   3.907 122.895  0.00  0.00    -0.506 OA
ATOM     25  H   LIG A   1      -7.161   4.763 123.350  0.00  0.00    +0.292 HD
ENDBRANCH   3  24
BRANCH   6  26
ATOM     26  O   LIG A   1      -6.173   4.624 127.875  0.00  0.00    -0.453 OA
BRANCH  26  27
ATOM     27  C   LIG A   1      -4.997   4.250 128.600  0.00  0.00    +0.340 C 
ATOM     28  O   LIG A   1      -5.163   4.478 130.012  0.00  0.00    -0.331 OA
ATOM     29  C   LIG A   1      -4.712   5.700 130.609  0.00  0.00    +0.179 C 
ATOM     30  C   LIG A   1      -3.341   6.158 130.100  0.00  0.00    +0.177 C 
ATOM     31  C   LIG A   1      -3.361   6.231 128.577  0.00  0.00    +0.180 C 
ATOM     32  C   LIG A   1      -3.717   4.863 127.983  0.00  0.00    +0.214 C 
BRANCH  31  33
ATOM     33  O   LIG A   1      -2.050   6.621 128.126  0.00  0.00    -0.386 OA
ATOM     34  H   LIG A   1      -2.189   7.074 127.270  0.00  0.00    +0.210 HD
ENDBRANCH  31  33
BRANCH  30  35
ATOM     35  O   LIG A   1      -2.329   5.206 130.503  0.00  0.00    -0.387 OA
ATOM     36  H   LIG A   1      -2.331   4.528 129.797  0.00  0.00    +0.210 HD
ENDBRANCH  30  35
BRANCH  32  37
ATOM     37  O   LIG A   1      -2.583   3.982 128.198  0.00  0.00    -0.383 OA
ATOM     38  H   LIG A   1      -2.380   4.049 129.161  0.00  0.00    +0.210 HD
ENDBRANCH  32  37
BRANCH  29  39
ATOM     39  C   LIG A   1      -5.767   6.815 130.540  0.00  0.00    +0.190 C 
BRANCH  39  40
ATOM     40  O   LIG A   1      -7.057   6.255 130.300  0.00  0.00    -0.392 OA
ATOM     41  H   LIG A   1      -7.061   5.355 130.672  0.00  0.00    +0.209 HD
ENDBRANCH  39  40
ENDBRANCH  29  39
ENDBRANCH  26  27
ENDBRANCH   6  26
TORSDOF 12
ENDMDL
MODEL 9
REMARK VINA RESULT:      -7.1      2.544      8.347
REMARK  Name = NuBBE_535
REMARK  12 active torsions:
REMARK  status: ('A' for Active; 'I' for Inactive)
REMARK    1  A    between atoms: O_1  and  C_2
REMARK    2  A    between atoms: C_4  and  O_5
REMARK    3  A    between atoms: C_8  and  O_9
REMARK    4  A    between atoms: O_9  and  C_10
REMARK    5  A    between atoms: C_13  and  C_21
REMARK    6  A    between atoms: C_15  and  O_20
REMARK    7  A    between atoms: C_17  and  O_19
REMARK    8  A    between atoms: C_21  and  O_22
REMARK    9  A    between atoms: C_23  and  O_25
REMARK   10  A    between atoms: C_26  and  C_30
REMARK   11  A    between atoms: C_32  and  O_33
REMARK   12  A    between atoms: C_34  and  O_37
REMARK                            x       y       z     vdW  Elec       q    Type
REMARK                         _______ _______ _______ _____ _____    ______ ____
ROOT
ATOM      1  C   LIG A   1      -8.555   3.322 132.055  0.00  0.00    +0.124 A 
ATOM      2  C   LIG A   1      -9.098   2.070 132.322  0.00  0.00    +0.091 A 
ATOM      3  C   LIG A   1      -8.895   1.024 131.407  0.00  0.00    +0.135 A 
ATOM      4  C   LIG A   1      -8.157   1.239 130.236  0.00  0.00    +0.109 A 
ATOM      5  C   LIG A   1      -7.830   0.188 129.248  0.00  0.00    +0.238 A 
ATOM      6  C   LIG A   1      -7.423   0.611 127.867  0.00  0.00    +0.214 A 
ATOM      7  C   LIG A   1      -7.067   1.914 127.747  0.00  0.00    +0.181 A 
ATOM      8  O   LIG A   1      -7.007   2.810 128.816  0.00  0.00    -0.451 OA
ATOM      9  C   LIG A   1      -7.672   2.509 129.969  0.00  0.00    +0.146 A 
ATOM     10  C   LIG A   1      -7.850   3.553 130.881  0.00  0.00    +0.092 A 
ATOM     11  O   LIG A   1      -7.843  -1.014 129.546  0.00  0.00    -0.283 OA
ENDROOT
BRANCH   7  12
ATOM     12  C   LIG A   1      -6.704   2.636 126.519  0.00  0.00    +0.025 A 
ATOM     13  C   LIG A   1      -7.686   2.872 125.545  0.00  0.00    +0.060 A 
ATOM     14  C   LIG A   1      -7.352   3.585 124.399  0.00  0.00    +0.159 A 
ATOM     15  C   LIG A   1      -6.045   4.012 124.189  0.00  0.00    +0.158 A 
ATOM     16  C   LIG A   1      -5.048   3.729 125.111  0.00  0.00    +0.050 A 
ATOM     17  C   LIG A   1      -5.378   3.039 126.283  0.00  0.00    +0.015 A 
BRANCH  14  18
ATOM     18  O   LIG A   1      -8.289   3.914 123.460  0.00  0.00    -0.503 OA
ATOM     19  H   LIG A   1      -8.792   4.676 123.799  0.00  0.00    +0.292 HD
ENDBRANCH  14  18
BRANCH  15  20
ATOM     20  O   LIG A   1      -5.738   4.739 123.075  0.00  0.00    -0.503 OA
ATOM     21  H   LIG A   1      -5.122   5.429 123.395  0.00  0.00    +0.292 HD
ENDBRANCH  15  20
ENDBRANCH   7  12
BRANCH   1  22
ATOM     22  O   LIG A   1      -8.700   4.366 132.920  0.00  0.00    -0.506 OA
ATOM     23  H   LIG A   1      -8.174   4.204 133.720  0.00  0.00    +0.292 HD
ENDBRANCH   1  22
BRANCH   3  24
ATOM     24  O   LIG A   1      -9.466  -0.189 131.660  0.00  0.00    -0.506 OA
ATOM     25  H   LIG A   1      -9.435  -0.392 132.608  0.00  0.00    +0.292 HD
ENDBRANCH   3  24
BRANCH   6  26
ATOM     26  O   LIG A   1      -7.476  -0.414 126.929  0.00  0.00    -0.453 OA
BRANCH  26  27
ATOM     27  C   LIG A   1      -8.421  -0.430 125.855  0.00  0.00    +0.340 C 
ATOM     28  O   LIG A   1      -9.474  -1.380 126.104  0.00  0.00    -0.331 OA
ATOM     29  C   LIG A   1      -9.392  -2.712 125.581  0.00  0.00    +0.179 C 
ATOM     30  C   LIG A   1      -8.882  -2.768 124.137  0.00  0.00    +0.177 C 
ATOM     31  C   LIG A   1      -7.556  -2.023 124.034  0.00  0.00    +0.180 C 
ATOM     32  C   LIG A   1      -7.729  -0.565 124.478  0.00  0.00    +0.214 C 
BRANCH  31  33
ATOM     33  O   LIG A   1      -7.125  -2.056 122.660  0.00  0.00    -0.386 OA
ATOM     34  H   LIG A   1      -7.942  -1.985 122.125  0.00  0.00    +0.210 HD
ENDBRANCH  31  33
BRANCH  30  35
ATOM     35  O   LIG A   1      -9.840  -2.132 123.258  0.00  0.00    -0.387 OA
ATOM     36  H   LIG A   1     -10.587  -2.761 123.208  0.00  0.00    +0.210 HD
ENDBRANCH  30  35
BRANCH  32  37
ATOM     37  O   LIG A   1      -8.504   0.116 123.456  0.00  0.00    -0.383 OA
ATOM     38  H   LIG A   1      -9.327   0.417 123.910  0.00  0.00    +0.210 HD
ENDBRANCH  32  37
BRANCH  29  39
ATOM     39  C   LIG A   1      -8.626  -3.665 126.512  0.00  0.00    +0.190 C 
BRANCH  39  40
ATOM     40  O   LIG A   1      -8.622  -3.152 127.843  0.00  0.00    -0.392 OA
ATOM     41  H   LIG A   1      -7.972  -2.427 127.878  0.00  0.00    +0.209 HD
ENDBRANCH  39  40
ENDBRANCH  29  39
ENDBRANCH  26  27
ENDBRANCH   6  26
TORSDOF 12
ENDMDL
