MODEL 1
REMARK VINA RESULT:      -6.8      0.000      0.000
REMARK  Name = NuBBE_1944
REMARK  4 active torsions:
REMARK  status: ('A' for Active; 'I' for Inactive)
REMARK    1  A    between atoms: C_1  and  C_2
REMARK    2  A    between atoms: C_2  and  C_4
REMARK    3  A    between atoms: C_2  and  C_19
REMARK    4  A    between atoms: C_11  and  C_12
REMARK                            x       y       z     vdW  Elec       q    Type
REMARK                         _______ _______ _______ _____ _____    ______ ____
ROOT
ATOM      1  C   LIG A   1      -8.173  -2.718 125.925  0.00  0.00    -0.001 C 
ATOM      2  C   LIG A   1      -7.783  -3.165 124.470  0.00  0.00    +0.022 C 
ATOM      3  C   LIG A   1      -7.792  -2.085 123.349  0.00  0.00    +0.022 C 
ATOM      4  C   LIG A   1      -6.424  -1.430 123.131  0.00  0.00    +0.013 C 
ATOM      5  C   LIG A   1      -5.327  -2.466 122.878  0.00  0.00    +0.031 C 
ATOM      6  C   LIG A   1      -5.440  -3.721 123.706  0.00  0.00    -0.076 C 
ATOM      7  C   LIG A   1      -4.245  -4.632 123.672  0.00  0.00    +0.038 C 
ATOM      8  C   LIG A   1      -6.540  -4.022 124.417  0.00  0.00    -0.024 C 
ATOM      9  C   LIG A   1      -8.873  -1.044 123.544  0.00  0.00    -0.073 C 
ATOM     10  C   LIG A   1      -8.984  -0.476 124.927  0.00  0.00    +0.031 C 
ATOM     11  C   LIG A   1      -9.234  -1.595 125.928  0.00  0.00    +0.009 C 
ATOM     12  C   LIG A   1      -9.701  -0.676 122.553  0.00  0.00    +0.008 C 
ENDROOT
BRANCH   1  14
ATOM     13  C   LIG A   1      -7.561  -2.549 128.416  0.00  0.00    +0.007 C 
ATOM     14  C   LIG A   1      -7.022  -2.542 126.974  0.00  0.00    -0.013 C 
ATOM     15  C   LIG A   1      -6.123  -1.324 126.795  0.00  0.00    +0.007 C 
ENDBRANCH   1  14
TORSDOF 1
ENDMDL
MODEL 2
REMARK VINA RESULT:      -6.4      1.047      3.804
REMARK  Name = NuBBE_1944
REMARK  4 active torsions:
REMARK  status: ('A' for Active; 'I' for Inactive)
REMARK    1  A    between atoms: C_1  and  C_2
REMARK    2  A    between atoms: C_2  and  C_4
REMARK    3  A    between atoms: C_2  and  C_19
REMARK    4  A    between atoms: C_11  and  C_12
REMARK                            x       y       z     vdW  Elec       q    Type
REMARK                         _______ _______ _______ _____ _____    ______ ____
ROOT
ATOM      1  C   LIG A   1      -6.081  -1.915 124.114  0.00  0.00    -0.001 C 
ATOM      2  C   LIG A   1      -7.224  -1.478 125.099  0.00  0.00    +0.022 C 
ATOM      3  C   LIG A   1      -8.696  -1.624 124.617  0.00  0.00    +0.022 C 
ATOM      4  C   LIG A   1      -9.336  -2.953 125.031  0.00  0.00    +0.013 C 
ATOM      5  C   LIG A   1      -9.231  -3.196 126.538  0.00  0.00    +0.031 C 
ATOM      6  C   LIG A   1      -7.929  -2.759 127.159  0.00  0.00    -0.076 C 
ATOM      7  C   LIG A   1      -7.694  -3.219 128.570  0.00  0.00    +0.038 C 
ATOM      8  C   LIG A   1      -7.036  -1.995 126.505  0.00  0.00    -0.024 C 
ATOM      9  C   LIG A   1      -8.857  -1.377 123.133  0.00  0.00    -0.073 C 
ATOM     10  C   LIG A   1      -7.864  -2.070 122.249  0.00  0.00    +0.031 C 
ATOM     11  C   LIG A   1      -6.450  -1.657 122.636  0.00  0.00    +0.009 C 
ATOM     12  C   LIG A   1      -9.806  -0.565 122.639  0.00  0.00    +0.008 C 
ENDROOT
BRANCH   1  14
ATOM     13  C   LIG A   1      -4.154  -3.480 123.446  0.00  0.00    +0.007 C 
ATOM     14  C   LIG A   1      -5.357  -3.278 124.385  0.00  0.00    -0.013 C 
ATOM     15  C   LIG A   1      -6.227  -4.528 124.338  0.00  0.00    +0.007 C 
ENDBRANCH   1  14
TORSDOF 1
ENDMDL
MODEL 3
REMARK VINA RESULT:      -6.1      1.472      4.137
REMARK  Name = NuBBE_1944
REMARK  4 active torsions:
REMARK  status: ('A' for Active; 'I' for Inactive)
REMARK    1  A    between atoms: C_1  and  C_2
REMARK    2  A    between atoms: C_2  and  C_4
REMARK    3  A    between atoms: C_2  and  C_19
REMARK    4  A    between atoms: C_11  and  C_12
REMARK                            x       y       z     vdW  Elec       q    Type
REMARK                         _______ _______ _______ _____ _____    ______ ____
ROOT
ATOM      1  C   LIG A   1      -6.388  -0.078 125.398  0.00  0.00    -0.001 C 
ATOM      2  C   LIG A   1      -6.755  -0.392 123.903  0.00  0.00    +0.022 C 
ATOM      3  C   LIG A   1      -6.682  -1.873 123.431  0.00  0.00    +0.022 C 
ATOM      4  C   LIG A   1      -8.023  -2.606 123.540  0.00  0.00    +0.013 C 
ATOM      5  C   LIG A   1      -9.146  -1.860 122.817  0.00  0.00    +0.031 C 
ATOM      6  C   LIG A   1      -9.094  -0.359 122.949  0.00  0.00    -0.076 C 
ATOM      7  C   LIG A   1     -10.315   0.378 122.478  0.00  0.00    +0.038 C 
ATOM      8  C   LIG A   1      -8.022   0.287 123.440  0.00  0.00    -0.024 C 
ATOM      9  C   LIG A   1      -5.574  -2.652 124.105  0.00  0.00    -0.073 C 
ATOM     10  C   LIG A   1      -5.480  -2.490 125.593  0.00  0.00    +0.031 C 
ATOM     11  C   LIG A   1      -5.292  -1.020 125.943  0.00  0.00    +0.009 C 
ATOM     12  C   LIG A   1      -4.709  -3.413 123.415  0.00  0.00    +0.008 C 
ENDROOT
BRANCH   1  14
ATOM     13  C   LIG A   1      -7.075   1.022 127.618  0.00  0.00    +0.007 C 
ATOM     14  C   LIG A   1      -7.559   0.220 126.396  0.00  0.00    -0.013 C 
ATOM     15  C   LIG A   1      -8.352  -0.985 126.888  0.00  0.00    +0.007 C 
ENDBRANCH   1  14
TORSDOF 1
ENDMDL
MODEL 4
REMARK VINA RESULT:      -6.0      1.801      4.575
REMARK  Name = NuBBE_1944
REMARK  4 active torsions:
REMARK  status: ('A' for Active; 'I' for Inactive)
REMARK    1  A    between atoms: C_1  and  C_2
REMARK    2  A    between atoms: C_2  and  C_4
REMARK    3  A    between atoms: C_2  and  C_19
REMARK    4  A    between atoms: C_11  and  C_12
REMARK                            x       y       z     vdW  Elec       q    Type
REMARK                         _______ _______ _______ _____ _____    ______ ____
ROOT
ATOM      1  C   LIG A   1      -9.132  -2.190 125.782  0.00  0.00    -0.001 C 
ATOM      2  C   LIG A   1      -8.546  -0.917 126.491  0.00  0.00    +0.022 C 
ATOM      3  C   LIG A   1      -7.565  -1.132 127.680  0.00  0.00    +0.022 C 
ATOM      4  C   LIG A   1      -6.094  -1.133 127.253  0.00  0.00    +0.013 C 
ATOM      5  C   LIG A   1      -5.724   0.125 126.464  0.00  0.00    +0.031 C 
ATOM      6  C   LIG A   1      -6.786   0.606 125.509  0.00  0.00    -0.076 C 
ATOM      7  C   LIG A   1      -6.356   1.671 124.541  0.00  0.00    +0.038 C 
ATOM      8  C   LIG A   1      -8.044   0.131 125.526  0.00  0.00    -0.024 C 
ATOM      9  C   LIG A   1      -7.898  -2.356 128.504  0.00  0.00    -0.073 C 
ATOM     10  C   LIG A   1      -8.180  -3.605 127.724  0.00  0.00    +0.031 C 
ATOM     11  C   LIG A   1      -9.337  -3.366 126.763  0.00  0.00    +0.009 C 
ATOM     12  C   LIG A   1      -7.969  -2.321 129.845  0.00  0.00    +0.008 C 
ENDROOT
BRANCH   1  14
ATOM     13  C   LIG A   1      -9.567  -3.374 123.542  0.00  0.00    +0.007 C 
ATOM     14  C   LIG A   1      -8.545  -2.591 124.385  0.00  0.00    -0.013 C 
ATOM     15  C   LIG A   1      -7.230  -3.363 124.400  0.00  0.00    +0.007 C 
ENDBRANCH   1  14
TORSDOF 1
ENDMDL
MODEL 5
REMARK VINA RESULT:      -6.0      1.954      4.497
REMARK  Name = NuBBE_1944
REMARK  4 active torsions:
REMARK  status: ('A' for Active; 'I' for Inactive)
REMARK    1  A    between atoms: C_1  and  C_2
REMARK    2  A    between atoms: C_2  and  C_4
REMARK    3  A    between atoms: C_2  and  C_19
REMARK    4  A    between atoms: C_11  and  C_12
REMARK                            x       y       z     vdW  Elec       q    Type
REMARK                         _______ _______ _______ _____ _____    ______ ____
ROOT
ATOM      1  C   LIG A   1      -6.149  -0.236 124.943  0.00  0.00    -0.001 C 
ATOM      2  C   LIG A   1      -6.419  -1.782 125.019  0.00  0.00    +0.022 C 
ATOM      3  C   LIG A   1      -6.577  -2.424 126.428  0.00  0.00    +0.022 C 
ATOM      4  C   LIG A   1      -8.035  -2.509 126.891  0.00  0.00    +0.013 C 
ATOM      5  C   LIG A   1      -8.923  -3.219 125.866  0.00  0.00    +0.031 C 
ATOM      6  C   LIG A   1      -8.605  -2.901 124.427  0.00  0.00    -0.076 C 
ATOM      7  C   LIG A   1      -9.615  -3.371 123.419  0.00  0.00    +0.038 C 
ATOM      8  C   LIG A   1      -7.485  -2.254 124.060  0.00  0.00    -0.024 C 
ATOM      9  C   LIG A   1      -5.706  -1.768 127.476  0.00  0.00    -0.073 C 
ATOM     10  C   LIG A   1      -5.732  -0.269 127.494  0.00  0.00    +0.031 C 
ATOM     11  C   LIG A   1      -5.307   0.272 126.135  0.00  0.00    +0.009 C 
ATOM     12  C   LIG A   1      -4.935  -2.479 128.316  0.00  0.00    +0.008 C 
ENDROOT
BRANCH   1  14
ATOM     13  C   LIG A   1      -6.836   2.062 124.018  0.00  0.00    +0.007 C 
ATOM     14  C   LIG A   1      -7.337   0.699 124.528  0.00  0.00    -0.013 C 
ATOM     15  C   LIG A   1      -8.411   0.937 125.582  0.00  0.00    +0.007 C 
ENDBRANCH   1  14
TORSDOF 1
ENDMDL
MODEL 6
REMARK VINA RESULT:      -5.8      3.343      5.881
REMARK  Name = NuBBE_1944
REMARK  4 active torsions:
REMARK  status: ('A' for Active; 'I' for Inactive)
REMARK    1  A    between atoms: C_1  and  C_2
REMARK    2  A    between atoms: C_2  and  C_4
REMARK    3  A    between atoms: C_2  and  C_19
REMARK    4  A    between atoms: C_11  and  C_12
REMARK                            x       y       z     vdW  Elec       q    Type
REMARK                         _______ _______ _______ _____ _____    ______ ____
ROOT
ATOM      1  C   LIG A   1      -7.034  -3.281 130.928  0.00  0.00    -0.001 C 
ATOM      2  C   LIG A   1      -8.093  -2.552 130.025  0.00  0.00    +0.022 C 
ATOM      3  C   LIG A   1      -7.908  -1.028 129.770  0.00  0.00    +0.022 C 
ATOM      4  C   LIG A   1      -7.130  -0.722 128.486  0.00  0.00    +0.013 C 
ATOM      5  C   LIG A   1      -7.747  -1.406 127.265  0.00  0.00    +0.031 C 
ATOM      6  C   LIG A   1      -8.270  -2.797 127.516  0.00  0.00    -0.076 C 
ATOM      7  C   LIG A   1      -8.638  -3.586 126.292  0.00  0.00    +0.038 C 
ATOM      8  C   LIG A   1      -8.417  -3.302 128.754  0.00  0.00    -0.024 C 
ATOM      9  C   LIG A   1      -7.315  -0.301 130.957  0.00  0.00    -0.073 C 
ATOM     10  C   LIG A   1      -6.122  -0.954 131.588  0.00  0.00    +0.031 C 
ATOM     11  C   LIG A   1      -6.482  -2.362 132.041  0.00  0.00    +0.009 C 
ATOM     12  C   LIG A   1      -7.841   0.838 131.436  0.00  0.00    +0.008 C 
ENDROOT
BRANCH   1  14
ATOM     13  C   LIG A   1      -5.418  -5.264 131.175  0.00  0.00    +0.007 C 
ATOM     14  C   LIG A   1      -5.963  -4.183 130.225  0.00  0.00    -0.013 C 
ATOM     15  C   LIG A   1      -4.785  -3.460 129.582  0.00  0.00    +0.007 C 
ENDBRANCH   1  14
TORSDOF 1
ENDMDL
MODEL 7
REMARK VINA RESULT:      -5.7      1.994      3.476
REMARK  Name = NuBBE_1944
REMARK  4 active torsions:
REMARK  status: ('A' for Active; 'I' for Inactive)
REMARK    1  A    between atoms: C_1  and  C_2
REMARK    2  A    between atoms: C_2  and  C_4
REMARK    3  A    between atoms: C_2  and  C_19
REMARK    4  A    between atoms: C_11  and  C_12
REMARK                            x       y       z     vdW  Elec       q    Type
REMARK                         _______ _______ _______ _____ _____    ______ ____
ROOT
ATOM      1  C   LIG A   1      -7.363   0.498 125.761  0.00  0.00    -0.001 C 
ATOM      2  C   LIG A   1      -8.668  -0.376 125.791  0.00  0.00    +0.022 C 
ATOM      3  C   LIG A   1      -9.264  -0.841 124.431  0.00  0.00    +0.022 C 
ATOM      4  C   LIG A   1      -8.774  -2.228 124.001  0.00  0.00    +0.013 C 
ATOM      5  C   LIG A   1      -9.008  -3.281 125.086  0.00  0.00    +0.031 C 
ATOM      6  C   LIG A   1      -8.771  -2.801 126.495  0.00  0.00    -0.076 C 
ATOM      7  C   LIG A   1      -8.737  -3.869 127.550  0.00  0.00    +0.038 C 
ATOM      8  C   LIG A   1      -8.616  -1.500 126.799  0.00  0.00    -0.024 C 
ATOM      9  C   LIG A   1      -9.074   0.174 123.326  0.00  0.00    -0.073 C 
ATOM     10  C   LIG A   1      -7.697   0.756 123.211  0.00  0.00    +0.031 C 
ATOM     11  C   LIG A   1      -7.304   1.421 124.523  0.00  0.00    +0.009 C 
ATOM     12  C   LIG A   1     -10.079   0.556 122.521  0.00  0.00    +0.008 C 
ENDROOT
BRANCH   1  14
ATOM     13  C   LIG A   1      -4.900   0.842 126.410  0.00  0.00    +0.007 C 
ATOM     14  C   LIG A   1      -6.007  -0.192 126.136  0.00  0.00    -0.013 C 
ATOM     15  C   LIG A   1      -5.476  -1.224 125.147  0.00  0.00    +0.007 C 
ENDBRANCH   1  14
TORSDOF 1
ENDMDL
MODEL 8
REMARK VINA RESULT:      -5.6      3.092      6.093
REMARK  Name = NuBBE_1944
REMARK  4 active torsions:
REMARK  status: ('A' for Active; 'I' for Inactive)
REMARK    1  A    between atoms: C_1  and  C_2
REMARK    2  A    between atoms: C_2  and  C_4
REMARK    3  A    between atoms: C_2  and  C_19
REMARK    4  A    between atoms: C_11  and  C_12
REMARK                            x       y       z     vdW  Elec       q    Type
REMARK                         _______ _______ _______ _____ _____    ______ ____
ROOT
ATOM      1  C   LIG A   1      -6.918  -0.765 130.188  0.00  0.00    -0.001 C 
ATOM      2  C   LIG A   1      -6.693  -1.686 128.935  0.00  0.00    +0.022 C 
ATOM      3  C   LIG A   1      -6.896  -3.218 129.112  0.00  0.00    +0.022 C 
ATOM      4  C   LIG A   1      -8.311  -3.684 128.755  0.00  0.00    +0.013 C 
ATOM      5  C   LIG A   1      -8.724  -3.240 127.350  0.00  0.00    +0.031 C 
ATOM      6  C   LIG A   1      -8.265  -1.857 126.964  0.00  0.00    -0.076 C 
ATOM      7  C   LIG A   1      -8.871  -1.297 125.709  0.00  0.00    +0.038 C 
ATOM      8  C   LIG A   1      -7.360  -1.169 127.682  0.00  0.00    -0.024 C 
ATOM      9  C   LIG A   1      -6.486  -3.712 130.482  0.00  0.00    -0.073 C 
ATOM     10  C   LIG A   1      -6.987  -2.902 131.640  0.00  0.00    +0.031 C 
ATOM     11  C   LIG A   1      -6.514  -1.461 131.507  0.00  0.00    +0.009 C 
ATOM     12  C   LIG A   1      -5.697  -4.786 130.651  0.00  0.00    +0.008 C 
ENDROOT
BRANCH   1  14
ATOM     13  C   LIG A   1      -8.018   1.532 129.834  0.00  0.00    +0.007 C 
ATOM     14  C   LIG A   1      -8.243   0.069 130.260  0.00  0.00    -0.013 C 
ATOM     15  C   LIG A   1      -8.978   0.058 131.595  0.00  0.00    +0.007 C 
ENDBRANCH   1  14
TORSDOF 1
ENDMDL
MODEL 9
REMARK VINA RESULT:      -5.5      7.188      9.611
REMARK  Name = NuBBE_1944
REMARK  4 active torsions:
REMARK  status: ('A' for Active; 'I' for Inactive)
REMARK    1  A    between atoms: C_1  and  C_2
REMARK    2  A    between atoms: C_2  and  C_4
REMARK    3  A    between atoms: C_2  and  C_19
REMARK    4  A    between atoms: C_11  and  C_12
REMARK                            x       y       z     vdW  Elec       q    Type
REMARK                         _______ _______ _______ _____ _____    ______ ____
ROOT
ATOM      1  C   LIG A   1      -4.112   3.283 130.079  0.00  0.00    -0.001 C 
ATOM      2  C   LIG A   1      -3.024   4.381 129.794  0.00  0.00    +0.022 C 
ATOM      3  C   LIG A   1      -2.648   4.665 128.311  0.00  0.00    +0.022 C 
ATOM      4  C   LIG A   1      -3.454   5.812 127.693  0.00  0.00    +0.013 C 
ATOM      5  C   LIG A   1      -3.368   7.090 128.530  0.00  0.00    +0.031 C 
ATOM      6  C   LIG A   1      -3.388   6.871 130.021  0.00  0.00    -0.076 C 
ATOM      7  C   LIG A   1      -3.568   8.105 130.858  0.00  0.00    +0.038 C 
ATOM      8  C   LIG A   1      -3.238   5.655 130.576  0.00  0.00    -0.024 C 
ATOM      9  C   LIG A   1      -2.701   3.427 127.442  0.00  0.00    -0.073 C 
ATOM     10  C   LIG A   1      -3.927   2.578 127.599  0.00  0.00    +0.031 C 
ATOM     11  C   LIG A   1      -4.067   2.133 129.048  0.00  0.00    +0.009 C 
ATOM     12  C   LIG A   1      -1.703   3.092 126.609  0.00  0.00    +0.008 C 
ENDROOT
BRANCH   1  14
ATOM     13  C   LIG A   1      -6.348   2.638 131.169  0.00  0.00    +0.007 C 
ATOM     14  C   LIG A   1      -5.551   3.758 130.476  0.00  0.00    -0.013 C 
ATOM     15  C   LIG A   1      -6.404   4.343 129.357  0.00  0.00    +0.007 C 
ENDBRANCH   1  14
TORSDOF 1
ENDMDL
