MODEL 1
REMARK VINA RESULT:      -8.4      0.000      0.000
REMARK  Name = NuBBE_1516
REMARK  7 active torsions:
REMARK  status: ('A' for Active; 'I' for Inactive)
REMARK    1  A    between atoms: C_1  and  C_2
REMARK    2  A    between atoms: C_9  and  C_12
REMARK    3  A    between atoms: C_13  and  C_18
REMARK    4  A    between atoms: C_18  and  C_19
REMARK    5  A    between atoms: C_24  and  O_26
REMARK    6  A    between atoms: C_27  and  O_33
REMARK    7  A    between atoms: C_29  and  O_32
REMARK                            x       y       z     vdW  Elec       q    Type
REMARK                         _______ _______ _______ _____ _____    ______ ____
ROOT
ATOM      1  C   LIG A   1      -5.312  -2.929 124.205  0.00  0.00    +0.012 C 
ATOM      2  C   LIG A   1      -6.718  -2.531 124.778  0.00  0.00    -0.021 C 
ATOM      3  C   LIG A   1      -6.714  -2.884 126.317  0.00  0.00    -0.001 C 
ATOM      4  C   LIG A   1      -5.573  -2.163 127.083  0.00  0.00    -0.003 C 
ATOM      5  C   LIG A   1      -5.568  -2.488 128.614  0.00  0.00    +0.006 C 
ATOM      6  C   LIG A   1      -6.946  -2.469 129.326  0.00  0.00    -0.019 C 
ATOM      7  C   LIG A   1      -8.048  -3.105 128.469  0.00  0.00    +0.008 C 
ATOM      8  C   LIG A   1      -8.069  -2.673 127.010  0.00  0.00    +0.005 C 
ATOM      9  C   LIG A   1      -6.880  -3.292 130.644  0.00  0.00    +0.012 C 
ATOM     10  C   LIG A   1      -7.157  -0.956 129.618  0.00  0.00    +0.061 C 
ATOM     11  C   LIG A   1      -5.727  -0.539 129.960  0.00  0.00    +0.137 C 
ATOM     12  O   LIG A   1      -5.421   0.483 130.561  0.00  0.00    -0.297 OA
ATOM     13  C   LIG A   1      -4.706  -1.538 129.460  0.00  0.00    +0.079 C 
ATOM     14  C   LIG A   1      -5.383  -0.691 126.646  0.00  0.00    +0.004 C 
ATOM     15  C   LIG A   1      -6.468  -0.119 125.748  0.00  0.00    +0.007 C 
ATOM     16  C   LIG A   1      -6.886  -0.993 124.541  0.00  0.00    +0.026 C 
ATOM     17  C   LIG A   1      -8.283  -0.534 124.086  0.00  0.00    +0.149 C 
ATOM     18  C   LIG A   1      -8.854  -1.412 122.980  0.00  0.00    +0.172 C 
ATOM     19  C   LIG A   1      -9.030  -2.838 123.479  0.00  0.00    +0.146 C 
ATOM     20  C   LIG A   1      -7.721  -3.444 123.978  0.00  0.00    +0.041 C 
ENDROOT
BRANCH  10  21
ATOM     21  C   LIG A   1      -8.166  -0.625 130.720  0.00  0.00    +0.008 C 
ATOM     22  C   LIG A   1      -8.637   0.823 130.658  0.00  0.00    +0.004 C 
ENDBRANCH  10  21
BRANCH  17  23
ATOM     23  O   LIG A   1      -8.195   0.813 123.593  0.00  0.00    -0.389 OA
ATOM     24  H   LIG A   1      -8.846   1.322 124.117  0.00  0.00    +0.210 HD
ENDBRANCH  17  23
BRANCH  19  25
ATOM     25  O   LIG A   1     -10.035  -2.844 124.497  0.00  0.00    -0.389 OA
ATOM     26  H   LIG A   1      -9.891  -3.642 125.038  0.00  0.00    +0.210 HD
ENDBRANCH  19  25
BRANCH  18  27
ATOM     27  O   LIG A   1     -10.138  -0.879 122.604  0.00  0.00    -0.387 OA
ATOM     28  H   LIG A   1     -10.285  -0.126 123.214  0.00  0.00    +0.210 HD
ENDBRANCH  18  27
TORSDOF 4
ENDMDL
MODEL 2
REMARK VINA RESULT:      -7.7      2.750      5.778
REMARK  Name = NuBBE_1516
REMARK  7 active torsions:
REMARK  status: ('A' for Active; 'I' for Inactive)
REMARK    1  A    between atoms: C_1  and  C_2
REMARK    2  A    between atoms: C_9  and  C_12
REMARK    3  A    between atoms: C_13  and  C_18
REMARK    4  A    between atoms: C_18  and  C_19
REMARK    5  A    between atoms: C_24  and  O_26
REMARK    6  A    between atoms: C_27  and  O_33
REMARK    7  A    between atoms: C_29  and  O_32
REMARK                            x       y       z     vdW  Elec       q    Type
REMARK                         _______ _______ _______ _____ _____    ______ ____
ROOT
ATOM      1  C   LIG A   1      -5.119   1.696 128.325  0.00  0.00    +0.012 C 
ATOM      2  C   LIG A   1      -5.699   1.930 126.886  0.00  0.00    -0.021 C 
ATOM      3  C   LIG A   1      -5.787   0.520 126.180  0.00  0.00    -0.001 C 
ATOM      4  C   LIG A   1      -6.661  -0.484 126.979  0.00  0.00    -0.003 C 
ATOM      5  C   LIG A   1      -6.774  -1.881 126.281  0.00  0.00    +0.006 C 
ATOM      6  C   LIG A   1      -7.027  -1.868 124.751  0.00  0.00    -0.019 C 
ATOM      7  C   LIG A   1      -6.208  -0.783 124.039  0.00  0.00    +0.008 C 
ATOM      8  C   LIG A   1      -6.219   0.584 124.707  0.00  0.00    +0.005 C 
ATOM      9  C   LIG A   1      -6.601  -3.227 124.126  0.00  0.00    +0.012 C 
ATOM     10  C   LIG A   1      -8.567  -1.666 124.663  0.00  0.00    +0.061 C 
ATOM     11  C   LIG A   1      -9.023  -2.507 125.855  0.00  0.00    +0.137 C 
ATOM     12  O   LIG A   1     -10.163  -2.922 126.023  0.00  0.00    -0.297 OA
ATOM     13  C   LIG A   1      -7.897  -2.773 126.831  0.00  0.00    +0.079 C 
ATOM     14  C   LIG A   1      -7.948   0.154 127.553  0.00  0.00    +0.004 C 
ATOM     15  C   LIG A   1      -8.278   1.552 127.053  0.00  0.00    +0.007 C 
ATOM     16  C   LIG A   1      -7.115   2.572 127.065  0.00  0.00    +0.026 C 
ATOM     17  C   LIG A   1      -7.467   3.703 126.081  0.00  0.00    +0.149 C 
ATOM     18  C   LIG A   1      -6.332   4.705 125.913  0.00  0.00    +0.172 C 
ATOM     19  C   LIG A   1      -5.106   4.018 125.332  0.00  0.00    +0.146 C 
ATOM     20  C   LIG A   1      -4.627   2.855 126.196  0.00  0.00    +0.041 C 
ENDROOT
BRANCH  10  21
ATOM     21  C   LIG A   1      -9.218  -2.082 123.342  0.00  0.00    +0.008 C 
ATOM     22  C   LIG A   1      -9.698  -0.884 122.531  0.00  0.00    +0.004 C 
ENDBRANCH  10  21
BRANCH  17  23
ATOM     23  O   LIG A   1      -8.621   4.405 126.570  0.00  0.00    -0.389 OA
ATOM     24  H   LIG A   1      -9.361   3.769 126.492  0.00  0.00    +0.210 HD
ENDBRANCH  17  23
BRANCH  19  25
ATOM     25  O   LIG A   1      -5.410   3.593 123.999  0.00  0.00    -0.389 OA
ATOM     26  H   LIG A   1      -4.563   3.388 123.563  0.00  0.00    +0.210 HD
ENDBRANCH  19  25
BRANCH  18  27
ATOM     27  O   LIG A   1      -6.774   5.733 125.007  0.00  0.00    -0.387 OA
ATOM     28  H   LIG A   1      -7.328   6.328 125.555  0.00  0.00    +0.210 HD
ENDBRANCH  18  27
TORSDOF 4
ENDMDL
MODEL 3
REMARK VINA RESULT:      -7.5      1.801      6.368
REMARK  Name = NuBBE_1516
REMARK  7 active torsions:
REMARK  status: ('A' for Active; 'I' for Inactive)
REMARK    1  A    between atoms: C_1  and  C_2
REMARK    2  A    between atoms: C_9  and  C_12
REMARK    3  A    between atoms: C_13  and  C_18
REMARK    4  A    between atoms: C_18  and  C_19
REMARK    5  A    between atoms: C_24  and  O_26
REMARK    6  A    between atoms: C_27  and  O_33
REMARK    7  A    between atoms: C_29  and  O_32
REMARK                            x       y       z     vdW  Elec       q    Type
REMARK                         _______ _______ _______ _____ _____    ______ ____
ROOT
ATOM      1  C   LIG A   1      -7.996   0.369 130.190  0.00  0.00    +0.012 C 
ATOM      2  C   LIG A   1      -7.289  -0.975 129.794  0.00  0.00    -0.021 C 
ATOM      3  C   LIG A   1      -8.008  -1.519 128.498  0.00  0.00    -0.001 C 
ATOM      4  C   LIG A   1      -7.964  -0.499 127.329  0.00  0.00    -0.003 C 
ATOM      5  C   LIG A   1      -8.656  -1.033 126.030  0.00  0.00    +0.006 C 
ATOM      6  C   LIG A   1      -8.336  -2.497 125.631  0.00  0.00    -0.019 C 
ATOM      7  C   LIG A   1      -8.293  -3.431 126.848  0.00  0.00    +0.008 C 
ATOM      8  C   LIG A   1      -7.518  -2.904 128.046  0.00  0.00    +0.005 C 
ATOM      9  C   LIG A   1      -9.441  -3.049 124.687  0.00  0.00    +0.012 C 
ATOM     10  C   LIG A   1      -6.977  -2.356 124.886  0.00  0.00    +0.061 C 
ATOM     11  C   LIG A   1      -7.200  -1.032 124.156  0.00  0.00    +0.137 C 
ATOM     12  O   LIG A   1      -6.548  -0.644 123.195  0.00  0.00    -0.297 OA
ATOM     13  C   LIG A   1      -8.329  -0.227 124.763  0.00  0.00    +0.079 C 
ATOM     14  C   LIG A   1      -6.596   0.210 127.192  0.00  0.00    +0.004 C 
ATOM     15  C   LIG A   1      -5.464  -0.362 128.030  0.00  0.00    +0.007 C 
ATOM     16  C   LIG A   1      -5.786  -0.634 129.518  0.00  0.00    +0.026 C 
ATOM     17  C   LIG A   1      -4.760  -1.652 130.047  0.00  0.00    +0.149 C 
ATOM     18  C   LIG A   1      -5.058  -2.095 131.474  0.00  0.00    +0.172 C 
ATOM     19  C   LIG A   1      -6.406  -2.796 131.536  0.00  0.00    +0.146 C 
ATOM     20  C   LIG A   1      -7.544  -1.913 131.034  0.00  0.00    +0.041 C 
ENDROOT
BRANCH  10  21
ATOM     21  C   LIG A   1      -6.609  -3.510 123.951  0.00  0.00    +0.008 C 
ATOM     22  C   LIG A   1      -5.112  -3.793 123.943  0.00  0.00    +0.004 C 
ENDBRANCH  10  21
BRANCH  17  23
ATOM     23  O   LIG A   1      -3.454  -1.055 130.023  0.00  0.00    -0.389 OA
ATOM     24  H   LIG A   1      -3.611  -0.097 129.897  0.00  0.00    +0.210 HD
ENDBRANCH  17  23
BRANCH  19  25
ATOM     25  O   LIG A   1      -6.320  -4.016 130.791  0.00  0.00    -0.389 OA
ATOM     26  H   LIG A   1      -5.615  -4.552 131.199  0.00  0.00    +0.210 HD
ENDBRANCH  19  25
BRANCH  18  27
ATOM     27  O   LIG A   1      -4.027  -3.012 131.882  0.00  0.00    -0.387 OA
ATOM     28  H   LIG A   1      -3.418  -3.062 131.115  0.00  0.00    +0.210 HD
ENDBRANCH  18  27
TORSDOF 4
ENDMDL
MODEL 4
REMARK VINA RESULT:      -7.3      1.482      1.997
REMARK  Name = NuBBE_1516
REMARK  7 active torsions:
REMARK  status: ('A' for Active; 'I' for Inactive)
REMARK    1  A    between atoms: C_1  and  C_2
REMARK    2  A    between atoms: C_9  and  C_12
REMARK    3  A    between atoms: C_13  and  C_18
REMARK    4  A    between atoms: C_18  and  C_19
REMARK    5  A    between atoms: C_24  and  O_26
REMARK    6  A    between atoms: C_27  and  O_33
REMARK    7  A    between atoms: C_29  and  O_32
REMARK                            x       y       z     vdW  Elec       q    Type
REMARK                         _______ _______ _______ _____ _____    ______ ____
ROOT
ATOM      1  C   LIG A   1      -6.245  -1.587 123.094  0.00  0.00    +0.012 C 
ATOM      2  C   LIG A   1      -7.256  -0.844 124.036  0.00  0.00    -0.021 C 
ATOM      3  C   LIG A   1      -7.350  -1.678 125.374  0.00  0.00    -0.001 C 
ATOM      4  C   LIG A   1      -5.968  -1.848 126.059  0.00  0.00    -0.003 C 
ATOM      5  C   LIG A   1      -6.049  -2.656 127.398  0.00  0.00    +0.006 C 
ATOM      6  C   LIG A   1      -7.212  -2.288 128.355  0.00  0.00    -0.019 C 
ATOM      7  C   LIG A   1      -8.523  -2.032 127.601  0.00  0.00    +0.008 C 
ATOM      8  C   LIG A   1      -8.401  -1.153 126.364  0.00  0.00    +0.005 C 
ATOM      9  C   LIG A   1      -7.488  -3.460 129.339  0.00  0.00    +0.012 C 
ATOM     10  C   LIG A   1      -6.654  -1.044 129.105  0.00  0.00    +0.061 C 
ATOM     11  C   LIG A   1      -5.186  -1.444 129.247  0.00  0.00    +0.137 C 
ATOM     12  O   LIG A   1      -4.397  -0.943 130.038  0.00  0.00    -0.297 OA
ATOM     13  C   LIG A   1      -4.797  -2.543 128.281  0.00  0.00    +0.079 C 
ATOM     14  C   LIG A   1      -5.114  -0.559 126.032  0.00  0.00    +0.004 C 
ATOM     15  C   LIG A   1      -5.830   0.704 125.582  0.00  0.00    +0.007 C 
ATOM     16  C   LIG A   1      -6.673   0.586 124.290  0.00  0.00    +0.026 C 
ATOM     17  C   LIG A   1      -7.696   1.737 124.285  0.00  0.00    +0.149 C 
ATOM     18  C   LIG A   1      -8.671   1.647 123.118  0.00  0.00    +0.172 C 
ATOM     19  C   LIG A   1      -9.488   0.368 123.213  0.00  0.00    +0.146 C 
ATOM     20  C   LIG A   1      -8.612  -0.881 123.235  0.00  0.00    +0.041 C 
ENDROOT
BRANCH  10  21
ATOM     21  C   LIG A   1      -7.325  -0.715 130.440  0.00  0.00    +0.008 C 
ATOM     22  C   LIG A   1      -8.248   0.494 130.342  0.00  0.00    +0.004 C 
ENDBRANCH  10  21
BRANCH  17  23
ATOM     23  O   LIG A   1      -6.993   2.986 124.192  0.00  0.00    -0.389 OA
ATOM     24  H   LIG A   1      -7.407   3.459 123.441  0.00  0.00    +0.210 HD
ENDBRANCH  17  23
BRANCH  19  25
ATOM     25  O   LIG A   1     -10.323   0.445 124.374  0.00  0.00    -0.389 OA
ATOM     26  H   LIG A   1      -9.735   0.433 125.151  0.00  0.00    +0.210 HD
ENDBRANCH  19  25
BRANCH  18  27
ATOM     27  O   LIG A   1      -9.555   2.781 123.186  0.00  0.00    -0.387 OA
ATOM     28  H   LIG A   1      -9.114   3.475 122.651  0.00  0.00    +0.210 HD
ENDBRANCH  18  27
TORSDOF 4
ENDMDL
MODEL 5
REMARK VINA RESULT:      -7.3      5.480      7.035
REMARK  Name = NuBBE_1516
REMARK  7 active torsions:
REMARK  status: ('A' for Active; 'I' for Inactive)
REMARK    1  A    between atoms: C_1  and  C_2
REMARK    2  A    between atoms: C_9  and  C_12
REMARK    3  A    between atoms: C_13  and  C_18
REMARK    4  A    between atoms: C_18  and  C_19
REMARK    5  A    between atoms: C_24  and  O_26
REMARK    6  A    between atoms: C_27  and  O_33
REMARK    7  A    between atoms: C_29  and  O_32
REMARK                            x       y       z     vdW  Elec       q    Type
REMARK                         _______ _______ _______ _____ _____    ______ ____
ROOT
ATOM      1  C   LIG A   1      -2.271   3.223 126.482  0.00  0.00    +0.012 C 
ATOM      2  C   LIG A   1      -3.747   3.355 126.998  0.00  0.00    -0.021 C 
ATOM      3  C   LIG A   1      -3.691   3.391 128.576  0.00  0.00    -0.001 C 
ATOM      4  C   LIG A   1      -2.807   4.551 129.107  0.00  0.00    -0.003 C 
ATOM      5  C   LIG A   1      -2.759   4.610 130.671  0.00  0.00    +0.006 C 
ATOM      6  C   LIG A   1      -4.110   4.428 131.409  0.00  0.00    -0.019 C 
ATOM      7  C   LIG A   1      -4.977   3.337 130.767  0.00  0.00    +0.008 C 
ATOM      8  C   LIG A   1      -5.072   3.390 129.250  0.00  0.00    +0.005 C 
ATOM      9  C   LIG A   1      -3.862   3.989 132.880  0.00  0.00    +0.012 C 
ATOM     10  C   LIG A   1      -4.728   5.854 131.344  0.00  0.00    +0.061 C 
ATOM     11  C   LIG A   1      -3.472   6.706 131.525  0.00  0.00    +0.137 C 
ATOM     12  O   LIG A   1      -3.468   7.885 131.857  0.00  0.00    -0.297 OA
ATOM     13  C   LIG A   1      -2.207   5.928 131.236  0.00  0.00    +0.079 C 
ATOM     14  C   LIG A   1      -3.008   5.873 128.329  0.00  0.00    +0.004 C 
ATOM     15  C   LIG A   1      -4.181   5.905 127.363  0.00  0.00    +0.007 C 
ATOM     16  C   LIG A   1      -4.315   4.691 126.413  0.00  0.00    +0.026 C 
ATOM     17  C   LIG A   1      -5.770   4.639 125.914  0.00  0.00    +0.149 C 
ATOM     18  C   LIG A   1      -6.054   3.404 125.068  0.00  0.00    +0.172 C 
ATOM     19  C   LIG A   1      -5.854   2.143 125.895  0.00  0.00    +0.146 C 
ATOM     20  C   LIG A   1      -4.446   2.045 126.473  0.00  0.00    +0.041 C 
ENDROOT
BRANCH  10  21
ATOM     21  C   LIG A   1      -5.819   6.155 132.374  0.00  0.00    +0.008 C 
ATOM     22  C   LIG A   1      -7.178   6.391 131.726  0.00  0.00    +0.004 C 
ENDBRANCH  10  21
BRANCH  17  23
ATOM     23  O   LIG A   1      -6.033   5.804 125.116  0.00  0.00    -0.389 OA
ATOM     24  H   LIG A   1      -5.647   6.551 125.616  0.00  0.00    +0.210 HD
ENDBRANCH  17  23
BRANCH  19  25
ATOM     25  O   LIG A   1      -6.849   2.110 126.923  0.00  0.00    -0.389 OA
ATOM     26  H   LIG A   1      -7.594   2.661 126.620  0.00  0.00    +0.210 HD
ENDBRANCH  19  25
BRANCH  18  27
ATOM     27  O   LIG A   1      -7.422   3.470 124.626  0.00  0.00    -0.387 OA
ATOM     28  H   LIG A   1      -7.879   4.010 125.304  0.00  0.00    +0.210 HD
ENDBRANCH  18  27
TORSDOF 4
ENDMDL
MODEL 6
REMARK VINA RESULT:      -7.2      1.879      3.107
REMARK  Name = NuBBE_1516
REMARK  7 active torsions:
REMARK  status: ('A' for Active; 'I' for Inactive)
REMARK    1  A    between atoms: C_1  and  C_2
REMARK    2  A    between atoms: C_9  and  C_12
REMARK    3  A    between atoms: C_13  and  C_18
REMARK    4  A    between atoms: C_18  and  C_19
REMARK    5  A    between atoms: C_24  and  O_26
REMARK    6  A    between atoms: C_27  and  O_33
REMARK    7  A    between atoms: C_29  and  O_32
REMARK                            x       y       z     vdW  Elec       q    Type
REMARK                         _______ _______ _______ _____ _____    ______ ____
ROOT
ATOM      1  C   LIG A   1      -6.479   2.645 125.101  0.00  0.00    +0.012 C 
ATOM      2  C   LIG A   1      -7.231   1.275 124.956  0.00  0.00    -0.021 C 
ATOM      3  C   LIG A   1      -6.510   0.241 125.907  0.00  0.00    -0.001 C 
ATOM      4  C   LIG A   1      -6.491   0.715 127.385  0.00  0.00    -0.003 C 
ATOM      5  C   LIG A   1      -5.796  -0.310 128.342  0.00  0.00    +0.006 C 
ATOM      6  C   LIG A   1      -6.168  -1.803 128.140  0.00  0.00    -0.019 C 
ATOM      7  C   LIG A   1      -6.271  -2.176 126.655  0.00  0.00    +0.008 C 
ATOM      8  C   LIG A   1      -7.046  -1.194 125.790  0.00  0.00    +0.005 C 
ATOM      9  C   LIG A   1      -5.068  -2.716 128.751  0.00  0.00    +0.012 C 
ATOM     10  C   LIG A   1      -7.505  -1.930 128.924  0.00  0.00    +0.061 C 
ATOM     11  C   LIG A   1      -7.216  -1.010 130.111  0.00  0.00    +0.137 C 
ATOM     12  O   LIG A   1      -7.834  -1.017 131.168  0.00  0.00    -0.297 OA
ATOM     13  C   LIG A   1      -6.067  -0.065 129.835  0.00  0.00    +0.079 C 
ATOM     14  C   LIG A   1      -7.827   1.351 127.836  0.00  0.00    +0.004 C 
ATOM     15  C   LIG A   1      -8.997   1.191 126.878  0.00  0.00    +0.007 C 
ATOM     16  C   LIG A   1      -8.713   1.523 125.394  0.00  0.00    +0.026 C 
ATOM     17  C   LIG A   1      -9.789   0.828 124.540  0.00  0.00    +0.149 C 
ATOM     18  C   LIG A   1      -9.535   0.979 123.045  0.00  0.00    +0.172 C 
ATOM     19  C   LIG A   1      -8.218   0.321 122.666  0.00  0.00    +0.146 C 
ATOM     20  C   LIG A   1      -7.036   0.899 123.439  0.00  0.00    +0.041 C 
ENDROOT
BRANCH  10  21
ATOM     21  C   LIG A   1      -7.901  -3.348 129.338  0.00  0.00    +0.008 C 
ATOM     22  C   LIG A   1      -8.912  -3.969 128.381  0.00  0.00    +0.004 C 
ENDBRANCH  10  21
BRANCH  17  23
ATOM     23  O   LIG A   1     -11.070   1.405 124.841  0.00  0.00    -0.389 OA
ATOM     24  H   LIG A   1     -11.663   0.644 125.003  0.00  0.00    +0.210 HD
ENDBRANCH  17  23
BRANCH  19  25
ATOM     25  O   LIG A   1      -8.339  -1.091 122.869  0.00  0.00    -0.389 OA
ATOM     26  H   LIG A   1      -8.885  -1.439 122.141  0.00  0.00    +0.210 HD
ENDBRANCH  19  25
BRANCH  18  27
ATOM     27  O   LIG A   1     -10.611   0.330 122.341  0.00  0.00    -0.387 OA
ATOM     28  H   LIG A   1     -11.219   0.019 123.045  0.00  0.00    +0.210 HD
ENDBRANCH  18  27
TORSDOF 4
ENDMDL
MODEL 7
REMARK VINA RESULT:      -7.2      7.161      9.077
REMARK  Name = NuBBE_1516
REMARK  7 active torsions:
REMARK  status: ('A' for Active; 'I' for Inactive)
REMARK    1  A    between atoms: C_1  and  C_2
REMARK    2  A    between atoms: C_9  and  C_12
REMARK    3  A    between atoms: C_13  and  C_18
REMARK    4  A    between atoms: C_18  and  C_19
REMARK    5  A    between atoms: C_24  and  O_26
REMARK    6  A    between atoms: C_27  and  O_33
REMARK    7  A    between atoms: C_29  and  O_32
REMARK                            x       y       z     vdW  Elec       q    Type
REMARK                         _______ _______ _______ _____ _____    ______ ____
ROOT
ATOM      1  C   LIG A   1      -3.812   3.693 132.051  0.00  0.00    +0.012 C 
ATOM      2  C   LIG A   1      -4.415   4.429 130.804  0.00  0.00    -0.021 C 
ATOM      3  C   LIG A   1      -5.928   3.990 130.687  0.00  0.00    -0.001 C 
ATOM      4  C   LIG A   1      -6.736   4.314 131.972  0.00  0.00    -0.003 C 
ATOM      5  C   LIG A   1      -8.242   3.902 131.863  0.00  0.00    +0.006 C 
ATOM      6  C   LIG A   1      -8.959   4.258 130.534  0.00  0.00    -0.019 C 
ATOM      7  C   LIG A   1      -8.065   4.011 129.311  0.00  0.00    +0.008 C 
ATOM      8  C   LIG A   1      -6.639   4.525 129.434  0.00  0.00    +0.005 C 
ATOM      9  C   LIG A   1     -10.219   3.366 130.349  0.00  0.00    +0.012 C 
ATOM     10  C   LIG A   1      -9.351   5.748 130.747  0.00  0.00    +0.061 C 
ATOM     11  C   LIG A   1      -9.714   5.727 132.232  0.00  0.00    +0.137 C 
ATOM     12  O   LIG A   1     -10.381   6.582 132.801  0.00  0.00    -0.297 OA
ATOM     13  C   LIG A   1      -9.145   4.518 132.942  0.00  0.00    +0.079 C 
ATOM     14  C   LIG A   1      -6.396   5.700 132.569  0.00  0.00    +0.004 C 
ATOM     15  C   LIG A   1      -5.542   6.608 131.700  0.00  0.00    +0.007 C 
ATOM     16  C   LIG A   1      -4.282   5.965 131.073  0.00  0.00    +0.026 C 
ATOM     17  C   LIG A   1      -3.863   6.823 129.867  0.00  0.00    +0.149 C 
ATOM     18  C   LIG A   1      -2.703   6.212 129.090  0.00  0.00    +0.172 C 
ATOM     19  C   LIG A   1      -3.107   4.862 128.517  0.00  0.00    +0.146 C 
ATOM     20  C   LIG A   1      -3.561   3.885 129.598  0.00  0.00    +0.041 C 
ENDROOT
BRANCH  10  21
ATOM     21  C   LIG A   1     -10.475   6.275 129.854  0.00  0.00    +0.008 C 
ATOM     22  C   LIG A   1     -10.209   7.693 129.363  0.00  0.00    +0.004 C 
ENDBRANCH  10  21
BRANCH  17  23
ATOM     23  O   LIG A   1      -3.460   8.121 130.333  0.00  0.00    -0.389 OA
ATOM     24  H   LIG A   1      -3.513   8.072 131.309  0.00  0.00    +0.210 HD
ENDBRANCH  17  23
BRANCH  19  25
ATOM     25  O   LIG A   1      -4.127   5.070 127.535  0.00  0.00    -0.389 OA
ATOM     26  H   LIG A   1      -3.703   5.498 126.768  0.00  0.00    +0.210 HD
ENDBRANCH  19  25
BRANCH  18  27
ATOM     27  O   LIG A   1      -2.368   7.104 128.011  0.00  0.00    -0.387 OA
ATOM     28  H   LIG A   1      -2.378   6.542 127.208  0.00  0.00    +0.210 HD
ENDBRANCH  18  27
TORSDOF 4
ENDMDL
MODEL 8
REMARK VINA RESULT:      -7.2      6.655      9.498
REMARK  Name = NuBBE_1516
REMARK  7 active torsions:
REMARK  status: ('A' for Active; 'I' for Inactive)
REMARK    1  A    between atoms: C_1  and  C_2
REMARK    2  A    between atoms: C_9  and  C_12
REMARK    3  A    between atoms: C_13  and  C_18
REMARK    4  A    between atoms: C_18  and  C_19
REMARK    5  A    between atoms: C_24  and  O_26
REMARK    6  A    between atoms: C_27  and  O_33
REMARK    7  A    between atoms: C_29  and  O_32
REMARK                            x       y       z     vdW  Elec       q    Type
REMARK                         _______ _______ _______ _____ _____    ______ ____
ROOT
ATOM      1  C   LIG A   1      -8.094   4.866 133.876  0.00  0.00    +0.012 C 
ATOM      2  C   LIG A   1      -7.661   4.974 132.372  0.00  0.00    -0.021 C 
ATOM      3  C   LIG A   1      -6.470   6.007 132.300  0.00  0.00    -0.001 C 
ATOM      4  C   LIG A   1      -5.274   5.590 133.198  0.00  0.00    -0.003 C 
ATOM      5  C   LIG A   1      -4.077   6.596 133.121  0.00  0.00    +0.006 C 
ATOM      6  C   LIG A   1      -3.687   7.096 131.706  0.00  0.00    -0.019 C 
ATOM      7  C   LIG A   1      -4.918   7.391 130.838  0.00  0.00    +0.008 C 
ATOM      8  C   LIG A   1      -6.006   6.328 130.871  0.00  0.00    +0.005 C 
ATOM      9  C   LIG A   1      -2.889   8.426 131.809  0.00  0.00    +0.012 C 
ATOM     10  C   LIG A   1      -2.791   5.942 131.172  0.00  0.00    +0.061 C 
ATOM     11  C   LIG A   1      -2.053   5.552 132.452  0.00  0.00    +0.137 C 
ATOM     12  O   LIG A   1      -1.014   4.906 132.492  0.00  0.00    -0.297 OA
ATOM     13  C   LIG A   1      -2.758   6.054 133.694  0.00  0.00    +0.079 C 
ATOM     14  C   LIG A   1      -4.965   4.076 133.132  0.00  0.00    +0.004 C 
ATOM     15  C   LIG A   1      -5.687   3.296 132.046  0.00  0.00    +0.007 C 
ATOM     16  C   LIG A   1      -7.210   3.543 131.926  0.00  0.00    +0.026 C 
ATOM     17  C   LIG A   1      -7.650   3.111 130.516  0.00  0.00    +0.149 C 
ATOM     18  C   LIG A   1      -9.113   3.430 130.237  0.00  0.00    +0.172 C 
ATOM     19  C   LIG A   1      -9.345   4.932 130.301  0.00  0.00    +0.146 C 
ATOM     20  C   LIG A   1      -8.948   5.524 131.650  0.00  0.00    +0.041 C 
ENDROOT
BRANCH  10  21
ATOM     21  C   LIG A   1      -1.855   6.306 130.018  0.00  0.00    +0.008 C 
ATOM     22  C   LIG A   1      -2.392   5.843 128.669  0.00  0.00    +0.004 C 
ENDBRANCH  10  21
BRANCH  17  23
ATOM     23  O   LIG A   1      -7.463   1.693 130.381  0.00  0.00    -0.389 OA
ATOM     24  H   LIG A   1      -8.130   1.407 129.725  0.00  0.00    +0.210 HD
ENDBRANCH  17  23
BRANCH  19  25
ATOM     25  O   LIG A   1      -8.632   5.550 129.225  0.00  0.00    -0.389 OA
ATOM     26  H   LIG A   1      -9.247   6.169 128.792  0.00  0.00    +0.210 HD
ENDBRANCH  19  25
BRANCH  18  27
ATOM     27  O   LIG A   1      -9.430   2.956 128.915  0.00  0.00    -0.387 OA
ATOM     28  H   LIG A   1      -8.925   3.541 128.312  0.00  0.00    +0.210 HD
ENDBRANCH  18  27
TORSDOF 4
ENDMDL
MODEL 9
REMARK VINA RESULT:      -7.1      7.086      9.347
REMARK  Name = NuBBE_1516
REMARK  7 active torsions:
REMARK  status: ('A' for Active; 'I' for Inactive)
REMARK    1  A    between atoms: C_1  and  C_2
REMARK    2  A    between atoms: C_9  and  C_12
REMARK    3  A    between atoms: C_13  and  C_18
REMARK    4  A    between atoms: C_18  and  C_19
REMARK    5  A    between atoms: C_24  and  O_26
REMARK    6  A    between atoms: C_27  and  O_33
REMARK    7  A    between atoms: C_29  and  O_32
REMARK                            x       y       z     vdW  Elec       q    Type
REMARK                         _______ _______ _______ _____ _____    ______ ____
ROOT
ATOM      1  C   LIG A   1      -8.697   4.413 133.864  0.00  0.00    +0.012 C 
ATOM      2  C   LIG A   1      -8.699   5.119 132.463  0.00  0.00    -0.021 C 
ATOM      3  C   LIG A   1      -7.297   5.825 132.292  0.00  0.00    -0.001 C 
ATOM      4  C   LIG A   1      -6.116   4.825 132.413  0.00  0.00    -0.003 C 
ATOM      5  C   LIG A   1      -4.720   5.509 132.226  0.00  0.00    +0.006 C 
ATOM      6  C   LIG A   1      -4.601   6.522 131.058  0.00  0.00    -0.019 C 
ATOM      7  C   LIG A   1      -5.847   7.408 130.932  0.00  0.00    +0.008 C 
ATOM      8  C   LIG A   1      -7.178   6.675 131.018  0.00  0.00    +0.005 C 
ATOM      9  C   LIG A   1      -3.399   7.479 131.299  0.00  0.00    +0.012 C 
ATOM     10  C   LIG A   1      -4.347   5.599 129.831  0.00  0.00    +0.061 C 
ATOM     11  C   LIG A   1      -3.458   4.533 130.469  0.00  0.00    +0.137 C 
ATOM     12  O   LIG A   1      -2.739   3.759 129.849  0.00  0.00    -0.297 OA
ATOM     13  C   LIG A   1      -3.564   4.527 131.979  0.00  0.00    +0.079 C 
ATOM     14  C   LIG A   1      -6.379   3.484 131.688  0.00  0.00    +0.004 C 
ATOM     15  C   LIG A   1      -7.602   3.444 130.786  0.00  0.00    +0.007 C 
ATOM     16  C   LIG A   1      -8.914   3.999 131.391  0.00  0.00    +0.026 C 
ATOM     17  C   LIG A   1      -9.856   4.357 130.228  0.00  0.00    +0.149 C 
ATOM     18  C   LIG A   1     -11.136   5.036 130.700  0.00  0.00    +0.172 C 
ATOM     19  C   LIG A   1     -10.809   6.353 131.388  0.00  0.00    +0.146 C 
ATOM     20  C   LIG A   1      -9.867   6.170 132.574  0.00  0.00    +0.041 C 
ENDROOT
BRANCH  10  21
ATOM     21  C   LIG A   1      -3.712   6.271 128.613  0.00  0.00    +0.008 C 
ATOM     22  C   LIG A   1      -4.145   5.625 127.303  0.00  0.00    +0.004 C 
ENDBRANCH  10  21
BRANCH  17  23
ATOM     23  O   LIG A   1     -10.215   3.154 129.529  0.00  0.00    -0.389 OA
ATOM     24  H   LIG A   1      -9.390   2.851 129.097  0.00  0.00    +0.210 HD
ENDBRANCH  17  23
BRANCH  19  25
ATOM     25  O   LIG A   1     -10.263   7.251 130.417  0.00  0.00    -0.389 OA
ATOM     26  H   LIG A   1      -9.739   7.914 130.902  0.00  0.00    +0.210 HD
ENDBRANCH  19  25
BRANCH  18  27
ATOM     27  O   LIG A   1     -11.957   5.294 129.547  0.00  0.00    -0.387 OA
ATOM     28  H   LIG A   1     -11.335   5.622 128.864  0.00  0.00    +0.210 HD
ENDBRANCH  18  27
TORSDOF 4
ENDMDL
