MODEL 1
REMARK VINA RESULT:      -6.1      0.000      0.000
REMARK  Name = NuBBE_1792
REMARK  13 active torsions:
REMARK  status: ('A' for Active; 'I' for Inactive)
REMARK    1  A    between atoms: C_3  and  C_4
REMARK    2  A    between atoms: C_4  and  C_5
REMARK    3  A    between atoms: C_5  and  O_6
REMARK    4  A    between atoms: O_6  and  C_7
REMARK    5  A    between atoms: C_10  and  C_11
REMARK    6  A    between atoms: C_11  and  C_12
REMARK    7  A    between atoms: C_12  and  C_13
REMARK    8  A    between atoms: C_13  and  C_14
REMARK    9  A    between atoms: C_14  and  C_15
REMARK   10  A    between atoms: C_15  and  C_16
REMARK   11  A    between atoms: C_16  and  C_17
REMARK   12  A    between atoms: C_17  and  C_18
REMARK   13  A    between atoms: C_18  and  C_19
REMARK                            x       y       z     vdW  Elec       q    Type
REMARK                         _______ _______ _______ _____ _____    ______ ____
ROOT
ATOM      1  O   LIG A   1     -10.784   0.562 122.529  0.00  0.00    -0.251 OA
ATOM      2  C   LIG A   1     -10.170   0.916 123.507  0.00  0.00    +0.311 C 
ATOM      3  C   LIG A   1      -8.822   1.608 123.523  0.00  0.00    +0.112 C 
ATOM      4  C   LIG A   1      -8.690   1.975 124.998  0.00  0.00    +0.060 C 
ATOM      5  C   LIG A   1      -9.514   0.896 125.689  0.00  0.00    +0.177 C 
ATOM      6  O   LIG A   1     -10.596   0.677 124.783  0.00  0.00    -0.461 OA
ENDROOT
BRANCH   3   7
ATOM      7  C   LIG A   1      -8.747   2.816 122.601  0.00  0.00    +0.135 C 
BRANCH   7   8
ATOM      8  C   LIG A   1      -7.341   3.065 122.109  0.00  0.00    +0.308 C 
ATOM      9  O   LIG A   1      -6.340   2.632 122.662  0.00  0.00    -0.251 OA
BRANCH   8  10
ATOM     10  O   LIG A   1      -7.365   3.816 120.977  0.00  0.00    -0.468 OA
ATOM     11  C   LIG A   1      -6.086   4.172 120.453  0.00  0.00    +0.280 C 
ENDBRANCH   8  10
ENDBRANCH   7   8
ENDBRANCH   3   7
BRANCH   5  12
ATOM     12  C   LIG A   1      -8.724  -0.410 125.864  0.00  0.00    +0.045 C 
BRANCH  12  13
ATOM     13  C   LIG A   1      -9.541  -1.706 125.734  0.00  0.00    +0.003 C 
BRANCH  13  14
ATOM     14  C   LIG A   1      -8.595  -2.920 125.800  0.00  0.00    +0.000 C 
BRANCH  14  15
ATOM     15  C   LIG A   1      -8.268  -3.583 124.455  0.00  0.00    -0.000 C 
BRANCH  15  16
ATOM     16  C   LIG A   1      -8.477  -2.692 123.222  0.00  0.00    +0.000 C 
BRANCH  16  17
ATOM     17  C   LIG A   1      -7.172  -2.189 122.579  0.00  0.00    +0.000 C 
BRANCH  17  18
ATOM     18  C   LIG A   1      -6.354  -1.323 123.542  0.00  0.00    +0.004 C 
BRANCH  18  19
ATOM     19  C   LIG A   1      -5.270  -2.121 124.267  0.00  0.00    +0.026 C 
BRANCH  19  20
ATOM     20  C   LIG A   1      -4.672  -3.201 123.407  0.00  0.00    -0.035 C 
ATOM     21  C   LIG A   1      -4.690  -4.506 123.714  0.00  0.00    +0.004 C 
ENDBRANCH  19  20
ENDBRANCH  18  19
ENDBRANCH  17  18
ENDBRANCH  16  17
ENDBRANCH  15  16
ENDBRANCH  14  15
ENDBRANCH  13  14
ENDBRANCH  12  13
ENDBRANCH   5  12
TORSDOF 12
ENDMDL
MODEL 2
REMARK VINA RESULT:      -5.8      1.157      2.432
REMARK  Name = NuBBE_1792
REMARK  13 active torsions:
REMARK  status: ('A' for Active; 'I' for Inactive)
REMARK    1  A    between atoms: C_3  and  C_4
REMARK    2  A    between atoms: C_4  and  C_5
REMARK    3  A    between atoms: C_5  and  O_6
REMARK    4  A    between atoms: O_6  and  C_7
REMARK    5  A    between atoms: C_10  and  C_11
REMARK    6  A    between atoms: C_11  and  C_12
REMARK    7  A    between atoms: C_12  and  C_13
REMARK    8  A    between atoms: C_13  and  C_14
REMARK    9  A    between atoms: C_14  and  C_15
REMARK   10  A    between atoms: C_15  and  C_16
REMARK   11  A    between atoms: C_16  and  C_17
REMARK   12  A    between atoms: C_17  and  C_18
REMARK   13  A    between atoms: C_18  and  C_19
REMARK                            x       y       z     vdW  Elec       q    Type
REMARK                         _______ _______ _______ _____ _____    ______ ____
ROOT
ATOM      1  O   LIG A   1     -10.391   0.553 122.098  0.00  0.00    -0.251 OA
ATOM      2  C   LIG A   1     -10.015   0.982 123.163  0.00  0.00    +0.311 C 
ATOM      3  C   LIG A   1      -8.747   1.770 123.421  0.00  0.00    +0.112 C 
ATOM      4  C   LIG A   1      -8.945   2.191 124.874  0.00  0.00    +0.060 C 
ATOM      5  C   LIG A   1      -9.822   1.078 125.432  0.00  0.00    +0.177 C 
ATOM      6  O   LIG A   1     -10.678   0.752 124.336  0.00  0.00    -0.461 OA
ENDROOT
BRANCH   3   7
ATOM      7  C   LIG A   1      -8.563   2.951 122.479  0.00  0.00    +0.135 C 
BRANCH   7   8
ATOM      8  C   LIG A   1      -7.110   3.178 122.135  0.00  0.00    +0.308 C 
ATOM      9  O   LIG A   1      -6.182   2.910 122.886  0.00  0.00    -0.251 OA
BRANCH   8  10
ATOM     10  O   LIG A   1      -6.999   3.702 120.886  0.00  0.00    -0.468 OA
ATOM     11  C   LIG A   1      -8.235   3.991 120.234  0.00  0.00    +0.280 C 
ENDBRANCH   8  10
ENDBRANCH   7   8
ENDBRANCH   3   7
BRANCH   5  12
ATOM     12  C   LIG A   1      -9.001  -0.162 125.822  0.00  0.00    +0.045 C 
BRANCH  12  13
ATOM     13  C   LIG A   1      -8.009   0.033 126.981  0.00  0.00    +0.003 C 
BRANCH  13  14
ATOM     14  C   LIG A   1      -6.780  -0.869 126.764  0.00  0.00    +0.000 C 
BRANCH  14  15
ATOM     15  C   LIG A   1      -5.788  -0.395 125.693  0.00  0.00    -0.000 C 
BRANCH  15  16
ATOM     16  C   LIG A   1      -5.449  -1.435 124.615  0.00  0.00    +0.000 C 
BRANCH  16  17
ATOM     17  C   LIG A   1      -5.680  -2.893 125.050  0.00  0.00    +0.000 C 
BRANCH  17  18
ATOM     18  C   LIG A   1      -6.741  -3.587 124.191  0.00  0.00    +0.004 C 
BRANCH  18  19
ATOM     19  C   LIG A   1      -8.070  -3.754 124.928  0.00  0.00    +0.026 C 
BRANCH  19  20
ATOM     20  C   LIG A   1      -9.260  -3.477 124.048  0.00  0.00    -0.035 C 
ATOM     21  C   LIG A   1      -9.258  -2.605 123.031  0.00  0.00    +0.004 C 
ENDBRANCH  19  20
ENDBRANCH  18  19
ENDBRANCH  17  18
ENDBRANCH  16  17
ENDBRANCH  15  16
ENDBRANCH  14  15
ENDBRANCH  13  14
ENDBRANCH  12  13
ENDBRANCH   5  12
TORSDOF 12
ENDMDL
MODEL 3
REMARK VINA RESULT:      -5.8      9.779     12.080
REMARK  Name = NuBBE_1792
REMARK  13 active torsions:
REMARK  status: ('A' for Active; 'I' for Inactive)
REMARK    1  A    between atoms: C_3  and  C_4
REMARK    2  A    between atoms: C_4  and  C_5
REMARK    3  A    between atoms: C_5  and  O_6
REMARK    4  A    between atoms: O_6  and  C_7
REMARK    5  A    between atoms: C_10  and  C_11
REMARK    6  A    between atoms: C_11  and  C_12
REMARK    7  A    between atoms: C_12  and  C_13
REMARK    8  A    between atoms: C_13  and  C_14
REMARK    9  A    between atoms: C_14  and  C_15
REMARK   10  A    between atoms: C_15  and  C_16
REMARK   11  A    between atoms: C_16  and  C_17
REMARK   12  A    between atoms: C_17  and  C_18
REMARK   13  A    between atoms: C_18  and  C_19
REMARK                            x       y       z     vdW  Elec       q    Type
REMARK                         _______ _______ _______ _____ _____    ______ ____
ROOT
ATOM      1  O   LIG A   1     -12.357   6.601 131.798  0.00  0.00    -0.251 OA
ATOM      2  C   LIG A   1     -11.152   6.518 131.742  0.00  0.00    +0.311 C 
ATOM      3  C   LIG A   1     -10.314   6.399 130.486  0.00  0.00    +0.112 C 
ATOM      4  C   LIG A   1      -8.904   6.549 131.050  0.00  0.00    +0.060 C 
ATOM      5  C   LIG A   1      -9.051   6.020 132.471  0.00  0.00    +0.177 C 
ATOM      6  O   LIG A   1     -10.356   6.457 132.851  0.00  0.00    -0.461 OA
ENDROOT
BRANCH   3   7
ATOM      7  C   LIG A   1     -10.646   7.446 129.432  0.00  0.00    +0.135 C 
BRANCH   7   8
ATOM      8  C   LIG A   1     -10.710   6.850 128.045  0.00  0.00    +0.308 C 
ATOM      9  O   LIG A   1      -9.729   6.659 127.340  0.00  0.00    -0.251 OA
BRANCH   8  10
ATOM     10  O   LIG A   1     -11.996   6.556 127.720  0.00  0.00    -0.468 OA
ATOM     11  C   LIG A   1     -12.434   7.050 126.454  0.00  0.00    +0.280 C 
ENDBRANCH   8  10
ENDBRANCH   7   8
ENDBRANCH   3   7
BRANCH   5  12
ATOM     12  C   LIG A   1      -8.994   4.485 132.523  0.00  0.00    +0.045 C 
BRANCH  12  13
ATOM     13  C   LIG A   1      -8.866   3.870 133.927  0.00  0.00    +0.003 C 
BRANCH  13  14
ATOM     14  C   LIG A   1      -7.407   3.446 134.173  0.00  0.00    +0.000 C 
BRANCH  14  15
ATOM     15  C   LIG A   1      -6.458   4.562 134.631  0.00  0.00    -0.000 C 
BRANCH  15  16
ATOM     16  C   LIG A   1      -6.027   4.486 136.103  0.00  0.00    +0.000 C 
BRANCH  16  17
ATOM     17  C   LIG A   1      -6.353   5.746 136.923  0.00  0.00    +0.000 C 
BRANCH  17  18
ATOM     18  C   LIG A   1      -7.682   6.378 136.499  0.00  0.00    +0.004 C 
BRANCH  18  19
ATOM     19  C   LIG A   1      -8.496   6.881 137.692  0.00  0.00    +0.026 C 
BRANCH  19  20
ATOM     20  C   LIG A   1      -8.843   8.341 137.584  0.00  0.00    -0.035 C 
ATOM     21  C   LIG A   1     -10.095   8.819 137.561  0.00  0.00    +0.004 C 
ENDBRANCH  19  20
ENDBRANCH  18  19
ENDBRANCH  17  18
ENDBRANCH  16  17
ENDBRANCH  15  16
ENDBRANCH  14  15
ENDBRANCH  13  14
ENDBRANCH  12  13
ENDBRANCH   5  12
TORSDOF 12
ENDMDL
MODEL 4
REMARK VINA RESULT:      -5.8      1.656      3.374
REMARK  Name = NuBBE_1792
REMARK  13 active torsions:
REMARK  status: ('A' for Active; 'I' for Inactive)
REMARK    1  A    between atoms: C_3  and  C_4
REMARK    2  A    between atoms: C_4  and  C_5
REMARK    3  A    between atoms: C_5  and  O_6
REMARK    4  A    between atoms: O_6  and  C_7
REMARK    5  A    between atoms: C_10  and  C_11
REMARK    6  A    between atoms: C_11  and  C_12
REMARK    7  A    between atoms: C_12  and  C_13
REMARK    8  A    between atoms: C_13  and  C_14
REMARK    9  A    between atoms: C_14  and  C_15
REMARK   10  A    between atoms: C_15  and  C_16
REMARK   11  A    between atoms: C_16  and  C_17
REMARK   12  A    between atoms: C_17  and  C_18
REMARK   13  A    between atoms: C_18  and  C_19
REMARK                            x       y       z     vdW  Elec       q    Type
REMARK                         _______ _______ _______ _____ _____    ______ ____
ROOT
ATOM      1  O   LIG A   1     -10.213   0.160 122.968  0.00  0.00    -0.251 OA
ATOM      2  C   LIG A   1      -9.187   0.438 123.543  0.00  0.00    +0.311 C 
ATOM      3  C   LIG A   1      -8.184   1.499 123.136  0.00  0.00    +0.112 C 
ATOM      4  C   LIG A   1      -7.253   1.511 124.344  0.00  0.00    +0.060 C 
ATOM      5  C   LIG A   1      -7.373   0.090 124.878  0.00  0.00    +0.177 C 
ATOM      6  O   LIG A   1      -8.745  -0.232 124.648  0.00  0.00    -0.461 OA
ENDROOT
BRANCH   3   7
ATOM      7  C   LIG A   1      -8.814   2.856 122.857  0.00  0.00    +0.135 C 
BRANCH   7   8
ATOM      8  C   LIG A   1      -8.338   3.441 121.547  0.00  0.00    +0.308 C 
ATOM      9  O   LIG A   1      -9.065   3.631 120.583  0.00  0.00    -0.251 OA
BRANCH   8  10
ATOM     10  O   LIG A   1      -7.011   3.725 121.615  0.00  0.00    -0.468 OA
ATOM     11  C   LIG A   1      -6.325   3.736 120.363  0.00  0.00    +0.280 C 
ENDBRANCH   8  10
ENDBRANCH   7   8
ENDBRANCH   3   7
BRANCH   5  12
ATOM     12  C   LIG A   1      -6.483  -0.894 124.104  0.00  0.00    +0.045 C 
BRANCH  12  13
ATOM     13  C   LIG A   1      -5.654  -1.862 124.964  0.00  0.00    +0.003 C 
BRANCH  13  14
ATOM     14  C   LIG A   1      -5.598  -1.345 126.413  0.00  0.00    +0.000 C 
BRANCH  14  15
ATOM     15  C   LIG A   1      -6.105  -2.318 127.487  0.00  0.00    -0.000 C 
BRANCH  15  16
ATOM     16  C   LIG A   1      -7.366  -1.863 128.234  0.00  0.00    +0.000 C 
BRANCH  16  17
ATOM     17  C   LIG A   1      -8.276  -3.014 128.698  0.00  0.00    +0.000 C 
BRANCH  17  18
ATOM     18  C   LIG A   1      -8.708  -3.909 127.533  0.00  0.00    +0.004 C 
BRANCH  18  19
ATOM     19  C   LIG A   1      -9.194  -3.104 126.327  0.00  0.00    +0.026 C 
BRANCH  19  20
ATOM     20  C   LIG A   1      -8.763  -3.704 125.016  0.00  0.00    -0.035 C 
ATOM     21  C   LIG A   1      -9.308  -3.396 123.831  0.00  0.00    +0.004 C 
ENDBRANCH  19  20
ENDBRANCH  18  19
ENDBRANCH  17  18
ENDBRANCH  16  17
ENDBRANCH  15  16
ENDBRANCH  14  15
ENDBRANCH  13  14
ENDBRANCH  12  13
ENDBRANCH   5  12
TORSDOF 12
ENDMDL
MODEL 5
REMARK VINA RESULT:      -5.8      9.229     10.607
REMARK  Name = NuBBE_1792
REMARK  13 active torsions:
REMARK  status: ('A' for Active; 'I' for Inactive)
REMARK    1  A    between atoms: C_3  and  C_4
REMARK    2  A    between atoms: C_4  and  C_5
REMARK    3  A    between atoms: C_5  and  O_6
REMARK    4  A    between atoms: O_6  and  C_7
REMARK    5  A    between atoms: C_10  and  C_11
REMARK    6  A    between atoms: C_11  and  C_12
REMARK    7  A    between atoms: C_12  and  C_13
REMARK    8  A    between atoms: C_13  and  C_14
REMARK    9  A    between atoms: C_14  and  C_15
REMARK   10  A    between atoms: C_15  and  C_16
REMARK   11  A    between atoms: C_16  and  C_17
REMARK   12  A    between atoms: C_17  and  C_18
REMARK   13  A    between atoms: C_18  and  C_19
REMARK                            x       y       z     vdW  Elec       q    Type
REMARK                         _______ _______ _______ _____ _____    ______ ____
ROOT
ATOM      1  O   LIG A   1     -12.412   6.535 131.605  0.00  0.00    -0.251 OA
ATOM      2  C   LIG A   1     -11.206   6.497 131.663  0.00  0.00    +0.311 C 
ATOM      3  C   LIG A   1     -10.248   6.453 130.490  0.00  0.00    +0.112 C 
ATOM      4  C   LIG A   1      -8.905   6.633 131.193  0.00  0.00    +0.060 C 
ATOM      5  C   LIG A   1      -9.166   6.048 132.575  0.00  0.00    +0.177 C 
ATOM      6  O   LIG A   1     -10.517   6.425 132.841  0.00  0.00    -0.461 OA
ENDROOT
BRANCH   3   7
ATOM      7  C   LIG A   1     -10.518   7.524 129.443  0.00  0.00    +0.135 C 
BRANCH   7   8
ATOM      8  C   LIG A   1     -10.811   6.926 128.087  0.00  0.00    +0.308 C 
ATOM      9  O   LIG A   1      -9.959   6.728 127.232  0.00  0.00    -0.251 OA
BRANCH   8  10
ATOM     10  O   LIG A   1     -12.135   6.641 127.976  0.00  0.00    -0.468 OA
ATOM     11  C   LIG A   1     -13.016   7.749 128.160  0.00  0.00    +0.280 C 
ENDBRANCH   8  10
ENDBRANCH   7   8
ENDBRANCH   3   7
BRANCH   5  12
ATOM     12  C   LIG A   1      -9.054   4.516 132.583  0.00  0.00    +0.045 C 
BRANCH  12  13
ATOM     13  C   LIG A   1      -8.921   3.865 133.970  0.00  0.00    +0.003 C 
BRANCH  13  14
ATOM     14  C   LIG A   1      -7.960   4.695 134.839  0.00  0.00    +0.000 C 
BRANCH  14  15
ATOM     15  C   LIG A   1      -6.464   4.474 134.575  0.00  0.00    -0.000 C 
BRANCH  15  16
ATOM     16  C   LIG A   1      -5.747   5.638 133.877  0.00  0.00    +0.000 C 
BRANCH  16  17
ATOM     17  C   LIG A   1      -5.435   5.387 132.391  0.00  0.00    +0.000 C 
BRANCH  17  18
ATOM     18  C   LIG A   1      -5.165   6.690 131.633  0.00  0.00    +0.004 C 
BRANCH  18  19
ATOM     19  C   LIG A   1      -3.742   7.207 131.848  0.00  0.00    +0.026 C 
BRANCH  19  20
ATOM     20  C   LIG A   1      -2.694   6.220 131.411  0.00  0.00    -0.035 C 
ATOM     21  C   LIG A   1      -1.379   6.478 131.387  0.00  0.00    +0.004 C 
ENDBRANCH  19  20
ENDBRANCH  18  19
ENDBRANCH  17  18
ENDBRANCH  16  17
ENDBRANCH  15  16
ENDBRANCH  14  15
ENDBRANCH  13  14
ENDBRANCH  12  13
ENDBRANCH   5  12
TORSDOF 12
ENDMDL
MODEL 6
REMARK VINA RESULT:      -5.7      5.521      7.836
REMARK  Name = NuBBE_1792
REMARK  13 active torsions:
REMARK  status: ('A' for Active; 'I' for Inactive)
REMARK    1  A    between atoms: C_3  and  C_4
REMARK    2  A    between atoms: C_4  and  C_5
REMARK    3  A    between atoms: C_5  and  O_6
REMARK    4  A    between atoms: O_6  and  C_7
REMARK    5  A    between atoms: C_10  and  C_11
REMARK    6  A    between atoms: C_11  and  C_12
REMARK    7  A    between atoms: C_12  and  C_13
REMARK    8  A    between atoms: C_13  and  C_14
REMARK    9  A    between atoms: C_14  and  C_15
REMARK   10  A    between atoms: C_15  and  C_16
REMARK   11  A    between atoms: C_16  and  C_17
REMARK   12  A    between atoms: C_17  and  C_18
REMARK   13  A    between atoms: C_18  and  C_19
REMARK                            x       y       z     vdW  Elec       q    Type
REMARK                         _______ _______ _______ _____ _____    ______ ____
ROOT
ATOM      1  O   LIG A   1      -4.003  -3.391 129.029  0.00  0.00    -0.251 OA
ATOM      2  C   LIG A   1      -5.166  -3.236 129.319  0.00  0.00    +0.311 C 
ATOM      3  C   LIG A   1      -6.029  -4.188 130.122  0.00  0.00    +0.112 C 
ATOM      4  C   LIG A   1      -7.290  -3.353 130.323  0.00  0.00    +0.060 C 
ATOM      5  C   LIG A   1      -7.291  -2.444 129.100  0.00  0.00    +0.177 C 
ATOM      6  O   LIG A   1      -5.905  -2.169 128.894  0.00  0.00    -0.461 OA
ENDROOT
BRANCH   3   7
ATOM      7  C   LIG A   1      -5.393  -4.627 131.433  0.00  0.00    +0.135 C 
BRANCH   7   8
ATOM      8  C   LIG A   1      -4.716  -3.479 132.144  0.00  0.00    +0.308 C 
ATOM      9  O   LIG A   1      -5.310  -2.498 132.571  0.00  0.00    -0.251 OA
BRANCH   8  10
ATOM     10  O   LIG A   1      -3.381  -3.709 132.243  0.00  0.00    -0.468 OA
ATOM     11  C   LIG A   1      -2.956  -4.328 133.458  0.00  0.00    +0.280 C 
ENDBRANCH   8  10
ENDBRANCH   7   8
ENDBRANCH   3   7
BRANCH   5  12
ATOM     12  C   LIG A   1      -7.861  -3.148 127.859  0.00  0.00    +0.045 C 
BRANCH  12  13
ATOM     13  C   LIG A   1      -8.468  -2.226 126.789  0.00  0.00    +0.003 C 
BRANCH  13  14
ATOM     14  C   LIG A   1      -9.358  -3.051 125.842  0.00  0.00    +0.000 C 
BRANCH  14  15
ATOM     15  C   LIG A   1      -8.693  -3.512 124.537  0.00  0.00    -0.000 C 
BRANCH  15  16
ATOM     16  C   LIG A   1      -9.017  -2.657 123.304  0.00  0.00    +0.000 C 
BRANCH  16  17
ATOM     17  C   LIG A   1      -7.801  -1.932 122.701  0.00  0.00    +0.000 C 
BRANCH  17  18
ATOM     18  C   LIG A   1      -6.597  -1.946 123.647  0.00  0.00    +0.004 C 
BRANCH  18  19
ATOM     19  C   LIG A   1      -5.406  -2.708 123.064  0.00  0.00    +0.026 C 
BRANCH  19  20
ATOM     20  C   LIG A   1      -5.031  -3.912 123.885  0.00  0.00    -0.035 C 
ATOM     21  C   LIG A   1      -4.080  -4.792 123.541  0.00  0.00    +0.004 C 
ENDBRANCH  19  20
ENDBRANCH  18  19
ENDBRANCH  17  18
ENDBRANCH  16  17
ENDBRANCH  15  16
ENDBRANCH  14  15
ENDBRANCH  13  14
ENDBRANCH  12  13
ENDBRANCH   5  12
TORSDOF 12
ENDMDL
MODEL 7
REMARK VINA RESULT:      -5.7      4.569      6.616
REMARK  Name = NuBBE_1792
REMARK  13 active torsions:
REMARK  status: ('A' for Active; 'I' for Inactive)
REMARK    1  A    between atoms: C_3  and  C_4
REMARK    2  A    between atoms: C_4  and  C_5
REMARK    3  A    between atoms: C_5  and  O_6
REMARK    4  A    between atoms: O_6  and  C_7
REMARK    5  A    between atoms: C_10  and  C_11
REMARK    6  A    between atoms: C_11  and  C_12
REMARK    7  A    between atoms: C_12  and  C_13
REMARK    8  A    between atoms: C_13  and  C_14
REMARK    9  A    between atoms: C_14  and  C_15
REMARK   10  A    between atoms: C_15  and  C_16
REMARK   11  A    between atoms: C_16  and  C_17
REMARK   12  A    between atoms: C_17  and  C_18
REMARK   13  A    between atoms: C_18  and  C_19
REMARK                            x       y       z     vdW  Elec       q    Type
REMARK                         _______ _______ _______ _____ _____    ______ ____
ROOT
ATOM      1  O   LIG A   1      -5.395   0.448 128.304  0.00  0.00    -0.251 OA
ATOM      2  C   LIG A   1      -6.011  -0.583 128.439  0.00  0.00    +0.311 C 
ATOM      3  C   LIG A   1      -5.425  -1.978 128.522  0.00  0.00    +0.112 C 
ATOM      4  C   LIG A   1      -6.657  -2.798 128.897  0.00  0.00    +0.060 C 
ATOM      5  C   LIG A   1      -7.797  -1.990 128.292  0.00  0.00    +0.177 C 
ATOM      6  O   LIG A   1      -7.375  -0.638 128.474  0.00  0.00    -0.461 OA
ENDROOT
BRANCH   3   7
ATOM      7  C   LIG A   1      -4.297  -2.105 129.536  0.00  0.00    +0.135 C 
BRANCH   7   8
ATOM      8  C   LIG A   1      -3.767  -3.517 129.617  0.00  0.00    +0.308 C 
ATOM      9  O   LIG A   1      -3.045  -4.023 128.770  0.00  0.00    -0.251 OA
BRANCH   8  10
ATOM     10  O   LIG A   1      -4.201  -4.116 130.757  0.00  0.00    -0.468 OA
ATOM     11  C   LIG A   1      -3.910  -3.413 131.965  0.00  0.00    +0.280 C 
ENDBRANCH   8  10
ENDBRANCH   7   8
ENDBRANCH   3   7
BRANCH   5  12
ATOM     12  C   LIG A   1      -7.970  -2.271 126.791  0.00  0.00    +0.045 C 
BRANCH  12  13
ATOM     13  C   LIG A   1      -8.704  -3.575 126.437  0.00  0.00    +0.003 C 
BRANCH  13  14
ATOM     14  C   LIG A   1      -8.412  -3.949 124.972  0.00  0.00    +0.000 C 
BRANCH  14  15
ATOM     15  C   LIG A   1      -9.207  -3.170 123.915  0.00  0.00    -0.000 C 
BRANCH  15  16
ATOM     16  C   LIG A   1      -8.360  -2.521 122.811  0.00  0.00    +0.000 C 
BRANCH  16  17
ATOM     17  C   LIG A   1      -7.694  -1.197 123.222  0.00  0.00    +0.000 C 
BRANCH  17  18
ATOM     18  C   LIG A   1      -6.243  -1.398 123.668  0.00  0.00    +0.004 C 
BRANCH  18  19
ATOM     19  C   LIG A   1      -5.572  -2.576 122.960  0.00  0.00    +0.026 C 
BRANCH  19  20
ATOM     20  C   LIG A   1      -4.891  -3.516 123.917  0.00  0.00    -0.035 C 
ATOM     21  C   LIG A   1      -4.410  -4.719 123.577  0.00  0.00    +0.004 C 
ENDBRANCH  19  20
ENDBRANCH  18  19
ENDBRANCH  17  18
ENDBRANCH  16  17
ENDBRANCH  15  16
ENDBRANCH  14  15
ENDBRANCH  13  14
ENDBRANCH  12  13
ENDBRANCH   5  12
TORSDOF 12
ENDMDL
MODEL 8
REMARK VINA RESULT:      -5.6      2.069      3.458
REMARK  Name = NuBBE_1792
REMARK  13 active torsions:
REMARK  status: ('A' for Active; 'I' for Inactive)
REMARK    1  A    between atoms: C_3  and  C_4
REMARK    2  A    between atoms: C_4  and  C_5
REMARK    3  A    between atoms: C_5  and  O_6
REMARK    4  A    between atoms: O_6  and  C_7
REMARK    5  A    between atoms: C_10  and  C_11
REMARK    6  A    between atoms: C_11  and  C_12
REMARK    7  A    between atoms: C_12  and  C_13
REMARK    8  A    between atoms: C_13  and  C_14
REMARK    9  A    between atoms: C_14  and  C_15
REMARK   10  A    between atoms: C_15  and  C_16
REMARK   11  A    between atoms: C_16  and  C_17
REMARK   12  A    between atoms: C_17  and  C_18
REMARK   13  A    between atoms: C_18  and  C_19
REMARK                            x       y       z     vdW  Elec       q    Type
REMARK                         _______ _______ _______ _____ _____    ______ ____
ROOT
ATOM      1  O   LIG A   1      -5.922   4.696 124.290  0.00  0.00    -0.251 OA
ATOM      2  C   LIG A   1      -6.271   3.564 124.050  0.00  0.00    +0.311 C 
ATOM      3  C   LIG A   1      -6.949   3.079 122.784  0.00  0.00    +0.112 C 
ATOM      4  C   LIG A   1      -6.933   1.568 122.995  0.00  0.00    +0.060 C 
ATOM      5  C   LIG A   1      -6.949   1.438 124.512  0.00  0.00    +0.177 C 
ATOM      6  O   LIG A   1      -6.150   2.539 124.945  0.00  0.00    -0.461 OA
ENDROOT
BRANCH   3   7
ATOM      7  C   LIG A   1      -6.237   3.509 121.510  0.00  0.00    +0.135 C 
BRANCH   7   8
ATOM      8  C   LIG A   1      -7.210   3.955 120.443  0.00  0.00    +0.308 C 
ATOM      9  O   LIG A   1      -8.422   3.809 120.523  0.00  0.00    -0.251 OA
BRANCH   8  10
ATOM     10  O   LIG A   1      -6.544   4.539 119.414  0.00  0.00    -0.468 OA
ATOM     11  C   LIG A   1      -5.363   5.254 119.779  0.00  0.00    +0.280 C 
ENDBRANCH   8  10
ENDBRANCH   7   8
ENDBRANCH   3   7
BRANCH   5  12
ATOM     12  C   LIG A   1      -8.367   1.581 125.087  0.00  0.00    +0.045 C 
BRANCH  12  13
ATOM     13  C   LIG A   1      -8.572   1.019 126.504  0.00  0.00    +0.003 C 
BRANCH  13  14
ATOM     14  C   LIG A   1      -8.544  -0.520 126.456  0.00  0.00    +0.000 C 
BRANCH  14  15
ATOM     15  C   LIG A   1      -7.331  -1.184 127.123  0.00  0.00    -0.000 C 
BRANCH  15  16
ATOM     16  C   LIG A   1      -6.758  -2.394 126.371  0.00  0.00    +0.000 C 
BRANCH  16  17
ATOM     17  C   LIG A   1      -5.990  -2.035 125.087  0.00  0.00    +0.000 C 
BRANCH  17  18
ATOM     18  C   LIG A   1      -6.556  -2.754 123.859  0.00  0.00    +0.004 C 
BRANCH  18  19
ATOM     19  C   LIG A   1      -7.842  -3.519 124.172  0.00  0.00    +0.026 C 
BRANCH  19  20
ATOM     20  C   LIG A   1      -9.067  -2.849 123.610  0.00  0.00    -0.035 C 
ATOM     21  C   LIG A   1      -9.051  -1.690 122.938  0.00  0.00    +0.004 C 
ENDBRANCH  19  20
ENDBRANCH  18  19
ENDBRANCH  17  18
ENDBRANCH  16  17
ENDBRANCH  15  16
ENDBRANCH  14  15
ENDBRANCH  13  14
ENDBRANCH  12  13
ENDBRANCH   5  12
TORSDOF 12
ENDMDL
MODEL 9
REMARK VINA RESULT:      -5.6      2.321      3.428
REMARK  Name = NuBBE_1792
REMARK  13 active torsions:
REMARK  status: ('A' for Active; 'I' for Inactive)
REMARK    1  A    between atoms: C_3  and  C_4
REMARK    2  A    between atoms: C_4  and  C_5
REMARK    3  A    between atoms: C_5  and  O_6
REMARK    4  A    between atoms: O_6  and  C_7
REMARK    5  A    between atoms: C_10  and  C_11
REMARK    6  A    between atoms: C_11  and  C_12
REMARK    7  A    between atoms: C_12  and  C_13
REMARK    8  A    between atoms: C_13  and  C_14
REMARK    9  A    between atoms: C_14  and  C_15
REMARK   10  A    between atoms: C_15  and  C_16
REMARK   11  A    between atoms: C_16  and  C_17
REMARK   12  A    between atoms: C_17  and  C_18
REMARK   13  A    between atoms: C_18  and  C_19
REMARK                            x       y       z     vdW  Elec       q    Type
REMARK                         _______ _______ _______ _____ _____    ______ ____
ROOT
ATOM      1  O   LIG A   1     -11.066   1.363 123.934  0.00  0.00    -0.251 OA
ATOM      2  C   LIG A   1      -9.957   0.886 123.880  0.00  0.00    +0.311 C 
ATOM      3  C   LIG A   1      -8.822   1.342 122.986  0.00  0.00    +0.112 C 
ATOM      4  C   LIG A   1      -7.662   0.511 123.526  0.00  0.00    +0.060 C 
ATOM      5  C   LIG A   1      -8.360  -0.728 124.073  0.00  0.00    +0.177 C 
ATOM      6  O   LIG A   1      -9.581  -0.210 124.603  0.00  0.00    -0.461 OA
ENDROOT
BRANCH   3   7
ATOM      7  C   LIG A   1      -8.561   2.840 123.051  0.00  0.00    +0.135 C 
BRANCH   7   8
ATOM      8  C   LIG A   1      -8.175   3.405 121.703  0.00  0.00    +0.308 C 
ATOM      9  O   LIG A   1      -8.958   3.539 120.773  0.00  0.00    -0.251 OA
BRANCH   8  10
ATOM     10  O   LIG A   1      -6.860   3.742 121.694  0.00  0.00    -0.468 OA
ATOM     11  C   LIG A   1      -6.244   3.767 120.406  0.00  0.00    +0.280 C 
ENDBRANCH   8  10
ENDBRANCH   7   8
ENDBRANCH   3   7
BRANCH   5  12
ATOM     12  C   LIG A   1      -8.677  -1.746 122.967  0.00  0.00    +0.045 C 
BRANCH  12  13
ATOM     13  C   LIG A   1      -9.218  -3.104 123.445  0.00  0.00    +0.003 C 
BRANCH  13  14
ATOM     14  C   LIG A   1      -8.467  -3.538 124.717  0.00  0.00    +0.000 C 
BRANCH  14  15
ATOM     15  C   LIG A   1      -9.250  -3.403 126.031  0.00  0.00    -0.000 C 
BRANCH  15  16
ATOM     16  C   LIG A   1      -8.464  -2.782 127.195  0.00  0.00    +0.000 C 
BRANCH  16  17
ATOM     17  C   LIG A   1      -8.594  -3.548 128.523  0.00  0.00    +0.000 C 
BRANCH  17  18
ATOM     18  C   LIG A   1      -7.298  -3.506 129.338  0.00  0.00    +0.004 C 
BRANCH  18  19
ATOM     19  C   LIG A   1      -6.184  -2.740 128.625  0.00  0.00    +0.026 C 
BRANCH  19  20
ATOM     20  C   LIG A   1      -4.860  -2.848 129.333  0.00  0.00    -0.035 C 
ATOM     21  C   LIG A   1      -4.137  -1.798 129.743  0.00  0.00    +0.004 C 
ENDBRANCH  19  20
ENDBRANCH  18  19
ENDBRANCH  17  18
ENDBRANCH  16  17
ENDBRANCH  15  16
ENDBRANCH  14  15
ENDBRANCH  13  14
ENDBRANCH  12  13
ENDBRANCH   5  12
TORSDOF 12
ENDMDL
