MODEL 1
REMARK VINA RESULT:      -7.7      0.000      0.000
REMARK  Name = NuBBE_1712
REMARK  1 active torsions:
REMARK  status: ('A' for Active; 'I' for Inactive)
REMARK    1  A    between atoms: C_7  and  O_8
REMARK                            x       y       z     vdW  Elec       q    Type
REMARK                         _______ _______ _______ _____ _____    ______ ____
ROOT
ATOM      1  O   LIG A   1     -12.694   6.457 131.491  0.00  0.00    -0.286 OA
ATOM      2  C   LIG A   1     -11.710   6.571 130.773  0.00  0.00    +0.200 A 
ATOM      3  C   LIG A   1     -10.347   6.412 131.297  0.00  0.00    +0.068 A 
ATOM      4  C   LIG A   1      -9.273   6.554 130.421  0.00  0.00    +0.140 A 
ATOM      5  C   LIG A   1      -7.968   6.406 130.900  0.00  0.00    +0.050 A 
ATOM      6  C   LIG A   1      -7.744   6.118 132.249  0.00  0.00    +0.049 A 
ATOM      7  C   LIG A   1      -8.830   5.980 133.110  0.00  0.00    +0.118 A 
ATOM      8  C   LIG A   1     -10.133   6.123 132.647  0.00  0.00    +0.060 A 
ATOM      9  O   LIG A   1      -9.406   6.838 129.084  0.00  0.00    -0.455 OA
ATOM     10  C   LIG A   1     -10.675   6.992 128.577  0.00  0.00    +0.139 A 
ATOM     11  C   LIG A   1     -10.773   7.281 127.215  0.00  0.00    +0.047 A 
ATOM     12  C   LIG A   1     -12.028   7.452 126.625  0.00  0.00    +0.004 A 
ATOM     13  C   LIG A   1     -13.187   7.334 127.394  0.00  0.00    +0.001 A 
ATOM     14  C   LIG A   1     -13.093   7.045 128.755  0.00  0.00    +0.015 A 
ATOM     15  C   LIG A   1     -11.835   6.875 129.339  0.00  0.00    +0.065 A 
ENDROOT
BRANCH   7  16
ATOM     16  O   LIG A   1      -8.656   5.700 134.432  0.00  0.00    -0.507 OA
ATOM     17  H   LIG A   1      -9.301   5.027 134.704  0.00  0.00    +0.292 HD
ENDBRANCH   7  16
TORSDOF 1
ENDMDL
MODEL 2
REMARK VINA RESULT:      -7.3      1.444      5.106
REMARK  Name = NuBBE_1712
REMARK  1 active torsions:
REMARK  status: ('A' for Active; 'I' for Inactive)
REMARK    1  A    between atoms: C_7  and  O_8
REMARK                            x       y       z     vdW  Elec       q    Type
REMARK                         _______ _______ _______ _____ _____    ______ ____
ROOT
ATOM      1  O   LIG A   1     -12.154   6.379 132.067  0.00  0.00    -0.286 OA
ATOM      2  C   LIG A   1     -11.174   6.654 131.387  0.00  0.00    +0.200 A 
ATOM      3  C   LIG A   1     -11.302   7.256 130.054  0.00  0.00    +0.068 A 
ATOM      4  C   LIG A   1     -10.142   7.543 129.336  0.00  0.00    +0.140 A 
ATOM      5  C   LIG A   1     -10.241   8.116 128.065  0.00  0.00    +0.050 A 
ATOM      6  C   LIG A   1     -11.497   8.398 127.519  0.00  0.00    +0.049 A 
ATOM      7  C   LIG A   1     -12.645   8.103 128.250  0.00  0.00    +0.118 A 
ATOM      8  C   LIG A   1     -12.561   7.534 129.516  0.00  0.00    +0.060 A 
ATOM      9  O   LIG A   1      -8.872   7.298 129.799  0.00  0.00    -0.455 OA
ATOM     10  C   LIG A   1      -8.736   6.733 131.045  0.00  0.00    +0.139 A 
ATOM     11  C   LIG A   1      -7.432   6.496 131.484  0.00  0.00    +0.047 A 
ATOM     12  C   LIG A   1      -7.209   5.924 132.739  0.00  0.00    +0.004 A 
ATOM     13  C   LIG A   1      -8.288   5.589 133.559  0.00  0.00    +0.001 A 
ATOM     14  C   LIG A   1      -9.592   5.824 133.125  0.00  0.00    +0.015 A 
ATOM     15  C   LIG A   1      -9.808   6.396 131.868  0.00  0.00    +0.065 A 
ENDROOT
BRANCH   7  16
ATOM     16  O   LIG A   1     -13.887   8.360 127.753  0.00  0.00    -0.507 OA
ATOM     17  H   LIG A   1     -14.308   7.523 127.497  0.00  0.00    +0.292 HD
ENDBRANCH   7  16
TORSDOF 1
ENDMDL
MODEL 3
REMARK VINA RESULT:      -6.9      1.723      5.822
REMARK  Name = NuBBE_1712
REMARK  1 active torsions:
REMARK  status: ('A' for Active; 'I' for Inactive)
REMARK    1  A    between atoms: C_7  and  O_8
REMARK                            x       y       z     vdW  Elec       q    Type
REMARK                         _______ _______ _______ _____ _____    ______ ____
ROOT
ATOM      1  O   LIG A   1      -7.385   7.256 130.368  0.00  0.00    -0.286 OA
ATOM      2  C   LIG A   1      -8.309   6.784 131.016  0.00  0.00    +0.200 A 
ATOM      3  C   LIG A   1      -9.711   7.025 130.652  0.00  0.00    +0.068 A 
ATOM      4  C   LIG A   1     -10.713   6.454 131.434  0.00  0.00    +0.140 A 
ATOM      5  C   LIG A   1     -12.054   6.671 131.105  0.00  0.00    +0.050 A 
ATOM      6  C   LIG A   1     -12.386   7.455 129.997  0.00  0.00    +0.049 A 
ATOM      7  C   LIG A   1     -11.371   8.019 129.226  0.00  0.00    +0.118 A 
ATOM      8  C   LIG A   1     -10.034   7.810 129.542  0.00  0.00    +0.060 A 
ATOM      9  O   LIG A   1     -10.473   5.672 132.538  0.00  0.00    -0.455 OA
ATOM     10  C   LIG A   1      -9.166   5.439 132.894  0.00  0.00    +0.139 A 
ATOM     11  C   LIG A   1      -8.958   4.641 134.021  0.00  0.00    +0.047 A 
ATOM     12  C   LIG A   1      -7.658   4.358 134.447  0.00  0.00    +0.004 A 
ATOM     13  C   LIG A   1      -6.563   4.869 133.748  0.00  0.00    +0.001 A 
ATOM     14  C   LIG A   1      -6.766   5.666 132.622  0.00  0.00    +0.015 A 
ATOM     15  C   LIG A   1      -8.069   5.946 132.201  0.00  0.00    +0.065 A 
ENDROOT
BRANCH   7  16
ATOM     16  O   LIG A   1     -11.652   8.791 128.139  0.00  0.00    -0.507 OA
ATOM     17  H   LIG A   1     -11.204   8.421 127.361  0.00  0.00    +0.292 HD
ENDBRANCH   7  16
TORSDOF 1
ENDMDL
MODEL 4
REMARK VINA RESULT:      -6.8      2.111      2.869
REMARK  Name = NuBBE_1712
REMARK  1 active torsions:
REMARK  status: ('A' for Active; 'I' for Inactive)
REMARK    1  A    between atoms: C_7  and  O_8
REMARK                            x       y       z     vdW  Elec       q    Type
REMARK                         _______ _______ _______ _____ _____    ______ ____
ROOT
ATOM      1  O   LIG A   1      -8.694   7.640 130.017  0.00  0.00    -0.286 OA
ATOM      2  C   LIG A   1      -9.616   6.839 129.940  0.00  0.00    +0.200 A 
ATOM      3  C   LIG A   1      -9.474   5.451 130.396  0.00  0.00    +0.068 A 
ATOM      4  C   LIG A   1     -10.567   4.593 130.279  0.00  0.00    +0.140 A 
ATOM      5  C   LIG A   1     -10.453   3.268 130.707  0.00  0.00    +0.050 A 
ATOM      6  C   LIG A   1      -9.250   2.807 131.250  0.00  0.00    +0.049 A 
ATOM      7  C   LIG A   1      -8.168   3.677 131.359  0.00  0.00    +0.118 A 
ATOM      8  C   LIG A   1      -8.268   4.999 130.937  0.00  0.00    +0.060 A 
ATOM      9  O   LIG A   1     -11.781   4.966 129.757  0.00  0.00    -0.455 OA
ATOM     10  C   LIG A   1     -11.930   6.262 129.323  0.00  0.00    +0.139 A 
ATOM     11  C   LIG A   1     -13.177   6.606 128.798  0.00  0.00    +0.047 A 
ATOM     12  C   LIG A   1     -13.407   7.904 128.336  0.00  0.00    +0.004 A 
ATOM     13  C   LIG A   1     -12.393   8.862 128.398  0.00  0.00    +0.001 A 
ATOM     14  C   LIG A   1     -11.146   8.522 128.922  0.00  0.00    +0.015 A 
ATOM     15  C   LIG A   1     -10.922   7.221 129.383  0.00  0.00    +0.065 A 
ENDROOT
BRANCH   7  16
ATOM     16  O   LIG A   1      -6.978   3.267 131.881  0.00  0.00    -0.507 OA
ATOM     17  H   LIG A   1      -7.147   2.677 132.633  0.00  0.00    +0.292 HD
ENDBRANCH   7  16
TORSDOF 1
ENDMDL
MODEL 5
REMARK VINA RESULT:      -6.6     10.538     11.679
REMARK  Name = NuBBE_1712
REMARK  1 active torsions:
REMARK  status: ('A' for Active; 'I' for Inactive)
REMARK    1  A    between atoms: C_7  and  O_8
REMARK                            x       y       z     vdW  Elec       q    Type
REMARK                         _______ _______ _______ _____ _____    ______ ____
ROOT
ATOM      1  O   LIG A   1      -9.392  -3.995 128.176  0.00  0.00    -0.286 OA
ATOM      2  C   LIG A   1      -8.391  -3.448 127.734  0.00  0.00    +0.200 A 
ATOM      3  C   LIG A   1      -8.265  -3.096 126.314  0.00  0.00    +0.068 A 
ATOM      4  C   LIG A   1      -7.096  -2.473 125.881  0.00  0.00    +0.140 A 
ATOM      5  C   LIG A   1      -6.956  -2.130 124.533  0.00  0.00    +0.050 A 
ATOM      6  C   LIG A   1      -7.984  -2.410 123.627  0.00  0.00    +0.049 A 
ATOM      7  C   LIG A   1      -9.145  -3.034 124.078  0.00  0.00    +0.118 A 
ATOM      8  C   LIG A   1      -9.297  -3.380 125.416  0.00  0.00    +0.060 A 
ATOM      9  O   LIG A   1      -6.041  -2.164 126.704  0.00  0.00    -0.455 OA
ATOM     10  C   LIG A   1      -6.142  -2.488 128.036  0.00  0.00    +0.139 A 
ATOM     11  C   LIG A   1      -5.052  -2.161 128.844  0.00  0.00    +0.047 A 
ATOM     12  C   LIG A   1      -5.077  -2.458 130.208  0.00  0.00    +0.004 A 
ATOM     13  C   LIG A   1      -6.192  -3.082 130.770  0.00  0.00    +0.001 A 
ATOM     14  C   LIG A   1      -7.284  -3.411 129.967  0.00  0.00    +0.015 A 
ATOM     15  C   LIG A   1      -7.252  -3.111 128.602  0.00  0.00    +0.065 A 
ENDROOT
BRANCH   7  16
ATOM     16  O   LIG A   1     -10.169  -3.326 123.228  0.00  0.00    -0.507 OA
ATOM     17  H   LIG A   1     -10.559  -4.179 123.480  0.00  0.00    +0.292 HD
ENDBRANCH   7  16
TORSDOF 1
ENDMDL
MODEL 6
REMARK VINA RESULT:      -6.5      8.248      9.821
REMARK  Name = NuBBE_1712
REMARK  1 active torsions:
REMARK  status: ('A' for Active; 'I' for Inactive)
REMARK    1  A    between atoms: C_7  and  O_8
REMARK                            x       y       z     vdW  Elec       q    Type
REMARK                         _______ _______ _______ _____ _____    ______ ____
ROOT
ATOM      1  O   LIG A   1      -7.224   0.893 127.440  0.00  0.00    -0.286 OA
ATOM      2  C   LIG A   1      -7.879   0.239 126.639  0.00  0.00    +0.200 A 
ATOM      3  C   LIG A   1      -8.355   0.817 125.376  0.00  0.00    +0.068 A 
ATOM      4  C   LIG A   1      -9.095   0.013 124.510  0.00  0.00    +0.140 A 
ATOM      5  C   LIG A   1      -9.558   0.543 123.302  0.00  0.00    +0.050 A 
ATOM      6  C   LIG A   1      -9.278   1.871 122.967  0.00  0.00    +0.049 A 
ATOM      7  C   LIG A   1      -8.538   2.660 123.844  0.00  0.00    +0.118 A 
ATOM      8  C   LIG A   1      -8.071   2.145 125.048  0.00  0.00    +0.060 A 
ATOM      9  O   LIG A   1      -9.414  -1.298 124.765  0.00  0.00    -0.455 OA
ATOM     10  C   LIG A   1      -8.978  -1.853 125.945  0.00  0.00    +0.139 A 
ATOM     11  C   LIG A   1      -9.320  -3.188 126.172  0.00  0.00    +0.047 A 
ATOM     12  C   LIG A   1      -8.914  -3.824 127.347  0.00  0.00    +0.004 A 
ATOM     13  C   LIG A   1      -8.164  -3.129 128.298  0.00  0.00    +0.001 A 
ATOM     14  C   LIG A   1      -7.820  -1.797 128.075  0.00  0.00    +0.015 A 
ATOM     15  C   LIG A   1      -8.230  -1.166 126.897  0.00  0.00    +0.065 A 
ENDROOT
BRANCH   7  16
ATOM     16  O   LIG A   1      -8.245   3.958 123.555  0.00  0.00    -0.507 OA
ATOM     17  H   LIG A   1      -7.642   4.308 124.231  0.00  0.00    +0.292 HD
ENDBRANCH   7  16
TORSDOF 1
ENDMDL
MODEL 7
REMARK VINA RESULT:      -6.4      2.219      5.133
REMARK  Name = NuBBE_1712
REMARK  1 active torsions:
REMARK  status: ('A' for Active; 'I' for Inactive)
REMARK    1  A    between atoms: C_7  and  O_8
REMARK                            x       y       z     vdW  Elec       q    Type
REMARK                         _______ _______ _______ _____ _____    ______ ____
ROOT
ATOM      1  O   LIG A   1      -9.717   6.667 127.721  0.00  0.00    -0.286 OA
ATOM      2  C   LIG A   1     -10.131   6.446 128.851  0.00  0.00    +0.200 A 
ATOM      3  C   LIG A   1     -11.188   7.263 129.461  0.00  0.00    +0.068 A 
ATOM      4  C   LIG A   1     -11.611   6.953 130.753  0.00  0.00    +0.140 A 
ATOM      5  C   LIG A   1     -12.615   7.719 131.352  0.00  0.00    +0.050 A 
ATOM      6  C   LIG A   1     -13.190   8.788 130.659  0.00  0.00    +0.049 A 
ATOM      7  C   LIG A   1     -12.754   9.084 129.370  0.00  0.00    +0.118 A 
ATOM      8  C   LIG A   1     -11.757   8.330 128.761  0.00  0.00    +0.060 A 
ATOM      9  O   LIG A   1     -11.098   5.922 131.501  0.00  0.00    -0.455 OA
ATOM     10  C   LIG A   1     -10.107   5.148 130.945  0.00  0.00    +0.139 A 
ATOM     11  C   LIG A   1      -9.608   4.110 131.733  0.00  0.00    +0.047 A 
ATOM     12  C   LIG A   1      -8.599   3.279 131.240  0.00  0.00    +0.004 A 
ATOM     13  C   LIG A   1      -8.088   3.483 129.957  0.00  0.00    +0.001 A 
ATOM     14  C   LIG A   1      -8.583   4.519 129.166  0.00  0.00    +0.015 A 
ATOM     15  C   LIG A   1      -9.592   5.347 129.666  0.00  0.00    +0.065 A 
ENDROOT
BRANCH   7  16
ATOM     16  O   LIG A   1     -13.288  10.118 128.661  0.00  0.00    -0.507 OA
ATOM     17  H   LIG A   1     -12.762  10.918 128.820  0.00  0.00    +0.292 HD
ENDBRANCH   7  16
TORSDOF 1
ENDMDL
MODEL 8
REMARK VINA RESULT:      -6.4     10.095     10.607
REMARK  Name = NuBBE_1712
REMARK  1 active torsions:
REMARK  status: ('A' for Active; 'I' for Inactive)
REMARK    1  A    between atoms: C_7  and  O_8
REMARK                            x       y       z     vdW  Elec       q    Type
REMARK                         _______ _______ _______ _____ _____    ______ ____
ROOT
ATOM      1  O   LIG A   1      -5.435  -1.305 126.014  0.00  0.00    -0.286 OA
ATOM      2  C   LIG A   1      -6.479  -1.912 126.216  0.00  0.00    +0.200 A 
ATOM      3  C   LIG A   1      -6.878  -2.336 127.563  0.00  0.00    +0.068 A 
ATOM      4  C   LIG A   1      -8.081  -3.023 127.719  0.00  0.00    +0.140 A 
ATOM      5  C   LIG A   1      -8.479  -3.436 128.994  0.00  0.00    +0.050 A 
ATOM      6  C   LIG A   1      -7.674  -3.162 130.103  0.00  0.00    +0.049 A 
ATOM      7  C   LIG A   1      -6.475  -2.476 129.929  0.00  0.00    +0.118 A 
ATOM      8  C   LIG A   1      -6.067  -2.058 128.667  0.00  0.00    +0.060 A 
ATOM      9  O   LIG A   1      -8.927  -3.332 126.683  0.00  0.00    -0.455 OA
ATOM     10  C   LIG A   1      -8.568  -2.943 125.414  0.00  0.00    +0.139 A 
ATOM     11  C   LIG A   1      -9.450  -3.274 124.385  0.00  0.00    +0.047 A 
ATOM     12  C   LIG A   1      -9.156  -2.914 123.068  0.00  0.00    +0.004 A 
ATOM     13  C   LIG A   1      -7.980  -2.221 122.776  0.00  0.00    +0.001 A 
ATOM     14  C   LIG A   1      -7.095  -1.888 123.801  0.00  0.00    +0.015 A 
ATOM     15  C   LIG A   1      -7.395  -2.251 125.117  0.00  0.00    +0.065 A 
ENDROOT
BRANCH   7  16
ATOM     16  O   LIG A   1      -5.661  -2.190 130.984  0.00  0.00    -0.507 OA
ATOM     17  H   LIG A   1      -5.246  -3.010 131.297  0.00  0.00    +0.292 HD
ENDBRANCH   7  16
TORSDOF 1
ENDMDL
MODEL 9
REMARK VINA RESULT:      -6.3      8.272      9.850
REMARK  Name = NuBBE_1712
REMARK  1 active torsions:
REMARK  status: ('A' for Active; 'I' for Inactive)
REMARK    1  A    between atoms: C_7  and  O_8
REMARK                            x       y       z     vdW  Elec       q    Type
REMARK                         _______ _______ _______ _____ _____    ______ ____
ROOT
ATOM      1  O   LIG A   1      -9.619  -1.242 123.373  0.00  0.00    -0.286 OA
ATOM      2  C   LIG A   1      -9.062  -0.728 124.334  0.00  0.00    +0.200 A 
ATOM      3  C   LIG A   1      -8.650   0.681 124.327  0.00  0.00    +0.068 A 
ATOM      4  C   LIG A   1      -8.020   1.200 125.457  0.00  0.00    +0.140 A 
ATOM      5  C   LIG A   1      -7.620   2.539 125.471  0.00  0.00    +0.050 A 
ATOM      6  C   LIG A   1      -7.851   3.351 124.357  0.00  0.00    +0.049 A 
ATOM      7  C   LIG A   1      -8.481   2.816 123.236  0.00  0.00    +0.118 A 
ATOM      8  C   LIG A   1      -8.885   1.486 123.209  0.00  0.00    +0.060 A 
ATOM      9  O   LIG A   1      -7.756   0.470 126.590  0.00  0.00    -0.455 OA
ATOM     10  C   LIG A   1      -8.133  -0.852 126.613  0.00  0.00    +0.139 A 
ATOM     11  C   LIG A   1      -7.848  -1.564 127.779  0.00  0.00    +0.047 A 
ATOM     12  C   LIG A   1      -8.199  -2.912 127.880  0.00  0.00    +0.004 A 
ATOM     13  C   LIG A   1      -8.838  -3.552 126.816  0.00  0.00    +0.001 A 
ATOM     14  C   LIG A   1      -9.124  -2.844 125.649  0.00  0.00    +0.015 A 
ATOM     15  C   LIG A   1      -8.770  -1.496 125.554  0.00  0.00    +0.065 A 
ENDROOT
BRANCH   7  16
ATOM     16  O   LIG A   1      -8.724   3.574 122.130  0.00  0.00    -0.507 OA
ATOM     17  H   LIG A   1      -9.613   3.959 122.197  0.00  0.00    +0.292 HD
ENDBRANCH   7  16
TORSDOF 1
ENDMDL
