MODEL 1
REMARK VINA RESULT:      -8.4      0.000      0.000
REMARK  Name = NuBBE_545
REMARK  20 active torsions:
REMARK  status: ('A' for Active; 'I' for Inactive)
REMARK    1  A    between atoms: C_1  and  C_2
REMARK    2  A    between atoms: C_6  and  C_41
REMARK    3  A    between atoms: C_9  and  C_40
REMARK    4  A    between atoms: C_10  and  C_39
REMARK    5  A    between atoms: C_15  and  C_16
REMARK    6  A    between atoms: C_15  and  C_37
REMARK    7  A    between atoms: C_16  and  O_17
REMARK    8  A    between atoms: C_18  and  O_36
REMARK    9  A    between atoms: C_20  and  O_35
REMARK   10  A    between atoms: C_23  and  C_34
REMARK   11  A    between atoms: C_31  and  O_32
REMARK   12  A    between atoms: C_31  and  C_33
REMARK   13  A    between atoms: C_37  and  O_38
REMARK   14  A    between atoms: C_41  and  O_42
REMARK   15  A    between atoms: O_42  and  C_43
REMARK   16  A    between atoms: C_46  and  C_54
REMARK   17  A    between atoms: C_48  and  O_53
REMARK   18  A    between atoms: C_50  and  O_52
REMARK   19  A    between atoms: C_54  and  O_55
REMARK   20  A    between atoms: C_56  and  O_58
REMARK                            x       y       z     vdW  Elec       q    Type
REMARK                         _______ _______ _______ _____ _____    ______ ____
ROOT
ATOM      1  C   LIG A   1      -9.049  -2.344 123.575  0.00  0.00    +0.010 C 
ATOM      2  C   LIG A   1      -9.119  -1.726 124.988  0.00  0.00    +0.018 C 
ATOM      3  C   LIG A   1      -8.969  -0.211 124.838  0.00  0.00    +0.007 C 
ATOM      4  C   LIG A   1      -8.964   0.503 126.180  0.00  0.00    +0.019 C 
ATOM      5  C   LIG A   1      -7.843  -0.009 127.110  0.00  0.00    +0.077 C 
ATOM      6  C   LIG A   1      -7.964   0.783 128.416  0.00  0.00    +0.019 C 
ATOM      7  C   LIG A   1      -6.983   0.319 129.475  0.00  0.00    +0.012 C 
ATOM      8  C   LIG A   1      -7.049  -1.192 129.845  0.00  0.00    -0.005 C 
ATOM      9  C   LIG A   1      -5.646  -1.657 130.511  0.00  0.00    -0.019 C 
ATOM     10  C   LIG A   1      -5.085  -0.640 131.542  0.00  0.00    +0.008 C 
ATOM     11  C   LIG A   1      -5.360  -0.942 132.995  0.00  0.00    +0.005 C 
ATOM     12  C   LIG A   1      -4.859  -2.351 133.331  0.00  0.00    +0.008 C 
ATOM     13  C   LIG A   1      -4.486  -2.564 134.843  0.00  0.00    +0.049 C 
ATOM     14  C   LIG A   1      -4.029  -4.035 135.046  0.00  0.00    +0.154 C 
ATOM     15  C   LIG A   1      -4.966  -5.082 134.431  0.00  0.00    +0.144 C 
ATOM     16  C   LIG A   1      -5.204  -4.830 132.940  0.00  0.00    +0.041 C 
ATOM     17  C   LIG A   1      -5.782  -3.414 132.630  0.00  0.00    -0.022 C 
ATOM     18  C   LIG A   1      -5.681  -3.146 131.052  0.00  0.00    +0.006 C 
ATOM     19  C   LIG A   1      -6.536  -4.062 130.141  0.00  0.00    +0.031 C 
ATOM     20  C   LIG A   1      -7.108  -3.441 128.884  0.00  0.00    -0.026 C 
ATOM     21  C   LIG A   1      -7.358  -2.129 128.653  0.00  0.00    -0.060 C 
ATOM     22  C   LIG A   1      -8.095  -1.555 127.389  0.00  0.00    +0.064 C 
ATOM     23  C   LIG A   1      -8.105  -2.368 126.004  0.00  0.00    +0.073 C 
ATOM     24  C   LIG A   1      -8.498  -3.852 126.133  0.00  0.00    +0.042 C 
ATOM     25  C   LIG A   1      -7.239  -3.411 133.151  0.00  0.00    +0.012 C 
ATOM     26  C   LIG A   1      -4.540  -1.685 129.376  0.00  0.00    +0.012 C 
ATOM     27  C   LIG A   1      -8.265  -1.329 130.803  0.00  0.00    +0.016 C 
ENDROOT
BRANCH  23  28
ATOM     28  O   LIG A   1      -6.815  -2.332 125.388  0.00  0.00    -0.388 OA
ATOM     29  H   LIG A   1      -6.898  -2.586 124.439  0.00  0.00    +0.210 HD
ENDBRANCH  23  28
BRANCH  15  30
ATOM     30  O   LIG A   1      -4.364  -6.375 134.577  0.00  0.00    -0.389 OA
ATOM     31  H   LIG A   1      -5.115  -7.003 134.574  0.00  0.00    +0.210 HD
ENDBRANCH  15  30
BRANCH  14  32
ATOM     32  O   LIG A   1      -3.873  -4.361 136.437  0.00  0.00    -0.389 OA
ATOM     33  H   LIG A   1      -4.746  -4.718 136.727  0.00  0.00    +0.210 HD
ENDBRANCH  14  32
BRANCH   5  34
ATOM     34  C   LIG A   1      -6.496   0.268 126.450  0.00  0.00    +0.316 C 
ATOM     35  O   LIG A   1      -5.506  -0.366 126.738  0.00  0.00    -0.250 OA
BRANCH  34  36
ATOM     36  O   LIG A   1      -6.457   1.305 125.537  0.00  0.00    -0.432 OA
BRANCH  36  37
ATOM     37  C   LIG A   1      -5.626   2.447 125.870  0.00  0.00    +0.342 C 
ATOM     38  O   LIG A   1      -6.043   3.139 127.052  0.00  0.00    -0.331 OA
ATOM     39  C   LIG A   1      -7.033   4.155 126.883  0.00  0.00    +0.179 C 
ATOM     40  C   LIG A   1      -7.835   3.970 125.588  0.00  0.00    +0.177 C 
ATOM     41  C   LIG A   1      -6.858   4.175 124.427  0.00  0.00    +0.180 C 
ATOM     42  C   LIG A   1      -5.544   3.400 124.631  0.00  0.00    +0.214 C 
BRANCH  41  43
ATOM     43  O   LIG A   1      -7.498   3.782 123.207  0.00  0.00    -0.386 OA
ATOM     44  H   LIG A   1      -6.793   3.849 122.526  0.00  0.00    +0.210 HD
ENDBRANCH  41  43
BRANCH  40  45
ATOM     45  O   LIG A   1      -8.923   4.880 125.401  0.00  0.00    -0.387 OA
ATOM     46  H   LIG A   1      -9.065   4.953 124.429  0.00  0.00    +0.210 HD
ENDBRANCH  40  45
BRANCH  42  47
ATOM     47  O   LIG A   1      -4.475   4.354 124.817  0.00  0.00    -0.383 OA
ATOM     48  H   LIG A   1      -3.842   4.229 124.086  0.00  0.00    +0.210 HD
ENDBRANCH  42  47
BRANCH  39  49
ATOM     49  C   LIG A   1      -7.912   4.181 128.135  0.00  0.00    +0.190 C 
BRANCH  49  50
ATOM     50  O   LIG A   1      -8.820   5.281 128.091  0.00  0.00    -0.392 OA
ATOM     51  H   LIG A   1      -9.092   5.456 129.011  0.00  0.00    +0.209 HD
ENDBRANCH  49  50
ENDBRANCH  39  49
ENDBRANCH  36  37
ENDBRANCH  34  36
ENDBRANCH   5  34
BRANCH  13  52
ATOM     52  C   LIG A   1      -3.243  -1.667 135.165  0.00  0.00    +0.167 C 
BRANCH  52  53
ATOM     53  O   LIG A   1      -2.153  -2.449 135.658  0.00  0.00    -0.394 OA
ATOM     54  H   LIG A   1      -2.522  -3.335 135.834  0.00  0.00    +0.209 HD
ENDBRANCH  52  53
ENDBRANCH  13  52
BRANCH  13  55
ATOM     55  C   LIG A   1      -5.612  -2.183 135.838  0.00  0.00    +0.167 C 
BRANCH  55  56
ATOM     56  O   LIG A   1      -5.087  -1.776 137.098  0.00  0.00    -0.394 OA
ATOM     57  H   LIG A   1      -5.802  -1.321 137.575  0.00  0.00    +0.209 HD
ENDBRANCH  55  56
ENDBRANCH  13  55
TORSDOF 15
ENDMDL
MODEL 2
REMARK VINA RESULT:      -8.2      3.638      7.375
REMARK  Name = NuBBE_545
REMARK  20 active torsions:
REMARK  status: ('A' for Active; 'I' for Inactive)
REMARK    1  A    between atoms: C_1  and  C_2
REMARK    2  A    between atoms: C_6  and  C_41
REMARK    3  A    between atoms: C_9  and  C_40
REMARK    4  A    between atoms: C_10  and  C_39
REMARK    5  A    between atoms: C_15  and  C_16
REMARK    6  A    between atoms: C_15  and  C_37
REMARK    7  A    between atoms: C_16  and  O_17
REMARK    8  A    between atoms: C_18  and  O_36
REMARK    9  A    between atoms: C_20  and  O_35
REMARK   10  A    between atoms: C_23  and  C_34
REMARK   11  A    between atoms: C_31  and  O_32
REMARK   12  A    between atoms: C_31  and  C_33
REMARK   13  A    between atoms: C_37  and  O_38
REMARK   14  A    between atoms: C_41  and  O_42
REMARK   15  A    between atoms: O_42  and  C_43
REMARK   16  A    between atoms: C_46  and  C_54
REMARK   17  A    between atoms: C_48  and  O_53
REMARK   18  A    between atoms: C_50  and  O_52
REMARK   19  A    between atoms: C_54  and  O_55
REMARK   20  A    between atoms: C_56  and  O_58
REMARK                            x       y       z     vdW  Elec       q    Type
REMARK                         _______ _______ _______ _____ _____    ______ ____
ROOT
ATOM      1  C   LIG A   1      -5.642  -5.254 130.883  0.00  0.00    +0.010 C 
ATOM      2  C   LIG A   1      -6.344  -3.881 130.821  0.00  0.00    +0.018 C 
ATOM      3  C   LIG A   1      -7.279  -3.894 129.611  0.00  0.00    +0.007 C 
ATOM      4  C   LIG A   1      -7.985  -2.562 129.414  0.00  0.00    +0.019 C 
ATOM      5  C   LIG A   1      -6.990  -1.393 129.249  0.00  0.00    +0.077 C 
ATOM      6  C   LIG A   1      -7.834  -0.126 129.073  0.00  0.00    +0.019 C 
ATOM      7  C   LIG A   1      -6.990   1.132 128.998  0.00  0.00    +0.012 C 
ATOM      8  C   LIG A   1      -6.034   1.380 130.201  0.00  0.00    -0.005 C 
ATOM      9  C   LIG A   1      -4.834   2.377 129.755  0.00  0.00    -0.019 C 
ATOM     10  C   LIG A   1      -5.318   3.580 128.901  0.00  0.00    +0.008 C 
ATOM     11  C   LIG A   1      -5.523   4.881 129.637  0.00  0.00    +0.005 C 
ATOM     12  C   LIG A   1      -4.238   5.257 130.384  0.00  0.00    +0.008 C 
ATOM     13  C   LIG A   1      -4.065   6.799 130.640  0.00  0.00    +0.049 C 
ATOM     14  C   LIG A   1      -2.746   7.032 131.429  0.00  0.00    +0.154 C 
ATOM     15  C   LIG A   1      -2.568   6.122 132.651  0.00  0.00    +0.144 C 
ATOM     16  C   LIG A   1      -2.678   4.641 132.281  0.00  0.00    +0.041 C 
ATOM     17  C   LIG A   1      -4.026   4.269 131.588  0.00  0.00    -0.022 C 
ATOM     18  C   LIG A   1      -3.898   2.797 130.962  0.00  0.00    +0.006 C 
ATOM     19  C   LIG A   1      -3.709   1.635 131.968  0.00  0.00    +0.031 C 
ATOM     20  C   LIG A   1      -4.348   0.308 131.613  0.00  0.00    -0.026 C 
ATOM     21  C   LIG A   1      -5.405   0.096 130.793  0.00  0.00    -0.060 C 
ATOM     22  C   LIG A   1      -6.124  -1.286 130.580  0.00  0.00    +0.064 C 
ATOM     23  C   LIG A   1      -5.346  -2.666 130.840  0.00  0.00    +0.073 C 
ATOM     24  C   LIG A   1      -4.598  -2.738 132.185  0.00  0.00    +0.042 C 
ATOM     25  C   LIG A   1      -5.122   4.369 132.675  0.00  0.00    +0.012 C 
ATOM     26  C   LIG A   1      -3.869   1.588 128.775  0.00  0.00    +0.012 C 
ATOM     27  C   LIG A   1      -6.931   1.958 131.330  0.00  0.00    +0.016 C 
ENDROOT
BRANCH  23  28
ATOM     28  O   LIG A   1      -4.378  -2.901 129.814  0.00  0.00    -0.388 OA
ATOM     29  H   LIG A   1      -3.899  -3.742 130.003  0.00  0.00    +0.210 HD
ENDBRANCH  23  28
BRANCH  15  30
ATOM     30  O   LIG A   1      -1.264   6.351 133.203  0.00  0.00    -0.389 OA
ATOM     31  H   LIG A   1      -1.174   5.685 133.915  0.00  0.00    +0.210 HD
ENDBRANCH  15  30
BRANCH  14  32
ATOM     32  O   LIG A   1      -2.625   8.390 131.881  0.00  0.00    -0.389 OA
ATOM     33  H   LIG A   1      -3.488   8.819 131.670  0.00  0.00    +0.210 HD
ENDBRANCH  14  32
BRANCH   5  34
ATOM     34  C   LIG A   1      -6.145  -1.640 128.005  0.00  0.00    +0.316 C 
ATOM     35  O   LIG A   1      -4.954  -1.424 127.992  0.00  0.00    -0.250 OA
BRANCH  34  36
ATOM     36  O   LIG A   1      -6.817  -2.086 126.881  0.00  0.00    -0.432 OA
BRANCH  36  37
ATOM     37  C   LIG A   1      -6.280  -1.693 125.591  0.00  0.00    +0.342 C 
ATOM     38  O   LIG A   1      -6.974  -0.595 124.989  0.00  0.00    -0.331 OA
ATOM     39  C   LIG A   1      -8.118  -0.919 124.196  0.00  0.00    +0.179 C 
ATOM     40  C   LIG A   1      -8.696  -2.295 124.551  0.00  0.00    +0.177 C 
ATOM     41  C   LIG A   1      -7.640  -3.334 124.162  0.00  0.00    +0.180 C 
ATOM     42  C   LIG A   1      -6.234  -2.944 124.652  0.00  0.00    +0.214 C 
BRANCH  41  43
ATOM     43  O   LIG A   1      -8.029  -4.610 124.687  0.00  0.00    -0.386 OA
ATOM     44  H   LIG A   1      -7.354  -4.810 125.372  0.00  0.00    +0.210 HD
ENDBRANCH  41  43
BRANCH  40  45
ATOM     45  O   LIG A   1      -9.911  -2.646 123.882  0.00  0.00    -0.387 OA
ATOM     46  H   LIG A   1     -10.595  -2.758 124.581  0.00  0.00    +0.210 HD
ENDBRANCH  40  45
BRANCH  42  47
ATOM     47  O   LIG A   1      -5.411  -2.661 123.500  0.00  0.00    -0.383 OA
ATOM     48  H   LIG A   1      -5.630  -1.759 123.199  0.00  0.00    +0.210 HD
ENDBRANCH  42  47
BRANCH  39  49
ATOM     49  C   LIG A   1      -9.136   0.214 124.339  0.00  0.00    +0.190 C 
BRANCH  49  50
ATOM     50  O   LIG A   1     -10.082  -0.084 125.365  0.00  0.00    -0.392 OA
ATOM     51  H   LIG A   1     -10.967  -0.004 124.962  0.00  0.00    +0.209 HD
ENDBRANCH  49  50
ENDBRANCH  39  49
ENDBRANCH  36  37
ENDBRANCH  34  36
ENDBRANCH   5  34
BRANCH  13  52
ATOM     52  C   LIG A   1      -3.880   7.502 129.252  0.00  0.00    +0.167 C 
BRANCH  52  53
ATOM     53  O   LIG A   1      -4.146   8.903 129.341  0.00  0.00    -0.394 OA
ATOM     54  H   LIG A   1      -3.819   9.179 130.219  0.00  0.00    +0.209 HD
ENDBRANCH  52  53
ENDBRANCH  13  52
BRANCH  13  55
ATOM     55  C   LIG A   1      -5.270   7.468 131.350  0.00  0.00    +0.167 C 
BRANCH  55  56
ATOM     56  O   LIG A   1      -6.386   7.605 130.476  0.00  0.00    -0.394 OA
ATOM     57  H   LIG A   1      -7.033   6.924 130.727  0.00  0.00    +0.209 HD
ENDBRANCH  55  56
ENDBRANCH  13  55
TORSDOF 15
ENDMDL
MODEL 3
REMARK VINA RESULT:      -8.1      8.681     12.245
REMARK  Name = NuBBE_545
REMARK  20 active torsions:
REMARK  status: ('A' for Active; 'I' for Inactive)
REMARK    1  A    between atoms: C_1  and  C_2
REMARK    2  A    between atoms: C_6  and  C_41
REMARK    3  A    between atoms: C_9  and  C_40
REMARK    4  A    between atoms: C_10  and  C_39
REMARK    5  A    between atoms: C_15  and  C_16
REMARK    6  A    between atoms: C_15  and  C_37
REMARK    7  A    between atoms: C_16  and  O_17
REMARK    8  A    between atoms: C_18  and  O_36
REMARK    9  A    between atoms: C_20  and  O_35
REMARK   10  A    between atoms: C_23  and  C_34
REMARK   11  A    between atoms: C_31  and  O_32
REMARK   12  A    between atoms: C_31  and  C_33
REMARK   13  A    between atoms: C_37  and  O_38
REMARK   14  A    between atoms: C_41  and  O_42
REMARK   15  A    between atoms: O_42  and  C_43
REMARK   16  A    between atoms: C_46  and  C_54
REMARK   17  A    between atoms: C_48  and  O_53
REMARK   18  A    between atoms: C_50  and  O_52
REMARK   19  A    between atoms: C_54  and  O_55
REMARK   20  A    between atoms: C_56  and  O_58
REMARK                            x       y       z     vdW  Elec       q    Type
REMARK                         _______ _______ _______ _____ _____    ______ ____
ROOT
ATOM      1  C   LIG A   1      -2.004   9.582 138.044  0.00  0.00    +0.010 C 
ATOM      2  C   LIG A   1      -1.507   8.603 136.960  0.00  0.00    +0.018 C 
ATOM      3  C   LIG A   1      -0.195   9.156 136.402  0.00  0.00    +0.007 C 
ATOM      4  C   LIG A   1       0.360   8.298 135.277  0.00  0.00    +0.019 C 
ATOM      5  C   LIG A   1      -0.640   8.146 134.111  0.00  0.00    +0.077 C 
ATOM      6  C   LIG A   1       0.043   7.257 133.065  0.00  0.00    +0.019 C 
ATOM      7  C   LIG A   1      -0.863   6.933 131.893  0.00  0.00    +0.012 C 
ATOM      8  C   LIG A   1      -2.222   6.263 132.251  0.00  0.00    -0.005 C 
ATOM      9  C   LIG A   1      -3.284   6.492 131.046  0.00  0.00    -0.019 C 
ATOM     10  C   LIG A   1      -2.672   6.277 129.635  0.00  0.00    +0.008 C 
ATOM     11  C   LIG A   1      -2.921   4.932 128.999  0.00  0.00    +0.005 C 
ATOM     12  C   LIG A   1      -4.427   4.653 128.959  0.00  0.00    +0.008 C 
ATOM     13  C   LIG A   1      -4.876   3.673 127.814  0.00  0.00    +0.049 C 
ATOM     14  C   LIG A   1      -6.411   3.455 127.912  0.00  0.00    +0.154 C 
ATOM     15  C   LIG A   1      -6.917   3.119 129.321  0.00  0.00    +0.144 C 
ATOM     16  C   LIG A   1      -6.491   4.174 130.346  0.00  0.00    +0.041 C 
ATOM     17  C   LIG A   1      -4.947   4.387 130.418  0.00  0.00    -0.022 C 
ATOM     18  C   LIG A   1      -4.647   5.716 131.266  0.00  0.00    +0.006 C 
ATOM     19  C   LIG A   1      -5.050   5.685 132.762  0.00  0.00    +0.031 C 
ATOM     20  C   LIG A   1      -4.164   6.444 133.728  0.00  0.00    -0.026 C 
ATOM     21  C   LIG A   1      -2.859   6.772 133.566  0.00  0.00    -0.060 C 
ATOM     22  C   LIG A   1      -1.945   7.425 134.666  0.00  0.00    +0.064 C 
ATOM     23  C   LIG A   1      -2.585   8.290 135.857  0.00  0.00    +0.073 C 
ATOM     24  C   LIG A   1      -3.765   7.614 136.581  0.00  0.00    +0.042 C 
ATOM     25  C   LIG A   1      -4.357   3.112 131.066  0.00  0.00    +0.012 C 
ATOM     26  C   LIG A   1      -3.706   8.020 131.039  0.00  0.00    +0.012 C 
ATOM     27  C   LIG A   1      -1.890   4.766 132.506  0.00  0.00    +0.016 C 
ENDROOT
BRANCH  23  28
ATOM     28  O   LIG A   1      -3.063   9.547 135.370  0.00  0.00    -0.388 OA
ATOM     29  H   LIG A   1      -3.827   9.394 134.765  0.00  0.00    +0.210 HD
ENDBRANCH  23  28
BRANCH  15  30
ATOM     30  O   LIG A   1      -8.349   3.073 129.292  0.00  0.00    -0.389 OA
ATOM     31  H   LIG A   1      -8.577   2.972 128.345  0.00  0.00    +0.210 HD
ENDBRANCH  15  30
BRANCH  14  32
ATOM     32  O   LIG A   1      -6.862   2.412 127.033  0.00  0.00    -0.389 OA
ATOM     33  H   LIG A   1      -7.683   2.052 127.444  0.00  0.00    +0.210 HD
ENDBRANCH  14  32
BRANCH   5  34
ATOM     34  C   LIG A   1      -0.922   9.525 133.525  0.00  0.00    +0.316 C 
ATOM     35  O   LIG A   1      -2.043   9.978 133.478  0.00  0.00    -0.250 OA
BRANCH  34  36
ATOM     36  O   LIG A   1       0.164  10.213 133.015  0.00  0.00    -0.432 OA
BRANCH  36  37
ATOM     37  C   LIG A   1       0.649  11.345 133.784  0.00  0.00    +0.342 C 
ATOM     38  O   LIG A   1      -0.393  12.125 134.380  0.00  0.00    -0.331 OA
ATOM     39  C   LIG A   1      -0.957  13.162 133.574  0.00  0.00    +0.179 C 
ATOM     40  C   LIG A   1      -0.723  12.922 132.077  0.00  0.00    +0.177 C 
ATOM     41  C   LIG A   1       0.787  13.017 131.843  0.00  0.00    +0.180 C 
ATOM     42  C   LIG A   1       1.589  12.212 132.881  0.00  0.00    +0.214 C 
BRANCH  41  43
ATOM     43  O   LIG A   1       1.080  12.570 130.513  0.00  0.00    -0.386 OA
ATOM     44  H   LIG A   1       2.061  12.575 130.461  0.00  0.00    +0.210 HD
ENDBRANCH  41  43
BRANCH  40  45
ATOM     45  O   LIG A   1      -1.355  13.855 131.196  0.00  0.00    -0.387 OA
ATOM     46  H   LIG A   1      -2.312  13.857 131.428  0.00  0.00    +0.210 HD
ENDBRANCH  40  45
BRANCH  42  47
ATOM     47  O   LIG A   1       2.335  13.139 133.700  0.00  0.00    -0.383 OA
ATOM     48  H   LIG A   1       2.181  14.034 133.343  0.00  0.00    +0.210 HD
ENDBRANCH  42  47
BRANCH  39  49
ATOM     49  C   LIG A   1      -2.437  13.299 133.936  0.00  0.00    +0.190 C 
BRANCH  49  50
ATOM     50  O   LIG A   1      -3.242  12.492 133.078  0.00  0.00    -0.392 OA
ATOM     51  H   LIG A   1      -3.242  11.593 133.458  0.00  0.00    +0.209 HD
ENDBRANCH  49  50
ENDBRANCH  39  49
ENDBRANCH  36  37
ENDBRANCH  34  36
ENDBRANCH   5  34
BRANCH  13  52
ATOM     52  C   LIG A   1      -4.617   4.383 126.441  0.00  0.00    +0.167 C 
BRANCH  52  53
ATOM     53  O   LIG A   1      -5.734   5.187 126.055  0.00  0.00    -0.394 OA
ATOM     54  H   LIG A   1      -6.479   4.888 126.610  0.00  0.00    +0.209 HD
ENDBRANCH  52  53
ENDBRANCH  13  52
BRANCH  13  55
ATOM     55  C   LIG A   1      -4.116   2.322 127.796  0.00  0.00    +0.167 C 
BRANCH  55  56
ATOM     56  O   LIG A   1      -4.012   1.794 126.477  0.00  0.00    -0.394 OA
ATOM     57  H   LIG A   1      -3.733   2.522 125.897  0.00  0.00    +0.209 HD
ENDBRANCH  55  56
ENDBRANCH  13  55
TORSDOF 15
ENDMDL
MODEL 4
REMARK VINA RESULT:      -7.9      2.971      8.844
REMARK  Name = NuBBE_545
REMARK  20 active torsions:
REMARK  status: ('A' for Active; 'I' for Inactive)
REMARK    1  A    between atoms: C_1  and  C_2
REMARK    2  A    between atoms: C_6  and  C_41
REMARK    3  A    between atoms: C_9  and  C_40
REMARK    4  A    between atoms: C_10  and  C_39
REMARK    5  A    between atoms: C_15  and  C_16
REMARK    6  A    between atoms: C_15  and  C_37
REMARK    7  A    between atoms: C_16  and  O_17
REMARK    8  A    between atoms: C_18  and  O_36
REMARK    9  A    between atoms: C_20  and  O_35
REMARK   10  A    between atoms: C_23  and  C_34
REMARK   11  A    between atoms: C_31  and  O_32
REMARK   12  A    between atoms: C_31  and  C_33
REMARK   13  A    between atoms: C_37  and  O_38
REMARK   14  A    between atoms: C_41  and  O_42
REMARK   15  A    between atoms: O_42  and  C_43
REMARK   16  A    between atoms: C_46  and  C_54
REMARK   17  A    between atoms: C_48  and  O_53
REMARK   18  A    between atoms: C_50  and  O_52
REMARK   19  A    between atoms: C_54  and  O_55
REMARK   20  A    between atoms: C_56  and  O_58
REMARK                            x       y       z     vdW  Elec       q    Type
REMARK                         _______ _______ _______ _____ _____    ______ ____
ROOT
ATOM      1  C   LIG A   1      -4.720  -4.167 135.713  0.00  0.00    +0.010 C 
ATOM      2  C   LIG A   1      -4.301  -3.391 134.446  0.00  0.00    +0.018 C 
ATOM      3  C   LIG A   1      -3.754  -2.034 134.895  0.00  0.00    +0.007 C 
ATOM      4  C   LIG A   1      -3.363  -1.154 133.720  0.00  0.00    +0.019 C 
ATOM      5  C   LIG A   1      -4.542  -0.910 132.754  0.00  0.00    +0.077 C 
ATOM      6  C   LIG A   1      -4.003  -0.026 131.623  0.00  0.00    +0.019 C 
ATOM      7  C   LIG A   1      -5.030   0.220 130.534  0.00  0.00    +0.012 C 
ATOM      8  C   LIG A   1      -5.636  -1.053 129.874  0.00  0.00    -0.005 C 
ATOM      9  C   LIG A   1      -7.060  -0.691 129.186  0.00  0.00    -0.019 C 
ATOM     10  C   LIG A   1      -7.042   0.647 128.397  0.00  0.00    +0.008 C 
ATOM     11  C   LIG A   1      -6.855   0.538 126.904  0.00  0.00    +0.005 C 
ATOM     12  C   LIG A   1      -7.922  -0.395 126.319  0.00  0.00    +0.008 C 
ATOM     13  C   LIG A   1      -8.268  -0.120 124.810  0.00  0.00    +0.049 C 
ATOM     14  C   LIG A   1      -9.331  -1.153 124.342  0.00  0.00    +0.154 C 
ATOM     15  C   LIG A   1      -9.006  -2.607 124.703  0.00  0.00    +0.144 C 
ATOM     16  C   LIG A   1      -8.761  -2.782 126.205  0.00  0.00    +0.041 C 
ATOM     17  C   LIG A   1      -7.621  -1.873 126.761  0.00  0.00    -0.022 C 
ATOM     18  C   LIG A   1      -7.675  -1.898 128.364  0.00  0.00    +0.006 C 
ATOM     19  C   LIG A   1      -7.379  -3.258 129.043  0.00  0.00    +0.031 C 
ATOM     20  C   LIG A   1      -6.656  -3.219 130.374  0.00  0.00    -0.026 C 
ATOM     21  C   LIG A   1      -5.852  -2.236 130.847  0.00  0.00    -0.060 C 
ATOM     22  C   LIG A   1      -5.004  -2.315 132.168  0.00  0.00    +0.064 C 
ATOM     23  C   LIG A   1      -5.439  -3.292 133.366  0.00  0.00    +0.073 C 
ATOM     24  C   LIG A   1      -5.756  -4.737 132.934  0.00  0.00    +0.042 C 
ATOM     25  C   LIG A   1      -6.296  -2.435 126.193  0.00  0.00    +0.012 C 
ATOM     26  C   LIG A   1      -8.118  -0.429 130.338  0.00  0.00    +0.012 C 
ATOM     27  C   LIG A   1      -4.565  -1.542 128.859  0.00  0.00    +0.016 C 
ENDROOT
BRANCH  23  28
ATOM     28  O   LIG A   1      -6.603  -2.792 134.028  0.00  0.00    -0.388 OA
ATOM     29  H   LIG A   1      -6.512  -1.819 134.161  0.00  0.00    +0.210 HD
ENDBRANCH  23  28
BRANCH  15  30
ATOM     30  O   LIG A   1     -10.120  -3.429 124.332  0.00  0.00    -0.389 OA
ATOM     31  H   LIG A   1     -10.225  -3.287 123.369  0.00  0.00    +0.210 HD
ENDBRANCH  15  30
BRANCH  14  32
ATOM     32  O   LIG A   1      -9.543  -1.097 122.923  0.00  0.00    -0.389 OA
ATOM     33  H   LIG A   1      -8.887  -1.723 122.531  0.00  0.00    +0.210 HD
ENDBRANCH  14  32
BRANCH   5  34
ATOM     34  C   LIG A   1      -5.650  -0.183 133.507  0.00  0.00    +0.316 C 
ATOM     35  O   LIG A   1      -6.816  -0.468 133.353  0.00  0.00    -0.250 OA
BRANCH  34  36
ATOM     36  O   LIG A   1      -5.256   0.843 134.346  0.00  0.00    -0.432 OA
BRANCH  36  37
ATOM     37  C   LIG A   1      -5.976   2.099 134.237  0.00  0.00    +0.342 C 
ATOM     38  O   LIG A   1      -5.814   2.749 132.971  0.00  0.00    -0.331 OA
ATOM     39  C   LIG A   1      -4.682   3.610 132.836  0.00  0.00    +0.179 C 
ATOM     40  C   LIG A   1      -3.584   3.287 133.857  0.00  0.00    +0.177 C 
ATOM     41  C   LIG A   1      -4.157   3.603 135.241  0.00  0.00    +0.180 C 
ATOM     42  C   LIG A   1      -5.571   3.027 135.430  0.00  0.00    +0.214 C 
BRANCH  41  43
ATOM     43  O   LIG A   1      -3.262   3.099 136.240  0.00  0.00    -0.386 OA
ATOM     44  H   LIG A   1      -3.354   2.122 136.183  0.00  0.00    +0.210 HD
ENDBRANCH  41  43
BRANCH  40  45
ATOM     45  O   LIG A   1      -2.370   4.029 133.713  0.00  0.00    -0.387 OA
ATOM     46  H   LIG A   1      -1.932   4.027 134.596  0.00  0.00    +0.210 HD
ENDBRANCH  40  45
BRANCH  42  47
ATOM     47  O   LIG A   1      -6.502   4.127 135.532  0.00  0.00    -0.383 OA
ATOM     48  H   LIG A   1      -7.063   4.109 134.734  0.00  0.00    +0.210 HD
ENDBRANCH  42  47
BRANCH  39  49
ATOM     49  C   LIG A   1      -4.195   3.537 131.387  0.00  0.00    +0.190 C 
BRANCH  49  50
ATOM     50  O   LIG A   1      -3.374   4.662 131.074  0.00  0.00    -0.392 OA
ATOM     51  H   LIG A   1      -3.161   5.096 131.921  0.00  0.00    +0.209 HD
ENDBRANCH  49  50
ENDBRANCH  39  49
ENDBRANCH  36  37
ENDBRANCH  34  36
ENDBRANCH   5  34
BRANCH  13  52
ATOM     52  C   LIG A   1      -8.949   1.288 124.720  0.00  0.00    +0.167 C 
BRANCH  52  53
ATOM     53  O   LIG A   1     -10.362   1.169 124.538  0.00  0.00    -0.394 OA
ATOM     54  H   LIG A   1     -10.604   1.859 123.891  0.00  0.00    +0.209 HD
ENDBRANCH  52  53
ENDBRANCH  13  52
BRANCH  13  55
ATOM     55  C   LIG A   1      -7.040  -0.111 123.865  0.00  0.00    +0.167 C 
BRANCH  55  56
ATOM     56  O   LIG A   1      -7.075   0.994 122.966  0.00  0.00    -0.394 OA
ATOM     57  H   LIG A   1      -6.795   0.665 122.095  0.00  0.00    +0.209 HD
ENDBRANCH  55  56
ENDBRANCH  13  55
TORSDOF 15
ENDMDL
MODEL 5
REMARK VINA RESULT:      -7.7      2.426      4.994
REMARK  Name = NuBBE_545
REMARK  20 active torsions:
REMARK  status: ('A' for Active; 'I' for Inactive)
REMARK    1  A    between atoms: C_1  and  C_2
REMARK    2  A    between atoms: C_6  and  C_41
REMARK    3  A    between atoms: C_9  and  C_40
REMARK    4  A    between atoms: C_10  and  C_39
REMARK    5  A    between atoms: C_15  and  C_16
REMARK    6  A    between atoms: C_15  and  C_37
REMARK    7  A    between atoms: C_16  and  O_17
REMARK    8  A    between atoms: C_18  and  O_36
REMARK    9  A    between atoms: C_20  and  O_35
REMARK   10  A    between atoms: C_23  and  C_34
REMARK   11  A    between atoms: C_31  and  O_32
REMARK   12  A    between atoms: C_31  and  C_33
REMARK   13  A    between atoms: C_37  and  O_38
REMARK   14  A    between atoms: C_41  and  O_42
REMARK   15  A    between atoms: O_42  and  C_43
REMARK   16  A    between atoms: C_46  and  C_54
REMARK   17  A    between atoms: C_48  and  O_53
REMARK   18  A    between atoms: C_50  and  O_52
REMARK   19  A    between atoms: C_54  and  O_55
REMARK   20  A    between atoms: C_56  and  O_58
REMARK                            x       y       z     vdW  Elec       q    Type
REMARK                         _______ _______ _______ _____ _____    ______ ____
ROOT
ATOM      1  C   LIG A   1      -3.097   5.931 127.908  0.00  0.00    +0.010 C 
ATOM      2  C   LIG A   1      -3.174   4.396 128.050  0.00  0.00    +0.018 C 
ATOM      3  C   LIG A   1      -3.778   3.842 126.758  0.00  0.00    +0.007 C 
ATOM      4  C   LIG A   1      -3.958   2.334 126.807  0.00  0.00    +0.019 C 
ATOM      5  C   LIG A   1      -4.845   1.889 127.990  0.00  0.00    +0.077 C 
ATOM      6  C   LIG A   1      -4.928   0.360 127.921  0.00  0.00    +0.019 C 
ATOM      7  C   LIG A   1      -5.692  -0.236 129.087  0.00  0.00    +0.012 C 
ATOM      8  C   LIG A   1      -5.163   0.132 130.504  0.00  0.00    -0.005 C 
ATOM      9  C   LIG A   1      -6.340  -0.069 131.602  0.00  0.00    -0.019 C 
ATOM     10  C   LIG A   1      -7.151  -1.379 131.404  0.00  0.00    +0.008 C 
ATOM     11  C   LIG A   1      -6.754  -2.546 132.273  0.00  0.00    +0.005 C 
ATOM     12  C   LIG A   1      -6.797  -2.127 133.747  0.00  0.00    +0.008 C 
ATOM     13  C   LIG A   1      -7.043  -3.312 134.752  0.00  0.00    +0.049 C 
ATOM     14  C   LIG A   1      -7.029  -2.752 136.201  0.00  0.00    +0.154 C 
ATOM     15  C   LIG A   1      -5.839  -1.838 136.518  0.00  0.00    +0.144 C 
ATOM     16  C   LIG A   1      -5.733  -0.675 135.528  0.00  0.00    +0.041 C 
ATOM     17  C   LIG A   1      -5.618  -1.130 134.040  0.00  0.00    -0.022 C 
ATOM     18  C   LIG A   1      -5.842   0.144 133.091  0.00  0.00    +0.006 C 
ATOM     19  C   LIG A   1      -4.778   1.266 133.180  0.00  0.00    +0.031 C 
ATOM     20  C   LIG A   1      -4.457   2.012 131.901  0.00  0.00    -0.026 C 
ATOM     21  C   LIG A   1      -4.622   1.576 130.629  0.00  0.00    -0.060 C 
ATOM     22  C   LIG A   1      -4.130   2.332 129.341  0.00  0.00    +0.064 C 
ATOM     23  C   LIG A   1      -3.917   3.923 129.353  0.00  0.00    +0.073 C 
ATOM     24  C   LIG A   1      -3.091   4.453 130.541  0.00  0.00    +0.042 C 
ATOM     25  C   LIG A   1      -4.215  -1.761 133.882  0.00  0.00    +0.012 C 
ATOM     26  C   LIG A   1      -7.420   1.072 131.389  0.00  0.00    +0.012 C 
ATOM     27  C   LIG A   1      -3.934  -0.790 130.739  0.00  0.00    +0.016 C 
ENDROOT
BRANCH  23  28
ATOM     28  O   LIG A   1      -5.175   4.601 129.387  0.00  0.00    -0.388 OA
ATOM     29  H   LIG A   1      -5.904   3.944 129.285  0.00  0.00    +0.210 HD
ENDBRANCH  23  28
BRANCH  15  30
ATOM     30  O   LIG A   1      -6.019  -1.295 137.833  0.00  0.00    -0.389 OA
ATOM     31  H   LIG A   1      -5.568  -0.426 137.808  0.00  0.00    +0.210 HD
ENDBRANCH  15  30
BRANCH  14  32
ATOM     32  O   LIG A   1      -7.039  -3.803 137.181  0.00  0.00    -0.389 OA
ATOM     33  H   LIG A   1      -7.773  -3.581 137.803  0.00  0.00    +0.210 HD
ENDBRANCH  14  32
BRANCH   5  34
ATOM     34  C   LIG A   1      -6.231   2.500 127.819  0.00  0.00    +0.316 C 
ATOM     35  O   LIG A   1      -6.823   3.002 128.748  0.00  0.00    -0.250 OA
BRANCH  34  36
ATOM     36  O   LIG A   1      -6.792   2.415 126.558  0.00  0.00    -0.432 OA
BRANCH  36  37
ATOM     37  C   LIG A   1      -7.844   3.362 126.238  0.00  0.00    +0.342 C 
ATOM     38  O   LIG A   1      -8.963   2.774 125.565  0.00  0.00    -0.331 OA
ATOM     39  C   LIG A   1      -8.878   2.685 124.142  0.00  0.00    +0.179 C 
ATOM     40  C   LIG A   1      -7.428   2.747 123.644  0.00  0.00    +0.177 C 
ATOM     41  C   LIG A   1      -6.902   4.144 123.984  0.00  0.00    +0.180 C 
ATOM     42  C   LIG A   1      -7.233   4.555 125.430  0.00  0.00    +0.214 C 
BRANCH  41  43
ATOM     43  O   LIG A   1      -5.487   4.175 123.755  0.00  0.00    -0.386 OA
ATOM     44  H   LIG A   1      -5.217   5.085 124.007  0.00  0.00    +0.210 HD
ENDBRANCH  41  43
BRANCH  40  45
ATOM     45  O   LIG A   1      -7.249   2.549 122.239  0.00  0.00    -0.387 OA
ATOM     46  H   LIG A   1      -7.859   3.176 121.786  0.00  0.00    +0.210 HD
ENDBRANCH  40  45
BRANCH  42  47
ATOM     47  O   LIG A   1      -8.173   5.651 125.389  0.00  0.00    -0.383 OA
ATOM     48  H   LIG A   1      -8.685   5.566 124.564  0.00  0.00    +0.210 HD
ENDBRANCH  42  47
BRANCH  39  49
ATOM     49  C   LIG A   1      -9.612   1.418 123.697  0.00  0.00    +0.190 C 
BRANCH  49  50
ATOM     50  O   LIG A   1     -10.991   1.482 124.060  0.00  0.00    -0.392 OA
ATOM     51  H   LIG A   1     -11.415   0.687 123.686  0.00  0.00    +0.209 HD
ENDBRANCH  49  50
ENDBRANCH  39  49
ENDBRANCH  36  37
ENDBRANCH  34  36
ENDBRANCH   5  34
BRANCH  13  52
ATOM     52  C   LIG A   1      -8.489  -3.863 134.504  0.00  0.00    +0.167 C 
BRANCH  52  53
ATOM     53  O   LIG A   1      -9.197  -4.031 135.734  0.00  0.00    -0.394 OA
ATOM     54  H   LIG A   1     -10.141  -4.086 135.491  0.00  0.00    +0.209 HD
ENDBRANCH  52  53
ENDBRANCH  13  52
BRANCH  13  55
ATOM     55  C   LIG A   1      -6.055  -4.496 134.597  0.00  0.00    +0.167 C 
BRANCH  55  56
ATOM     56  O   LIG A   1      -6.674  -5.743 134.900  0.00  0.00    -0.394 OA
ATOM     57  H   LIG A   1      -5.980  -6.423 134.872  0.00  0.00    +0.209 HD
ENDBRANCH  55  56
ENDBRANCH  13  55
TORSDOF 15
ENDMDL
MODEL 6
REMARK VINA RESULT:      -7.7      2.427      9.933
REMARK  Name = NuBBE_545
REMARK  20 active torsions:
REMARK  status: ('A' for Active; 'I' for Inactive)
REMARK    1  A    between atoms: C_1  and  C_2
REMARK    2  A    between atoms: C_6  and  C_41
REMARK    3  A    between atoms: C_9  and  C_40
REMARK    4  A    between atoms: C_10  and  C_39
REMARK    5  A    between atoms: C_15  and  C_16
REMARK    6  A    between atoms: C_15  and  C_37
REMARK    7  A    between atoms: C_16  and  O_17
REMARK    8  A    between atoms: C_18  and  O_36
REMARK    9  A    between atoms: C_20  and  O_35
REMARK   10  A    between atoms: C_23  and  C_34
REMARK   11  A    between atoms: C_31  and  O_32
REMARK   12  A    between atoms: C_31  and  C_33
REMARK   13  A    between atoms: C_37  and  O_38
REMARK   14  A    between atoms: C_41  and  O_42
REMARK   15  A    between atoms: O_42  and  C_43
REMARK   16  A    between atoms: C_46  and  C_54
REMARK   17  A    between atoms: C_48  and  O_53
REMARK   18  A    between atoms: C_50  and  O_52
REMARK   19  A    between atoms: C_54  and  O_55
REMARK   20  A    between atoms: C_56  and  O_58
REMARK                            x       y       z     vdW  Elec       q    Type
REMARK                         _______ _______ _______ _____ _____    ______ ____
ROOT
ATOM      1  C   LIG A   1      -6.915  -5.862 136.088  0.00  0.00    +0.010 C 
ATOM      2  C   LIG A   1      -6.510  -5.492 134.646  0.00  0.00    +0.018 C 
ATOM      3  C   LIG A   1      -5.075  -5.976 134.430  0.00  0.00    +0.007 C 
ATOM      4  C   LIG A   1      -4.545  -5.611 133.053  0.00  0.00    +0.019 C 
ATOM      5  C   LIG A   1      -4.593  -4.090 132.793  0.00  0.00    +0.077 C 
ATOM      6  C   LIG A   1      -4.045  -3.872 131.378  0.00  0.00    +0.019 C 
ATOM      7  C   LIG A   1      -4.121  -2.423 130.938  0.00  0.00    +0.012 C 
ATOM      8  C   LIG A   1      -5.534  -1.772 130.990  0.00  0.00    -0.005 C 
ATOM      9  C   LIG A   1      -5.395  -0.158 131.058  0.00  0.00    -0.019 C 
ATOM     10  C   LIG A   1      -4.325   0.411 130.086  0.00  0.00    +0.008 C 
ATOM     11  C   LIG A   1      -4.837   0.958 128.777  0.00  0.00    +0.005 C 
ATOM     12  C   LIG A   1      -5.909   2.020 129.047  0.00  0.00    +0.008 C 
ATOM     13  C   LIG A   1      -6.063   3.091 127.906  0.00  0.00    +0.049 C 
ATOM     14  C   LIG A   1      -7.199   4.078 128.294  0.00  0.00    +0.154 C 
ATOM     15  C   LIG A   1      -8.494   3.403 128.763  0.00  0.00    +0.144 C 
ATOM     16  C   LIG A   1      -8.247   2.438 129.925  0.00  0.00    +0.041 C 
ATOM     17  C   LIG A   1      -7.205   1.323 129.600  0.00  0.00    -0.022 C 
ATOM     18  C   LIG A   1      -6.789   0.589 130.965  0.00  0.00    +0.006 C 
ATOM     19  C   LIG A   1      -7.907  -0.201 131.691  0.00  0.00    +0.031 C 
ATOM     20  C   LIG A   1      -7.495  -1.463 132.420  0.00  0.00    -0.026 C 
ATOM     21  C   LIG A   1      -6.409  -2.237 132.178  0.00  0.00    -0.060 C 
ATOM     22  C   LIG A   1      -6.111  -3.620 132.864  0.00  0.00    +0.064 C 
ATOM     23  C   LIG A   1      -6.728  -3.973 134.304  0.00  0.00    +0.073 C 
ATOM     24  C   LIG A   1      -8.240  -3.708 134.438  0.00  0.00    +0.042 C 
ATOM     25  C   LIG A   1      -7.882   0.372 128.585  0.00  0.00    +0.012 C 
ATOM     26  C   LIG A   1      -4.842   0.235 132.491  0.00  0.00    +0.012 C 
ATOM     27  C   LIG A   1      -6.268  -2.276 129.716  0.00  0.00    +0.016 C 
ENDROOT
BRANCH  23  28
ATOM     28  O   LIG A   1      -6.082  -3.215 135.330  0.00  0.00    -0.388 OA
ATOM     29  H   LIG A   1      -6.383  -3.537 136.212  0.00  0.00    +0.210 HD
ENDBRANCH  23  28
BRANCH  15  30
ATOM     30  O   LIG A   1      -9.402   4.420 129.208  0.00  0.00    -0.389 OA
ATOM     31  H   LIG A   1     -10.287   4.098 128.943  0.00  0.00    +0.210 HD
ENDBRANCH  15  30
BRANCH  14  32
ATOM     32  O   LIG A   1      -7.538   4.957 127.210  0.00  0.00    -0.389 OA
ATOM     33  H   LIG A   1      -7.389   5.871 127.551  0.00  0.00    +0.210 HD
ENDBRANCH  14  32
BRANCH   5  34
ATOM     34  C   LIG A   1      -3.702  -3.391 133.815  0.00  0.00    +0.316 C 
ATOM     35  O   LIG A   1      -4.081  -2.418 134.427  0.00  0.00    -0.250 OA
BRANCH  34  36
ATOM     36  O   LIG A   1      -2.428  -3.903 133.976  0.00  0.00    -0.432 OA
BRANCH  36  37
ATOM     37  C   LIG A   1      -2.067  -4.371 135.301  0.00  0.00    +0.342 C 
ATOM     38  O   LIG A   1      -2.427  -3.465 136.350  0.00  0.00    -0.331 OA
ATOM     39  C   LIG A   1      -1.480  -2.442 136.665  0.00  0.00    +0.179 C 
ATOM     40  C   LIG A   1      -0.509  -2.176 135.507  0.00  0.00    +0.177 C 
ATOM     41  C   LIG A   1       0.327  -3.446 135.328  0.00  0.00    +0.180 C 
ATOM     42  C   LIG A   1      -0.541  -4.718 135.324  0.00  0.00    +0.214 C 
BRANCH  41  43
ATOM     43  O   LIG A   1       1.081  -3.339 134.115  0.00  0.00    -0.386 OA
ATOM     44  H   LIG A   1       0.902  -4.179 133.638  0.00  0.00    +0.210 HD
ENDBRANCH  41  43
BRANCH  40  45
ATOM     45  O   LIG A   1       0.397  -1.087 135.699  0.00  0.00    -0.387 OA
ATOM     46  H   LIG A   1      -0.146  -0.312 135.970  0.00  0.00    +0.210 HD
ENDBRANCH  40  45
BRANCH  42  47
ATOM     47  O   LIG A   1      -0.231  -5.486 136.508  0.00  0.00    -0.383 OA
ATOM     48  H   LIG A   1      -0.011  -6.391 136.219  0.00  0.00    +0.210 HD
ENDBRANCH  42  47
BRANCH  39  49
ATOM     49  C   LIG A   1      -2.251  -1.194 137.100  0.00  0.00    +0.190 C 
BRANCH  49  50
ATOM     50  O   LIG A   1      -2.598  -0.395 135.969  0.00  0.00    -0.392 OA
ATOM     51  H   LIG A   1      -2.037  -0.699 135.231  0.00  0.00    +0.209 HD
ENDBRANCH  49  50
ENDBRANCH  39  49
ENDBRANCH  36  37
ENDBRANCH  34  36
ENDBRANCH   5  34
BRANCH  13  52
ATOM     52  C   LIG A   1      -4.743   3.934 127.854  0.00  0.00    +0.167 C 
BRANCH  52  53
ATOM     53  O   LIG A   1      -5.025   5.331 127.752  0.00  0.00    -0.394 OA
ATOM     54  H   LIG A   1      -5.921   5.393 127.368  0.00  0.00    +0.209 HD
ENDBRANCH  52  53
ENDBRANCH  13  52
BRANCH  13  55
ATOM     55  C   LIG A   1      -6.296   2.492 126.495  0.00  0.00    +0.167 C 
BRANCH  55  56
ATOM     56  O   LIG A   1      -5.784   3.341 125.472  0.00  0.00    -0.394 OA
ATOM     57  H   LIG A   1      -5.054   2.864 125.041  0.00  0.00    +0.209 HD
ENDBRANCH  55  56
ENDBRANCH  13  55
TORSDOF 15
ENDMDL
MODEL 7
REMARK VINA RESULT:      -7.7      9.037     12.588
REMARK  Name = NuBBE_545
REMARK  20 active torsions:
REMARK  status: ('A' for Active; 'I' for Inactive)
REMARK    1  A    between atoms: C_1  and  C_2
REMARK    2  A    between atoms: C_6  and  C_41
REMARK    3  A    between atoms: C_9  and  C_40
REMARK    4  A    between atoms: C_10  and  C_39
REMARK    5  A    between atoms: C_15  and  C_16
REMARK    6  A    between atoms: C_15  and  C_37
REMARK    7  A    between atoms: C_16  and  O_17
REMARK    8  A    between atoms: C_18  and  O_36
REMARK    9  A    between atoms: C_20  and  O_35
REMARK   10  A    between atoms: C_23  and  C_34
REMARK   11  A    between atoms: C_31  and  O_32
REMARK   12  A    between atoms: C_31  and  C_33
REMARK   13  A    between atoms: C_37  and  O_38
REMARK   14  A    between atoms: C_41  and  O_42
REMARK   15  A    between atoms: O_42  and  C_43
REMARK   16  A    between atoms: C_46  and  C_54
REMARK   17  A    between atoms: C_48  and  O_53
REMARK   18  A    between atoms: C_50  and  O_52
REMARK   19  A    between atoms: C_54  and  O_55
REMARK   20  A    between atoms: C_56  and  O_58
REMARK                            x       y       z     vdW  Elec       q    Type
REMARK                         _______ _______ _______ _____ _____    ______ ____
ROOT
ATOM      1  C   LIG A   1      -1.995   9.811 137.818  0.00  0.00    +0.010 C 
ATOM      2  C   LIG A   1      -1.528   8.768 136.780  0.00  0.00    +0.018 C 
ATOM      3  C   LIG A   1      -0.191   9.246 136.212  0.00  0.00    +0.007 C 
ATOM      4  C   LIG A   1       0.340   8.321 135.130  0.00  0.00    +0.019 C 
ATOM      5  C   LIG A   1      -0.657   8.156 133.962  0.00  0.00    +0.077 C 
ATOM      6  C   LIG A   1      -0.000   7.198 132.962  0.00  0.00    +0.019 C 
ATOM      7  C   LIG A   1      -0.909   6.858 131.796  0.00  0.00    +0.012 C 
ATOM      8  C   LIG A   1      -2.295   6.255 132.170  0.00  0.00    -0.005 C 
ATOM      9  C   LIG A   1      -3.338   6.473 130.947  0.00  0.00    -0.019 C 
ATOM     10  C   LIG A   1      -2.724   6.174 129.552  0.00  0.00    +0.008 C 
ATOM     11  C   LIG A   1      -3.019   4.813 128.971  0.00  0.00    +0.005 C 
ATOM     12  C   LIG A   1      -4.535   4.590 128.929  0.00  0.00    +0.008 C 
ATOM     13  C   LIG A   1      -5.011   3.579 127.823  0.00  0.00    +0.049 C 
ATOM     14  C   LIG A   1      -6.555   3.424 127.916  0.00  0.00    +0.154 C 
ATOM     15  C   LIG A   1      -7.083   3.168 129.333  0.00  0.00    +0.144 C 
ATOM     16  C   LIG A   1      -6.626   4.249 130.316  0.00  0.00    +0.041 C 
ATOM     17  C   LIG A   1      -5.076   4.407 130.394  0.00  0.00    -0.022 C 
ATOM     18  C   LIG A   1      -4.731   5.758 131.187  0.00  0.00    +0.006 C 
ATOM     19  C   LIG A   1      -5.146   5.807 132.678  0.00  0.00    +0.031 C 
ATOM     20  C   LIG A   1      -4.240   6.573 133.619  0.00  0.00    -0.026 C 
ATOM     21  C   LIG A   1      -2.922   6.844 133.456  0.00  0.00    -0.060 C 
ATOM     22  C   LIG A   1      -1.992   7.510 134.535  0.00  0.00    +0.064 C 
ATOM     23  C   LIG A   1      -2.608   8.449 135.682  0.00  0.00    +0.073 C 
ATOM     24  C   LIG A   1      -3.818   7.849 136.424  0.00  0.00    +0.042 C 
ATOM     25  C   LIG A   1      -4.540   3.139 131.101  0.00  0.00    +0.012 C 
ATOM     26  C   LIG A   1      -3.702   8.014 130.870  0.00  0.00    +0.012 C 
ATOM     27  C   LIG A   1      -2.022   4.760 132.491  0.00  0.00    +0.016 C 
ENDROOT
BRANCH  23  28
ATOM     28  O   LIG A   1      -3.034   9.700 135.138  0.00  0.00    -0.388 OA
ATOM     29  H   LIG A   1      -4.006   9.672 134.973  0.00  0.00    +0.210 HD
ENDBRANCH  23  28
BRANCH  15  30
ATOM     30  O   LIG A   1      -8.516   3.175 129.293  0.00  0.00    -0.389 OA
ATOM     31  H   LIG A   1      -8.793   2.918 130.196  0.00  0.00    +0.210 HD
ENDBRANCH  15  30
BRANCH  14  32
ATOM     32  O   LIG A   1      -7.038   2.362 127.078  0.00  0.00    -0.389 OA
ATOM     33  H   LIG A   1      -7.354   1.658 127.694  0.00  0.00    +0.210 HD
ENDBRANCH  14  32
BRANCH   5  34
ATOM     34  C   LIG A   1      -0.881   9.519 133.315  0.00  0.00    +0.316 C 
ATOM     35  O   LIG A   1      -1.894   9.771 132.701  0.00  0.00    -0.250 OA
BRANCH  34  36
ATOM     36  O   LIG A   1       0.147  10.435 133.433  0.00  0.00    -0.432 OA
BRANCH  36  37
ATOM     37  C   LIG A   1       0.031  11.661 132.663  0.00  0.00    +0.342 C 
ATOM     38  O   LIG A   1       1.210  12.473 132.693  0.00  0.00    -0.331 OA
ATOM     39  C   LIG A   1       1.323  13.395 133.779  0.00  0.00    +0.179 C 
ATOM     40  C   LIG A   1       0.447  12.994 134.972  0.00  0.00    +0.177 C 
ATOM     41  C   LIG A   1      -1.009  13.105 134.511  0.00  0.00    +0.180 C 
ATOM     42  C   LIG A   1      -1.236  12.446 133.139  0.00  0.00    +0.214 C 
BRANCH  41  43
ATOM     43  O   LIG A   1      -1.857  12.518 135.506  0.00  0.00    -0.386 OA
ATOM     44  H   LIG A   1      -2.590  12.110 134.995  0.00  0.00    +0.210 HD
ENDBRANCH  41  43
BRANCH  40  45
ATOM     45  O   LIG A   1       0.591  13.802 136.143  0.00  0.00    -0.387 OA
ATOM     46  H   LIG A   1       0.643  14.736 135.836  0.00  0.00    +0.210 HD
ENDBRANCH  40  45
BRANCH  42  47
ATOM     47  O   LIG A   1      -1.557  13.481 132.183  0.00  0.00    -0.383 OA
ATOM     48  H   LIG A   1      -2.415  13.251 131.782  0.00  0.00    +0.210 HD
ENDBRANCH  42  47
BRANCH  39  49
ATOM     49  C   LIG A   1       2.804  13.530 134.140  0.00  0.00    +0.190 C 
BRANCH  49  50
ATOM     50  O   LIG A   1       3.146  12.643 135.205  0.00  0.00    -0.392 OA
ATOM     51  H   LIG A   1       3.133  13.173 136.024  0.00  0.00    +0.209 HD
ENDBRANCH  49  50
ENDBRANCH  39  49
ENDBRANCH  36  37
ENDBRANCH  34  36
ENDBRANCH   5  34
BRANCH  13  52
ATOM     52  C   LIG A   1      -4.715   4.219 126.424  0.00  0.00    +0.167 C 
BRANCH  52  53
ATOM     53  O   LIG A   1      -5.763   5.106 126.028  0.00  0.00    -0.394 OA
ATOM     54  H   LIG A   1      -5.325   5.834 125.545  0.00  0.00    +0.209 HD
ENDBRANCH  52  53
ENDBRANCH  13  52
BRANCH  13  55
ATOM     55  C   LIG A   1      -4.304   2.201 127.870  0.00  0.00    +0.167 C 
BRANCH  55  56
ATOM     56  O   LIG A   1      -4.141   1.647 126.567  0.00  0.00    -0.394 OA
ATOM     57  H   LIG A   1      -3.322   2.018 126.197  0.00  0.00    +0.209 HD
ENDBRANCH  55  56
ENDBRANCH  13  55
TORSDOF 15
ENDMDL
MODEL 8
REMARK VINA RESULT:      -7.6      6.839      9.374
REMARK  Name = NuBBE_545
REMARK  20 active torsions:
REMARK  status: ('A' for Active; 'I' for Inactive)
REMARK    1  A    between atoms: C_1  and  C_2
REMARK    2  A    between atoms: C_6  and  C_41
REMARK    3  A    between atoms: C_9  and  C_40
REMARK    4  A    between atoms: C_10  and  C_39
REMARK    5  A    between atoms: C_15  and  C_16
REMARK    6  A    between atoms: C_15  and  C_37
REMARK    7  A    between atoms: C_16  and  O_17
REMARK    8  A    between atoms: C_18  and  O_36
REMARK    9  A    between atoms: C_20  and  O_35
REMARK   10  A    between atoms: C_23  and  C_34
REMARK   11  A    between atoms: C_31  and  O_32
REMARK   12  A    between atoms: C_31  and  C_33
REMARK   13  A    between atoms: C_37  and  O_38
REMARK   14  A    between atoms: C_41  and  O_42
REMARK   15  A    between atoms: O_42  and  C_43
REMARK   16  A    between atoms: C_46  and  C_54
REMARK   17  A    between atoms: C_48  and  O_53
REMARK   18  A    between atoms: C_50  and  O_52
REMARK   19  A    between atoms: C_54  and  O_55
REMARK   20  A    between atoms: C_56  and  O_58
REMARK                            x       y       z     vdW  Elec       q    Type
REMARK                         _______ _______ _______ _____ _____    ______ ____
ROOT
ATOM      1  C   LIG A   1      -4.514   2.405 125.759  0.00  0.00    +0.010 C 
ATOM      2  C   LIG A   1      -4.291   2.329 127.285  0.00  0.00    +0.018 C 
ATOM      3  C   LIG A   1      -5.507   1.630 127.896  0.00  0.00    +0.007 C 
ATOM      4  C   LIG A   1      -5.424   1.552 129.411  0.00  0.00    +0.019 C 
ATOM      5  C   LIG A   1      -5.284   2.945 130.062  0.00  0.00    +0.077 C 
ATOM      6  C   LIG A   1      -5.202   2.713 131.574  0.00  0.00    +0.019 C 
ATOM      7  C   LIG A   1      -4.960   3.994 132.349  0.00  0.00    +0.012 C 
ATOM      8  C   LIG A   1      -3.698   4.807 131.939  0.00  0.00    -0.005 C 
ATOM      9  C   LIG A   1      -3.864   6.353 132.403  0.00  0.00    -0.019 C 
ATOM     10  C   LIG A   1      -4.442   6.508 133.837  0.00  0.00    +0.008 C 
ATOM     11  C   LIG A   1      -3.440   6.752 134.937  0.00  0.00    +0.005 C 
ATOM     12  C   LIG A   1      -2.581   7.973 134.590  0.00  0.00    +0.008 C 
ATOM     13  C   LIG A   1      -1.978   8.718 135.836  0.00  0.00    +0.049 C 
ATOM     14  C   LIG A   1      -1.109   9.907 135.338  0.00  0.00    +0.154 C 
ATOM     15  C   LIG A   1      -0.117   9.546 134.225  0.00  0.00    +0.144 C 
ATOM     16  C   LIG A   1      -0.815   8.897 133.027  0.00  0.00    +0.041 C 
ATOM     17  C   LIG A   1      -1.623   7.614 133.396  0.00  0.00    -0.022 C 
ATOM     18  C   LIG A   1      -2.559   7.217 132.154  0.00  0.00    +0.006 C 
ATOM     19  C   LIG A   1      -1.835   6.792 130.853  0.00  0.00    +0.031 C 
ATOM     20  C   LIG A   1      -2.503   5.724 130.012  0.00  0.00    -0.026 C 
ATOM     21  C   LIG A   1      -3.388   4.784 130.424  0.00  0.00    -0.060 C 
ATOM     22  C   LIG A   1      -3.933   3.603 129.540  0.00  0.00    +0.064 C 
ATOM     23  C   LIG A   1      -3.962   3.721 127.939  0.00  0.00    +0.073 C 
ATOM     24  C   LIG A   1      -2.641   4.198 127.306  0.00  0.00    +0.042 C 
ATOM     25  C   LIG A   1      -0.582   6.523 133.740  0.00  0.00    +0.012 C 
ATOM     26  C   LIG A   1      -4.960   7.035 131.484  0.00  0.00    +0.012 C 
ATOM     27  C   LIG A   1      -2.502   4.083 132.616  0.00  0.00    +0.016 C 
ENDROOT
BRANCH  23  28
ATOM     28  O   LIG A   1      -4.978   4.633 127.518  0.00  0.00    -0.388 OA
ATOM     29  H   LIG A   1      -5.837   4.381 127.931  0.00  0.00    +0.210 HD
ENDBRANCH  23  28
BRANCH  15  30
ATOM     30  O   LIG A   1       0.520  10.750 133.775  0.00  0.00    -0.389 OA
ATOM     31  H   LIG A   1       0.725  10.587 132.832  0.00  0.00    +0.210 HD
ENDBRANCH  15  30
BRANCH  14  32
ATOM     32  O   LIG A   1      -0.359  10.506 136.407  0.00  0.00    -0.389 OA
ATOM     33  H   LIG A   1       0.540  10.099 136.363  0.00  0.00    +0.210 HD
ENDBRANCH  14  32
BRANCH   5  34
ATOM     34  C   LIG A   1      -6.521   3.770 129.722  0.00  0.00    +0.316 C 
ATOM     35  O   LIG A   1      -6.439   4.935 129.403  0.00  0.00    -0.250 OA
BRANCH  34  36
ATOM     36  O   LIG A   1      -7.741   3.129 129.838  0.00  0.00    -0.432 OA
BRANCH  36  37
ATOM     37  C   LIG A   1      -8.920   3.969 129.946  0.00  0.00    +0.342 C 
ATOM     38  O   LIG A   1      -8.756   5.080 130.834  0.00  0.00    -0.331 OA
ATOM     39  C   LIG A   1      -9.037   4.843 132.215  0.00  0.00    +0.179 C 
ATOM     40  C   LIG A   1      -8.955   3.354 132.573  0.00  0.00    +0.177 C 
ATOM     41  C   LIG A   1     -10.084   2.651 131.815  0.00  0.00    +0.180 C 
ATOM     42  C   LIG A   1     -10.147   3.081 130.338  0.00  0.00    +0.214 C 
BRANCH  41  43
ATOM     43  O   LIG A   1      -9.907   1.234 131.927  0.00  0.00    -0.386 OA
ATOM     44  H   LIG A   1      -9.345   1.118 132.724  0.00  0.00    +0.210 HD
ENDBRANCH  41  43
BRANCH  40  45
ATOM     45  O   LIG A   1      -9.110   3.043 133.961  0.00  0.00    -0.387 OA
ATOM     46  H   LIG A   1      -8.968   2.073 134.050  0.00  0.00    +0.210 HD
ENDBRANCH  40  45
BRANCH  42  47
ATOM     47  O   LIG A   1     -11.372   3.818 130.129  0.00  0.00    -0.383 OA
ATOM     48  H   LIG A   1     -11.192   4.497 129.452  0.00  0.00    +0.210 HD
ENDBRANCH  42  47
BRANCH  39  49
ATOM     49  C   LIG A   1      -8.098   5.715 133.051  0.00  0.00    +0.190 C 
BRANCH  49  50
ATOM     50  O   LIG A   1      -8.653   5.958 134.343  0.00  0.00    -0.392 OA
ATOM     51  H   LIG A   1      -8.736   5.089 134.779  0.00  0.00    +0.209 HD
ENDBRANCH  49  50
ENDBRANCH  39  49
ENDBRANCH  36  37
ENDBRANCH  34  36
ENDBRANCH   5  34
BRANCH  13  52
ATOM     52  C   LIG A   1      -3.164   9.346 136.644  0.00  0.00    +0.167 C 
BRANCH  52  53
ATOM     53  O   LIG A   1      -3.319  10.734 136.343  0.00  0.00    -0.394 OA
ATOM     54  H   LIG A   1      -2.781  10.893 135.544  0.00  0.00    +0.209 HD
ENDBRANCH  52  53
ENDBRANCH  13  52
BRANCH  13  55
ATOM     55  C   LIG A   1      -1.180   7.805 136.802  0.00  0.00    +0.167 C 
BRANCH  55  56
ATOM     56  O   LIG A   1      -1.190   8.310 138.133  0.00  0.00    -0.394 OA
ATOM     57  H   LIG A   1      -2.064   8.709 138.283  0.00  0.00    +0.209 HD
ENDBRANCH  55  56
ENDBRANCH  13  55
TORSDOF 15
ENDMDL
MODEL 9
REMARK VINA RESULT:      -7.6      3.212      5.017
REMARK  Name = NuBBE_545
REMARK  20 active torsions:
REMARK  status: ('A' for Active; 'I' for Inactive)
REMARK    1  A    between atoms: C_1  and  C_2
REMARK    2  A    between atoms: C_6  and  C_41
REMARK    3  A    between atoms: C_9  and  C_40
REMARK    4  A    between atoms: C_10  and  C_39
REMARK    5  A    between atoms: C_15  and  C_16
REMARK    6  A    between atoms: C_15  and  C_37
REMARK    7  A    between atoms: C_16  and  O_17
REMARK    8  A    between atoms: C_18  and  O_36
REMARK    9  A    between atoms: C_20  and  O_35
REMARK   10  A    between atoms: C_23  and  C_34
REMARK   11  A    between atoms: C_31  and  O_32
REMARK   12  A    between atoms: C_31  and  C_33
REMARK   13  A    between atoms: C_37  and  O_38
REMARK   14  A    between atoms: C_41  and  O_42
REMARK   15  A    between atoms: O_42  and  C_43
REMARK   16  A    between atoms: C_46  and  C_54
REMARK   17  A    between atoms: C_48  and  O_53
REMARK   18  A    between atoms: C_50  and  O_52
REMARK   19  A    between atoms: C_54  and  O_55
REMARK   20  A    between atoms: C_56  and  O_58
REMARK                            x       y       z     vdW  Elec       q    Type
REMARK                         _______ _______ _______ _____ _____    ______ ____
ROOT
ATOM      1  C   LIG A   1      -5.772  -3.165 124.511  0.00  0.00    +0.010 C 
ATOM      2  C   LIG A   1      -6.692  -2.322 125.419  0.00  0.00    +0.018 C 
ATOM      3  C   LIG A   1      -7.517  -1.403 124.516  0.00  0.00    +0.007 C 
ATOM      4  C   LIG A   1      -8.423  -0.477 125.311  0.00  0.00    +0.019 C 
ATOM      5  C   LIG A   1      -7.634   0.398 126.309  0.00  0.00    +0.077 C 
ATOM      6  C   LIG A   1      -8.667   1.263 127.040  0.00  0.00    +0.019 C 
ATOM      7  C   LIG A   1      -8.048   2.113 128.132  0.00  0.00    +0.012 C 
ATOM      8  C   LIG A   1      -7.242   1.342 129.218  0.00  0.00    -0.005 C 
ATOM      9  C   LIG A   1      -6.201   2.348 129.950  0.00  0.00    -0.019 C 
ATOM     10  C   LIG A   1      -6.818   3.731 130.293  0.00  0.00    +0.008 C 
ATOM     11  C   LIG A   1      -7.298   3.914 131.711  0.00  0.00    +0.005 C 
ATOM     12  C   LIG A   1      -6.157   3.599 132.685  0.00  0.00    +0.008 C 
ATOM     13  C   LIG A   1      -6.270   4.326 134.075  0.00  0.00    +0.049 C 
ATOM     14  C   LIG A   1      -5.075   3.892 134.968  0.00  0.00    +0.154 C 
ATOM     15  C   LIG A   1      -4.836   2.378 135.018  0.00  0.00    +0.144 C 
ATOM     16  C   LIG A   1      -4.663   1.780 133.619  0.00  0.00    +0.041 C 
ATOM     17  C   LIG A   1      -5.870   2.053 132.670  0.00  0.00    -0.022 C 
ATOM     18  C   LIG A   1      -5.445   1.676 131.169  0.00  0.00    +0.006 C 
ATOM     19  C   LIG A   1      -5.136   0.183 130.895  0.00  0.00    +0.031 C 
ATOM     20  C   LIG A   1      -5.509  -0.356 129.530  0.00  0.00    -0.026 C 
ATOM     21  C   LIG A   1      -6.450   0.126 128.682  0.00  0.00    -0.060 C 
ATOM     22  C   LIG A   1      -6.903  -0.564 127.344  0.00  0.00    +0.064 C 
ATOM     23  C   LIG A   1      -5.921  -1.565 126.563  0.00  0.00    +0.073 C 
ATOM     24  C   LIG A   1      -5.276  -2.651 127.445  0.00  0.00    +0.042 C 
ATOM     25  C   LIG A   1      -7.046   1.197 133.197  0.00  0.00    +0.012 C 
ATOM     26  C   LIG A   1      -5.044   2.700 128.925  0.00  0.00    +0.012 C 
ATOM     27  C   LIG A   1      -8.309   0.748 130.180  0.00  0.00    +0.016 C 
ENDROOT
BRANCH  23  28
ATOM     28  O   LIG A   1      -4.853  -0.845 125.943  0.00  0.00    -0.388 OA
ATOM     29  H   LIG A   1      -4.865  -1.014 124.971  0.00  0.00    +0.210 HD
ENDBRANCH  23  28
BRANCH  15  30
ATOM     30  O   LIG A   1      -3.637   2.130 135.764  0.00  0.00    -0.389 OA
ATOM     31  H   LIG A   1      -3.252   1.327 135.359  0.00  0.00    +0.210 HD
ENDBRANCH  15  30
BRANCH  14  32
ATOM     32  O   LIG A   1      -5.223   4.351 136.321  0.00  0.00    -0.389 OA
ATOM     33  H   LIG A   1      -6.056   4.880 136.334  0.00  0.00    +0.210 HD
ENDBRANCH  14  32
BRANCH   5  34
ATOM     34  C   LIG A   1      -6.668   1.281 125.527  0.00  0.00    +0.316 C 
ATOM     35  O   LIG A   1      -5.662   1.724 126.033  0.00  0.00    -0.250 OA
BRANCH  34  36
ATOM     36  O   LIG A   1      -7.021   1.580 124.224  0.00  0.00    -0.432 OA
BRANCH  36  37
ATOM     37  C   LIG A   1      -7.896   2.721 124.022  0.00  0.00    +0.342 C 
ATOM     38  O   LIG A   1      -8.081   3.068 122.646  0.00  0.00    -0.331 OA
ATOM     39  C   LIG A   1      -7.116   3.953 122.073  0.00  0.00    +0.179 C 
ATOM     40  C   LIG A   1      -5.798   3.955 122.857  0.00  0.00    +0.177 C 
ATOM     41  C   LIG A   1      -6.102   4.543 124.237  0.00  0.00    +0.180 C 
ATOM     42  C   LIG A   1      -7.366   3.928 124.866  0.00  0.00    +0.214 C 
BRANCH  41  43
ATOM     43  O   LIG A   1      -4.964   4.350 125.086  0.00  0.00    -0.386 OA
ATOM     44  H   LIG A   1      -5.211   4.783 125.933  0.00  0.00    +0.210 HD
ENDBRANCH  41  43
BRANCH  40  45
ATOM     45  O   LIG A   1      -4.740   4.728 122.284  0.00  0.00    -0.387 OA
ATOM     46  H   LIG A   1      -4.261   4.132 121.663  0.00  0.00    +0.210 HD
ENDBRANCH  40  45
BRANCH  42  47
ATOM     47  O   LIG A   1      -8.381   4.952 124.946  0.00  0.00    -0.383 OA
ATOM     48  H   LIG A   1      -8.880   4.935 124.108  0.00  0.00    +0.210 HD
ENDBRANCH  42  47
BRANCH  39  49
ATOM     49  C   LIG A   1      -6.939   3.579 120.600  0.00  0.00    +0.190 C 
BRANCH  49  50
ATOM     50  O   LIG A   1      -6.300   4.636 119.886  0.00  0.00    -0.392 OA
ATOM     51  H   LIG A   1      -6.999   5.271 119.641  0.00  0.00    +0.209 HD
ENDBRANCH  49  50
ENDBRANCH  39  49
ENDBRANCH  36  37
ENDBRANCH  34  36
ENDBRANCH   5  34
BRANCH  13  52
ATOM     52  C   LIG A   1      -6.104   5.864 133.830  0.00  0.00    +0.167 C 
BRANCH  52  53
ATOM     53  O   LIG A   1      -5.163   6.435 134.741  0.00  0.00    -0.394 OA
ATOM     54  H   LIG A   1      -5.245   5.917 135.565  0.00  0.00    +0.209 HD
ENDBRANCH  52  53
ENDBRANCH  13  52
BRANCH  13  55
ATOM     55  C   LIG A   1      -7.622   4.107 134.801  0.00  0.00    +0.167 C 
BRANCH  55  56
ATOM     56  O   LIG A   1      -8.043   5.279 135.495  0.00  0.00    -0.394 OA
ATOM     57  H   LIG A   1      -8.763   5.015 136.094  0.00  0.00    +0.209 HD
ENDBRANCH  55  56
ENDBRANCH  13  55
TORSDOF 15
ENDMDL
