MODEL 1
REMARK VINA RESULT:      -8.0      0.000      0.000
REMARK  Name = NuBBE_2088
REMARK  9 active torsions:
REMARK  status: ('A' for Active; 'I' for Inactive)
REMARK    1  A    between atoms: C_1  and  O_2
REMARK    2  A    between atoms: O_2  and  C_3
REMARK    3  A    between atoms: C_10  and  C_11
REMARK    4  A    between atoms: C_13  and  O_14
REMARK    5  A    between atoms: C_19  and  O_20
REMARK    6  A    between atoms: C_21  and  C_22
REMARK    7  A    between atoms: C_23  and  C_24
REMARK    8  A    between atoms: C_24  and  C_25
REMARK    9  A    between atoms: C_24  and  C_26
REMARK                            x       y       z     vdW  Elec       q    Type
REMARK                         _______ _______ _______ _____ _____    ______ ____
ROOT
ATOM      1  C   LIG A   1      -6.415   3.098 124.275  0.00  0.00    +0.131 A 
ATOM      2  C   LIG A   1      -6.301   2.330 125.435  0.00  0.00    +0.059 A 
ATOM      3  C   LIG A   1      -7.026   1.142 125.583  0.00  0.00    +0.040 A 
ATOM      4  C   LIG A   1      -6.866   0.379 126.830  0.00  0.00    +0.195 C 
ATOM      5  O   LIG A   1      -6.131   0.796 127.716  0.00  0.00    -0.287 OA
ATOM      6  C   LIG A   1      -7.596  -0.886 127.005  0.00  0.00    +0.037 A 
ATOM      7  C   LIG A   1      -7.418  -1.589 128.208  0.00  0.00    +0.016 A 
ATOM      8  C   LIG A   1      -8.085  -2.795 128.430  0.00  0.00    -0.046 A 
ATOM      9  C   LIG A   1      -7.893  -3.551 129.712  0.00  0.00    +0.044 C 
ATOM     10  C   LIG A   1      -8.924  -3.292 127.429  0.00  0.00    +0.049 A 
ATOM     11  C   LIG A   1      -9.100  -2.588 126.230  0.00  0.00    +0.129 A 
ATOM     12  C   LIG A   1      -8.439  -1.370 126.004  0.00  0.00    +0.074 A 
ATOM     13  C   LIG A   1      -8.605  -0.582 124.749  0.00  0.00    +0.202 C 
ATOM     14  O   LIG A   1      -9.339  -0.937 123.834  0.00  0.00    -0.286 OA
ATOM     15  C   LIG A   1      -7.865   0.693 124.573  0.00  0.00    +0.075 A 
ATOM     16  C   LIG A   1      -7.976   1.458 123.393  0.00  0.00    +0.139 A 
ATOM     17  C   LIG A   1      -7.262   2.672 123.227  0.00  0.00    +0.059 A 
ENDROOT
BRANCH   1  19
ATOM     18  C   LIG A   1      -5.855   5.295 124.996  0.00  0.00    +0.277 C 
ATOM     19  O   LIG A   1      -5.648   4.222 124.081  0.00  0.00    -0.494 OA
ENDBRANCH   1  19
BRANCH  11  20
ATOM     20  O   LIG A   1      -9.931  -3.119 125.285  0.00  0.00    -0.506 OA
ATOM     21  H   LIG A   1     -10.530  -3.769 125.684  0.00  0.00    +0.292 HD
ENDBRANCH  11  20
BRANCH  16  22
ATOM     22  O   LIG A   1      -8.786   1.044 122.356  0.00  0.00    -0.505 OA
ATOM     23  H   LIG A   1      -9.503   1.709 122.233  0.00  0.00    +0.292 HD
ENDBRANCH  16  22
BRANCH  17  24
ATOM     24  C   LIG A   1      -7.351   3.389 121.931  0.00  0.00    +0.011 C 
ATOM     25  C   LIG A   1      -6.405   3.415 120.977  0.00  0.00    -0.023 C 
BRANCH  25  26
ATOM     26  C   LIG A   1      -6.602   4.047 119.619  0.00  0.00    +0.005 C 
ATOM     27  C   LIG A   1      -8.071   4.383 119.368  0.00  0.00    +0.011 C 
ATOM     28  C   LIG A   1      -5.743   5.309 119.511  0.00  0.00    +0.011 C 
ENDBRANCH  25  26
ENDBRANCH  17  24
TORSDOF 5
ENDMDL
MODEL 2
REMARK VINA RESULT:      -7.7      4.682      7.327
REMARK  Name = NuBBE_2088
REMARK  9 active torsions:
REMARK  status: ('A' for Active; 'I' for Inactive)
REMARK    1  A    between atoms: C_1  and  O_2
REMARK    2  A    between atoms: O_2  and  C_3
REMARK    3  A    between atoms: C_10  and  C_11
REMARK    4  A    between atoms: C_13  and  O_14
REMARK    5  A    between atoms: C_19  and  O_20
REMARK    6  A    between atoms: C_21  and  C_22
REMARK    7  A    between atoms: C_23  and  C_24
REMARK    8  A    between atoms: C_24  and  C_25
REMARK    9  A    between atoms: C_24  and  C_26
REMARK                            x       y       z     vdW  Elec       q    Type
REMARK                         _______ _______ _______ _____ _____    ______ ____
ROOT
ATOM      1  C   LIG A   1      -7.704  -1.877 129.195  0.00  0.00    +0.131 A 
ATOM      2  C   LIG A   1      -7.907  -0.969 130.236  0.00  0.00    +0.059 A 
ATOM      3  C   LIG A   1      -8.092   0.394 129.974  0.00  0.00    +0.040 A 
ATOM      4  C   LIG A   1      -8.297   1.300 131.115  0.00  0.00    +0.195 C 
ATOM      5  O   LIG A   1      -8.282   0.864 132.258  0.00  0.00    -0.287 OA
ATOM      6  C   LIG A   1      -8.519   2.733 130.870  0.00  0.00    +0.037 A 
ATOM      7  C   LIG A   1      -8.714   3.570 131.981  0.00  0.00    +0.016 A 
ATOM      8  C   LIG A   1      -8.929   4.938 131.810  0.00  0.00    -0.046 A 
ATOM      9  C   LIG A   1      -9.141   5.833 132.996  0.00  0.00    +0.044 C 
ATOM     10  C   LIG A   1      -8.956   5.456 130.513  0.00  0.00    +0.049 A 
ATOM     11  C   LIG A   1      -8.762   4.619 129.405  0.00  0.00    +0.129 A 
ATOM     12  C   LIG A   1      -8.536   3.244 129.571  0.00  0.00    +0.074 A 
ATOM     13  C   LIG A   1      -8.313   2.318 128.423  0.00  0.00    +0.202 C 
ATOM     14  O   LIG A   1      -8.299   2.697 127.258  0.00  0.00    -0.286 OA
ATOM     15  C   LIG A   1      -8.093   0.871 128.672  0.00  0.00    +0.075 A 
ATOM     16  C   LIG A   1      -7.899  -0.042 127.614  0.00  0.00    +0.139 A 
ATOM     17  C   LIG A   1      -7.695  -1.424 127.856  0.00  0.00    +0.059 A 
ENDROOT
BRANCH   1  19
ATOM     18  C   LIG A   1      -6.377  -3.680 130.000  0.00  0.00    +0.277 C 
ATOM     19  O   LIG A   1      -7.602  -3.227 129.431  0.00  0.00    -0.494 OA
ENDBRANCH   1  19
BRANCH  11  20
ATOM     20  O   LIG A   1      -8.799   5.177 128.159  0.00  0.00    -0.506 OA
ATOM     21  H   LIG A   1      -9.696   5.481 127.948  0.00  0.00    +0.292 HD
ENDBRANCH  11  20
BRANCH  16  22
ATOM     22  O   LIG A   1      -7.907   0.384 126.303  0.00  0.00    -0.505 OA
ATOM     23  H   LIG A   1      -8.586  -0.131 125.808  0.00  0.00    +0.292 HD
ENDBRANCH  16  22
BRANCH  17  24
ATOM     24  C   LIG A   1      -7.584  -2.350 126.702  0.00  0.00    +0.011 C 
ATOM     25  C   LIG A   1      -8.609  -2.937 126.060  0.00  0.00    -0.023 C 
BRANCH  25  26
ATOM     26  C   LIG A   1      -8.448  -3.762 124.805  0.00  0.00    +0.005 C 
ATOM     27  C   LIG A   1      -9.451  -3.347 123.731  0.00  0.00    +0.011 C 
ATOM     28  C   LIG A   1      -7.017  -3.619 124.278  0.00  0.00    +0.011 C 
ENDBRANCH  25  26
ENDBRANCH  17  24
TORSDOF 5
ENDMDL
MODEL 3
REMARK VINA RESULT:      -7.7      7.122     10.298
REMARK  Name = NuBBE_2088
REMARK  9 active torsions:
REMARK  status: ('A' for Active; 'I' for Inactive)
REMARK    1  A    between atoms: C_1  and  O_2
REMARK    2  A    between atoms: O_2  and  C_3
REMARK    3  A    between atoms: C_10  and  C_11
REMARK    4  A    between atoms: C_13  and  O_14
REMARK    5  A    between atoms: C_19  and  O_20
REMARK    6  A    between atoms: C_21  and  C_22
REMARK    7  A    between atoms: C_23  and  C_24
REMARK    8  A    between atoms: C_24  and  C_25
REMARK    9  A    between atoms: C_24  and  C_26
REMARK                            x       y       z     vdW  Elec       q    Type
REMARK                         _______ _______ _______ _____ _____    ______ ____
ROOT
ATOM      1  C   LIG A   1      -8.410   4.387 133.125  0.00  0.00    +0.131 A 
ATOM      2  C   LIG A   1      -9.426   5.312 132.875  0.00  0.00    +0.059 A 
ATOM      3  C   LIG A   1      -9.710   5.730 131.569  0.00  0.00    +0.040 A 
ATOM      4  C   LIG A   1     -10.789   6.709 131.372  0.00  0.00    +0.195 C 
ATOM      5  O   LIG A   1     -11.399   7.156 132.334  0.00  0.00    -0.287 OA
ATOM      6  C   LIG A   1     -11.128   7.149 130.010  0.00  0.00    +0.037 A 
ATOM      7  C   LIG A   1     -12.165   8.083 129.857  0.00  0.00    +0.016 A 
ATOM      8  C   LIG A   1     -12.531   8.537 128.588  0.00  0.00    -0.046 A 
ATOM      9  C   LIG A   1     -13.641   9.533 128.423  0.00  0.00    +0.044 C 
ATOM     10  C   LIG A   1     -11.852   8.036 127.475  0.00  0.00    +0.049 A 
ATOM     11  C   LIG A   1     -10.817   7.102 127.630  0.00  0.00    +0.129 A 
ATOM     12  C   LIG A   1     -10.439   6.649 128.904  0.00  0.00    +0.074 A 
ATOM     13  C   LIG A   1      -9.337   5.667 129.117  0.00  0.00    +0.202 C 
ATOM     14  O   LIG A   1      -8.679   5.197 128.196  0.00  0.00    -0.286 OA
ATOM     15  C   LIG A   1      -8.999   5.222 130.492  0.00  0.00    +0.075 A 
ATOM     16  C   LIG A   1      -7.979   4.278 130.736  0.00  0.00    +0.139 A 
ATOM     17  C   LIG A   1      -7.663   3.851 132.051  0.00  0.00    +0.059 A 
ENDROOT
BRANCH   1  19
ATOM     18  C   LIG A   1      -7.552   4.806 135.303  0.00  0.00    +0.277 C 
ATOM     19  O   LIG A   1      -8.174   3.907 134.391  0.00  0.00    -0.494 OA
ENDBRANCH   1  19
BRANCH  11  20
ATOM     20  O   LIG A   1     -10.187   6.644 126.508  0.00  0.00    -0.506 OA
ATOM     21  H   LIG A   1      -9.523   5.975 126.739  0.00  0.00    +0.292 HD
ENDBRANCH  11  20
BRANCH  16  22
ATOM     22  O   LIG A   1      -7.255   3.735 129.696  0.00  0.00    -0.505 OA
ATOM     23  H   LIG A   1      -7.843   3.663 128.908  0.00  0.00    +0.292 HD
ENDBRANCH  16  22
BRANCH  17  24
ATOM     24  C   LIG A   1      -6.641   2.793 132.240  0.00  0.00    +0.011 C 
ATOM     25  C   LIG A   1      -5.331   2.992 132.466  0.00  0.00    -0.023 C 
BRANCH  25  26
ATOM     26  C   LIG A   1      -4.359   1.882 132.789  0.00  0.00    +0.005 C 
ATOM     27  C   LIG A   1      -4.236   0.894 131.631  0.00  0.00    +0.011 C 
ATOM     28  C   LIG A   1      -2.990   2.482 133.123  0.00  0.00    +0.011 C 
ENDBRANCH  25  26
ENDBRANCH  17  24
TORSDOF 5
ENDMDL
MODEL 4
REMARK VINA RESULT:      -7.5      3.004      5.415
REMARK  Name = NuBBE_2088
REMARK  9 active torsions:
REMARK  status: ('A' for Active; 'I' for Inactive)
REMARK    1  A    between atoms: C_1  and  O_2
REMARK    2  A    between atoms: O_2  and  C_3
REMARK    3  A    between atoms: C_10  and  C_11
REMARK    4  A    between atoms: C_13  and  O_14
REMARK    5  A    between atoms: C_19  and  O_20
REMARK    6  A    between atoms: C_21  and  C_22
REMARK    7  A    between atoms: C_23  and  C_24
REMARK    8  A    between atoms: C_24  and  C_25
REMARK    9  A    between atoms: C_24  and  C_26
REMARK                            x       y       z     vdW  Elec       q    Type
REMARK                         _______ _______ _______ _____ _____    ______ ____
ROOT
ATOM      1  C   LIG A   1      -6.574   1.522 124.041  0.00  0.00    +0.131 A 
ATOM      2  C   LIG A   1      -6.188   1.175 125.337  0.00  0.00    +0.059 A 
ATOM      3  C   LIG A   1      -5.745   2.149 126.239  0.00  0.00    +0.040 A 
ATOM      4  C   LIG A   1      -5.350   1.720 127.588  0.00  0.00    +0.195 C 
ATOM      5  O   LIG A   1      -5.390   0.536 127.894  0.00  0.00    -0.287 OA
ATOM      6  C   LIG A   1      -4.903   2.724 128.566  0.00  0.00    +0.037 A 
ATOM      7  C   LIG A   1      -4.534   2.280 129.846  0.00  0.00    +0.016 A 
ATOM      8  C   LIG A   1      -4.103   3.187 130.816  0.00  0.00    -0.046 A 
ATOM      9  C   LIG A   1      -3.713   2.714 132.186  0.00  0.00    +0.044 C 
ATOM     10  C   LIG A   1      -4.054   4.544 130.490  0.00  0.00    +0.049 A 
ATOM     11  C   LIG A   1      -4.423   4.986 129.211  0.00  0.00    +0.129 A 
ATOM     12  C   LIG A   1      -4.849   4.077 128.229  0.00  0.00    +0.074 A 
ATOM     13  C   LIG A   1      -5.240   4.499 126.853  0.00  0.00    +0.202 C 
ATOM     14  O   LIG A   1      -5.203   5.667 126.482  0.00  0.00    -0.286 OA
ATOM     15  C   LIG A   1      -5.693   3.486 125.869  0.00  0.00    +0.075 A 
ATOM     16  C   LIG A   1      -6.092   3.845 124.564  0.00  0.00    +0.139 A 
ATOM     17  C   LIG A   1      -6.530   2.873 123.629  0.00  0.00    +0.059 A 
ENDROOT
BRANCH   1  19
ATOM     18  C   LIG A   1      -8.068  -0.298 123.701  0.00  0.00    +0.277 C 
ATOM     19  O   LIG A   1      -7.087   0.589 123.171  0.00  0.00    -0.494 OA
ENDBRANCH   1  19
BRANCH  11  20
ATOM     20  O   LIG A   1      -4.358   6.324 128.945  0.00  0.00    -0.506 OA
ATOM     21  H   LIG A   1      -4.632   6.839 129.720  0.00  0.00    +0.292 HD
ENDBRANCH  11  20
BRANCH  16  22
ATOM     22  O   LIG A   1      -6.071   5.162 124.157  0.00  0.00    -0.505 OA
ATOM     23  H   LIG A   1      -6.811   5.640 124.599  0.00  0.00    +0.292 HD
ENDBRANCH  16  22
BRANCH  17  24
ATOM     24  C   LIG A   1      -7.020   3.319 122.301  0.00  0.00    +0.011 C 
ATOM     25  C   LIG A   1      -6.258   3.565 121.222  0.00  0.00    -0.023 C 
BRANCH  25  26
ATOM     26  C   LIG A   1      -6.820   3.883 119.856  0.00  0.00    +0.005 C 
ATOM     27  C   LIG A   1      -8.327   4.120 119.913  0.00  0.00    +0.011 C 
ATOM     28  C   LIG A   1      -6.110   5.113 119.284  0.00  0.00    +0.011 C 
ENDBRANCH  25  26
ENDBRANCH  17  24
TORSDOF 5
ENDMDL
MODEL 5
REMARK VINA RESULT:      -7.4      5.896      7.318
REMARK  Name = NuBBE_2088
REMARK  9 active torsions:
REMARK  status: ('A' for Active; 'I' for Inactive)
REMARK    1  A    between atoms: C_1  and  O_2
REMARK    2  A    between atoms: O_2  and  C_3
REMARK    3  A    between atoms: C_10  and  C_11
REMARK    4  A    between atoms: C_13  and  O_14
REMARK    5  A    between atoms: C_19  and  O_20
REMARK    6  A    between atoms: C_21  and  C_22
REMARK    7  A    between atoms: C_23  and  C_24
REMARK    8  A    between atoms: C_24  and  C_25
REMARK    9  A    between atoms: C_24  and  C_26
REMARK                            x       y       z     vdW  Elec       q    Type
REMARK                         _______ _______ _______ _____ _____    ______ ____
ROOT
ATOM      1  C   LIG A   1      -9.165   2.954 132.307  0.00  0.00    +0.131 A 
ATOM      2  C   LIG A   1      -8.607   1.723 132.659  0.00  0.00    +0.059 A 
ATOM      3  C   LIG A   1      -8.212   0.807 131.677  0.00  0.00    +0.040 A 
ATOM      4  C   LIG A   1      -7.634  -0.473 132.113  0.00  0.00    +0.195 C 
ATOM      5  O   LIG A   1      -7.529  -0.727 133.305  0.00  0.00    -0.287 OA
ATOM      6  C   LIG A   1      -7.186  -1.446 131.105  0.00  0.00    +0.037 A 
ATOM      7  C   LIG A   1      -6.638  -2.658 131.555  0.00  0.00    +0.016 A 
ATOM      8  C   LIG A   1      -6.196  -3.619 130.644  0.00  0.00    -0.046 A 
ATOM      9  C   LIG A   1      -5.605  -4.912 131.124  0.00  0.00    +0.044 C 
ATOM     10  C   LIG A   1      -6.301  -3.347 129.278  0.00  0.00    +0.049 A 
ATOM     11  C   LIG A   1      -6.849  -2.136 128.831  0.00  0.00    +0.129 A 
ATOM     12  C   LIG A   1      -7.304  -1.170 129.741  0.00  0.00    +0.074 A 
ATOM     13  C   LIG A   1      -7.904   0.126 129.312  0.00  0.00    +0.202 C 
ATOM     14  O   LIG A   1      -8.052   0.430 128.133  0.00  0.00    -0.286 OA
ATOM     15  C   LIG A   1      -8.352   1.108 130.330  0.00  0.00    +0.075 A 
ATOM     16  C   LIG A   1      -8.904   2.354 129.967  0.00  0.00    +0.139 A 
ATOM     17  C   LIG A   1      -9.325   3.292 130.943  0.00  0.00    +0.059 A 
ENDROOT
BRANCH   1  19
ATOM     18  C   LIG A   1      -8.538   4.081 134.306  0.00  0.00    +0.277 C 
ATOM     19  O   LIG A   1      -9.483   3.896 133.257  0.00  0.00    -0.494 OA
ENDBRANCH   1  19
BRANCH  11  20
ATOM     20  O   LIG A   1      -6.928  -1.921 127.484  0.00  0.00    -0.506 OA
ATOM     21  H   LIG A   1      -7.828  -1.658 127.233  0.00  0.00    +0.292 HD
ENDBRANCH  11  20
BRANCH  16  22
ATOM     22  O   LIG A   1      -9.049   2.702 128.640  0.00  0.00    -0.505 OA
ATOM     23  H   LIG A   1      -8.845   1.915 128.084  0.00  0.00    +0.292 HD
ENDBRANCH  16  22
BRANCH  17  24
ATOM     24  C   LIG A   1      -9.818   4.620 130.503  0.00  0.00    +0.011 C 
ATOM     25  C   LIG A   1     -11.105   5.006 130.447  0.00  0.00    -0.023 C 
BRANCH  25  26
ATOM     26  C   LIG A   1     -11.543   6.414 130.124  0.00  0.00    +0.005 C 
ATOM     27  C   LIG A   1     -12.399   7.004 131.243  0.00  0.00    +0.011 C 
ATOM     28  C   LIG A   1     -10.311   7.291 129.880  0.00  0.00    +0.011 C 
ENDBRANCH  25  26
ENDBRANCH  17  24
TORSDOF 5
ENDMDL
MODEL 6
REMARK VINA RESULT:      -7.4      2.598      7.629
REMARK  Name = NuBBE_2088
REMARK  9 active torsions:
REMARK  status: ('A' for Active; 'I' for Inactive)
REMARK    1  A    between atoms: C_1  and  O_2
REMARK    2  A    between atoms: O_2  and  C_3
REMARK    3  A    between atoms: C_10  and  C_11
REMARK    4  A    between atoms: C_13  and  O_14
REMARK    5  A    between atoms: C_19  and  O_20
REMARK    6  A    between atoms: C_21  and  C_22
REMARK    7  A    between atoms: C_23  and  C_24
REMARK    8  A    between atoms: C_24  and  C_25
REMARK    9  A    between atoms: C_24  and  C_26
REMARK                            x       y       z     vdW  Elec       q    Type
REMARK                         _______ _______ _______ _____ _____    ______ ____
ROOT
ATOM      1  C   LIG A   1      -6.207   2.475 128.301  0.00  0.00    +0.131 A 
ATOM      2  C   LIG A   1      -5.578   3.015 127.178  0.00  0.00    +0.059 A 
ATOM      3  C   LIG A   1      -6.210   3.010 125.929  0.00  0.00    +0.040 A 
ATOM      4  C   LIG A   1      -5.494   3.592 124.784  0.00  0.00    +0.195 C 
ATOM      5  O   LIG A   1      -4.366   4.045 124.929  0.00  0.00    -0.287 OA
ATOM      6  C   LIG A   1      -6.142   3.623 123.464  0.00  0.00    +0.037 A 
ATOM      7  C   LIG A   1      -5.430   4.187 122.393  0.00  0.00    +0.016 A 
ATOM      8  C   LIG A   1      -5.994   4.245 121.117  0.00  0.00    -0.046 A 
ATOM      9  C   LIG A   1      -5.237   4.851 119.972  0.00  0.00    +0.044 C 
ATOM     10  C   LIG A   1      -7.283   3.739 120.930  0.00  0.00    +0.049 A 
ATOM     11  C   LIG A   1      -7.992   3.176 122.002  0.00  0.00    +0.129 A 
ATOM     12  C   LIG A   1      -7.426   3.107 123.284  0.00  0.00    +0.074 A 
ATOM     13  C   LIG A   1      -8.138   2.507 124.450  0.00  0.00    +0.202 C 
ATOM     14  O   LIG A   1      -9.260   2.022 124.363  0.00  0.00    -0.286 OA
ATOM     15  C   LIG A   1      -7.484   2.480 125.782  0.00  0.00    +0.075 A 
ATOM     16  C   LIG A   1      -8.130   1.942 126.914  0.00  0.00    +0.139 A 
ATOM     17  C   LIG A   1      -7.504   1.923 128.186  0.00  0.00    +0.059 A 
ENDROOT
BRANCH   1  19
ATOM     18  C   LIG A   1      -4.474   1.746 129.758  0.00  0.00    +0.277 C 
ATOM     19  O   LIG A   1      -5.634   2.546 129.548  0.00  0.00    -0.494 OA
ENDBRANCH   1  19
BRANCH  11  20
ATOM     20  O   LIG A   1      -9.248   2.697 121.764  0.00  0.00    -0.506 OA
ATOM     21  H   LIG A   1      -9.914   3.378 121.947  0.00  0.00    +0.292 HD
ENDBRANCH  11  20
BRANCH  16  22
ATOM     22  O   LIG A   1      -9.402   1.417 126.819  0.00  0.00    -0.505 OA
ATOM     23  H   LIG A   1      -9.766   1.635 125.929  0.00  0.00    +0.292 HD
ENDBRANCH  16  22
BRANCH  17  24
ATOM     24  C   LIG A   1      -8.265   1.424 129.358  0.00  0.00    +0.011 C 
ATOM     25  C   LIG A   1      -8.024   0.284 130.028  0.00  0.00    -0.023 C 
BRANCH  25  26
ATOM     26  C   LIG A   1      -8.741  -0.108 131.298  0.00  0.00    +0.005 C 
ATOM     27  C   LIG A   1      -7.778  -0.704 132.322  0.00  0.00    +0.011 C 
ATOM     28  C   LIG A   1      -9.450   1.116 131.884  0.00  0.00    +0.011 C 
ENDBRANCH  25  26
ENDBRANCH  17  24
TORSDOF 5
ENDMDL
MODEL 7
REMARK VINA RESULT:      -7.3      5.243      9.412
REMARK  Name = NuBBE_2088
REMARK  9 active torsions:
REMARK  status: ('A' for Active; 'I' for Inactive)
REMARK    1  A    between atoms: C_1  and  O_2
REMARK    2  A    between atoms: O_2  and  C_3
REMARK    3  A    between atoms: C_10  and  C_11
REMARK    4  A    between atoms: C_13  and  O_14
REMARK    5  A    between atoms: C_19  and  O_20
REMARK    6  A    between atoms: C_21  and  C_22
REMARK    7  A    between atoms: C_23  and  C_24
REMARK    8  A    between atoms: C_24  and  C_25
REMARK    9  A    between atoms: C_24  and  C_26
REMARK                            x       y       z     vdW  Elec       q    Type
REMARK                         _______ _______ _______ _____ _____    ______ ____
ROOT
ATOM      1  C   LIG A   1      -7.555  -0.757 129.049  0.00  0.00    +0.131 A 
ATOM      2  C   LIG A   1      -7.826   0.549 128.636  0.00  0.00    +0.059 A 
ATOM      3  C   LIG A   1      -8.280   1.510 129.547  0.00  0.00    +0.040 A 
ATOM      4  C   LIG A   1      -8.550   2.867 129.049  0.00  0.00    +0.195 C 
ATOM      5  O   LIG A   1      -8.400   3.129 127.864  0.00  0.00    -0.287 OA
ATOM      6  C   LIG A   1      -9.005   3.905 129.987  0.00  0.00    +0.037 A 
ATOM      7  C   LIG A   1      -9.253   5.190 129.479  0.00  0.00    +0.016 A 
ATOM      8  C   LIG A   1      -9.686   6.216 130.321  0.00  0.00    -0.046 A 
ATOM      9  C   LIG A   1      -9.946   7.591 129.781  0.00  0.00    +0.044 C 
ATOM     10  C   LIG A   1      -9.858   5.940 131.680  0.00  0.00    +0.049 A 
ATOM     11  C   LIG A   1      -9.610   4.655 132.185  0.00  0.00    +0.129 A 
ATOM     12  C   LIG A   1      -9.183   3.618 131.341  0.00  0.00    +0.074 A 
ATOM     13  C   LIG A   1      -8.919   2.235 131.832  0.00  0.00    +0.202 C 
ATOM     14  O   LIG A   1      -9.068   1.907 133.004  0.00  0.00    -0.286 OA
ATOM     15  C   LIG A   1      -8.457   1.189 130.885  0.00  0.00    +0.075 A 
ATOM     16  C   LIG A   1      -8.175  -0.125 131.312  0.00  0.00    +0.139 A 
ATOM     17  C   LIG A   1      -7.728  -1.119 130.405  0.00  0.00    +0.059 A 
ENDROOT
BRANCH   1  19
ATOM     18  C   LIG A   1      -7.924  -2.219 127.209  0.00  0.00    +0.277 C 
ATOM     19  O   LIG A   1      -7.032  -1.689 128.184  0.00  0.00    -0.494 OA
ENDBRANCH   1  19
BRANCH  11  20
ATOM     20  O   LIG A   1      -9.794   4.440 133.521  0.00  0.00    -0.506 OA
ATOM     21  H   LIG A   1      -9.400   3.595 133.788  0.00  0.00    +0.292 HD
ENDBRANCH  11  20
BRANCH  16  22
ATOM     22  O   LIG A   1      -8.322  -0.485 132.635  0.00  0.00    -0.505 OA
ATOM     23  H   LIG A   1      -8.729   0.268 133.122  0.00  0.00    +0.292 HD
ENDBRANCH  16  22
BRANCH  17  24
ATOM     24  C   LIG A   1      -7.364  -2.460 130.926  0.00  0.00    +0.011 C 
ATOM     25  C   LIG A   1      -6.143  -2.841 131.340  0.00  0.00    -0.023 C 
BRANCH  25  26
ATOM     26  C   LIG A   1      -5.858  -4.174 131.990  0.00  0.00    +0.005 C 
ATOM     27  C   LIG A   1      -5.571  -5.253 130.948  0.00  0.00    +0.011 C 
ATOM     28  C   LIG A   1      -4.673  -4.033 132.949  0.00  0.00    +0.011 C 
ENDBRANCH  25  26
ENDBRANCH  17  24
TORSDOF 5
ENDMDL
MODEL 8
REMARK VINA RESULT:      -7.2      4.363      8.696
REMARK  Name = NuBBE_2088
REMARK  9 active torsions:
REMARK  status: ('A' for Active; 'I' for Inactive)
REMARK    1  A    between atoms: C_1  and  O_2
REMARK    2  A    between atoms: O_2  and  C_3
REMARK    3  A    between atoms: C_10  and  C_11
REMARK    4  A    between atoms: C_13  and  O_14
REMARK    5  A    between atoms: C_19  and  O_20
REMARK    6  A    between atoms: C_21  and  C_22
REMARK    7  A    between atoms: C_23  and  C_24
REMARK    8  A    between atoms: C_24  and  C_25
REMARK    9  A    between atoms: C_24  and  C_26
REMARK                            x       y       z     vdW  Elec       q    Type
REMARK                         _______ _______ _______ _____ _____    ______ ____
ROOT
ATOM      1  C   LIG A   1      -6.676  -2.730 131.328  0.00  0.00    +0.131 A 
ATOM      2  C   LIG A   1      -7.525  -3.175 130.313  0.00  0.00    +0.059 A 
ATOM      3  C   LIG A   1      -7.347  -2.750 128.991  0.00  0.00    +0.040 A 
ATOM      4  C   LIG A   1      -8.277  -3.252 127.968  0.00  0.00    +0.195 C 
ATOM      5  O   LIG A   1      -9.191  -4.003 128.282  0.00  0.00    -0.287 OA
ATOM      6  C   LIG A   1      -8.101  -2.843 126.566  0.00  0.00    +0.037 A 
ATOM      7  C   LIG A   1      -9.005  -3.342 125.615  0.00  0.00    +0.016 A 
ATOM      8  C   LIG A   1      -8.888  -2.988 124.270  0.00  0.00    -0.046 A 
ATOM      9  C   LIG A   1      -9.851  -3.524 123.251  0.00  0.00    +0.044 C 
ATOM     10  C   LIG A   1      -7.848  -2.137 123.888  0.00  0.00    +0.049 A 
ATOM     11  C   LIG A   1      -6.946  -1.640 124.840  0.00  0.00    +0.129 A 
ATOM     12  C   LIG A   1      -7.065  -1.985 126.195  0.00  0.00    +0.074 A 
ATOM     13  C   LIG A   1      -6.136  -1.471 127.244  0.00  0.00    +0.202 C 
ATOM     14  O   LIG A   1      -5.214  -0.703 126.994  0.00  0.00    -0.286 OA
ATOM     15  C   LIG A   1      -6.313  -1.888 128.657  0.00  0.00    +0.075 A 
ATOM     16  C   LIG A   1      -5.445  -1.443 129.676  0.00  0.00    +0.139 A 
ATOM     17  C   LIG A   1      -5.614  -1.848 131.024  0.00  0.00    +0.059 A 
ENDROOT
BRANCH   1  19
ATOM     18  C   LIG A   1      -7.836  -2.647 133.403  0.00  0.00    +0.277 C 
ATOM     19  O   LIG A   1      -6.788  -3.202 132.615  0.00  0.00    -0.494 OA
ENDBRANCH   1  19
BRANCH  11  20
ATOM     20  O   LIG A   1      -5.948  -0.811 124.413  0.00  0.00    -0.506 OA
ATOM     21  H   LIG A   1      -5.340  -0.607 125.141  0.00  0.00    +0.292 HD
ENDBRANCH  11  20
BRANCH  16  22
ATOM     22  O   LIG A   1      -4.394  -0.596 129.389  0.00  0.00    -0.505 OA
ATOM     23  H   LIG A   1      -4.206  -0.047 130.185  0.00  0.00    +0.292 HD
ENDBRANCH  16  22
BRANCH  17  24
ATOM     24  C   LIG A   1      -4.619  -1.418 132.037  0.00  0.00    +0.011 C 
ATOM     25  C   LIG A   1      -3.458  -2.036 132.315  0.00  0.00    -0.023 C 
BRANCH  25  26
ATOM     26  C   LIG A   1      -2.418  -1.479 133.258  0.00  0.00    +0.005 C 
ATOM     27  C   LIG A   1      -2.737  -0.039 133.654  0.00  0.00    +0.011 C 
ATOM     28  C   LIG A   1      -2.330  -2.365 134.504  0.00  0.00    +0.011 C 
ENDBRANCH  25  26
ENDBRANCH  17  24
TORSDOF 5
ENDMDL
MODEL 9
REMARK VINA RESULT:      -7.2      3.857      6.269
REMARK  Name = NuBBE_2088
REMARK  9 active torsions:
REMARK  status: ('A' for Active; 'I' for Inactive)
REMARK    1  A    between atoms: C_1  and  O_2
REMARK    2  A    between atoms: O_2  and  C_3
REMARK    3  A    between atoms: C_10  and  C_11
REMARK    4  A    between atoms: C_13  and  O_14
REMARK    5  A    between atoms: C_19  and  O_20
REMARK    6  A    between atoms: C_21  and  C_22
REMARK    7  A    between atoms: C_23  and  C_24
REMARK    8  A    between atoms: C_24  and  C_25
REMARK    9  A    between atoms: C_24  and  C_26
REMARK                            x       y       z     vdW  Elec       q    Type
REMARK                         _______ _______ _______ _____ _____    ______ ____
ROOT
ATOM      1  C   LIG A   1      -7.780   0.566 129.751  0.00  0.00    +0.131 A 
ATOM      2  C   LIG A   1      -7.066  -0.510 129.220  0.00  0.00    +0.059 A 
ATOM      3  C   LIG A   1      -6.952  -0.683 127.836  0.00  0.00    +0.040 A 
ATOM      4  C   LIG A   1      -6.190  -1.838 127.340  0.00  0.00    +0.195 C 
ATOM      5  O   LIG A   1      -5.693  -2.632 128.127  0.00  0.00    -0.287 OA
ATOM      6  C   LIG A   1      -6.032  -2.033 125.890  0.00  0.00    +0.037 A 
ATOM      7  C   LIG A   1      -5.297  -3.145 125.450  0.00  0.00    +0.016 A 
ATOM      8  C   LIG A   1      -5.113  -3.381 124.086  0.00  0.00    -0.046 A 
ATOM      9  C   LIG A   1      -4.324  -4.567 123.614  0.00  0.00    +0.044 C 
ATOM     10  C   LIG A   1      -5.667  -2.484 123.170  0.00  0.00    +0.049 A 
ATOM     11  C   LIG A   1      -6.401  -1.374 123.612  0.00  0.00    +0.129 A 
ATOM     12  C   LIG A   1      -6.596  -1.136 124.981  0.00  0.00    +0.074 A 
ATOM     13  C   LIG A   1      -7.379   0.024 125.496  0.00  0.00    +0.202 C 
ATOM     14  O   LIG A   1      -7.915   0.843 124.758  0.00  0.00    -0.286 OA
ATOM     15  C   LIG A   1      -7.534   0.221 126.959  0.00  0.00    +0.075 A 
ATOM     16  C   LIG A   1      -8.248   1.317 127.489  0.00  0.00    +0.139 A 
ATOM     17  C   LIG A   1      -8.388   1.504 128.887  0.00  0.00    +0.059 A 
ENDROOT
BRANCH   1  19
ATOM     18  C   LIG A   1      -8.739  -0.014 131.850  0.00  0.00    +0.277 C 
ATOM     19  O   LIG A   1      -7.832   0.794 131.106  0.00  0.00    -0.494 OA
ENDBRANCH   1  19
BRANCH  11  20
ATOM     20  O   LIG A   1      -6.921  -0.528 122.674  0.00  0.00    -0.506 OA
ATOM     21  H   LIG A   1      -7.824  -0.792 122.439  0.00  0.00    +0.292 HD
ENDBRANCH  11  20
BRANCH  16  22
ATOM     22  O   LIG A   1      -8.831   2.248 126.656  0.00  0.00    -0.505 OA
ATOM     23  H   LIG A   1      -8.882   1.870 125.747  0.00  0.00    +0.292 HD
ENDBRANCH  16  22
BRANCH  17  24
ATOM     24  C   LIG A   1      -9.075   2.721 129.386  0.00  0.00    +0.011 C 
ATOM     25  C   LIG A   1      -8.493   3.905 129.646  0.00  0.00    -0.023 C 
BRANCH  25  26
ATOM     26  C   LIG A   1      -9.261   5.150 130.021  0.00  0.00    +0.005 C 
ATOM     27  C   LIG A   1     -10.608   4.806 130.655  0.00  0.00    +0.011 C 
ATOM     28  C   LIG A   1      -8.423   5.999 130.981  0.00  0.00    +0.011 C 
ENDBRANCH  25  26
ENDBRANCH  17  24
TORSDOF 5
ENDMDL
