MODEL 1
REMARK VINA RESULT:      -5.7      0.000      0.000
REMARK  Name = NuBBE_135
REMARK  6 active torsions:
REMARK  status: ('A' for Active; 'I' for Inactive)
REMARK    1  A    between atoms: O_1  and  C_2
REMARK    2  A    between atoms: C_2  and  C_3
REMARK    3  A    between atoms: C_4  and  C_5
REMARK    4  A    between atoms: C_7  and  O_8
REMARK    5  A    between atoms: O_8  and  C_9
REMARK    6  A    between atoms: C_10  and  O_13
REMARK                            x       y       z     vdW  Elec       q    Type
REMARK                         _______ _______ _______ _____ _____    ______ ____
ROOT
ATOM      1  C   LIG A   1     -11.149   6.689 130.947  0.00  0.00    -0.021 A 
ATOM      2  C   LIG A   1     -10.547   7.078 129.736  0.00  0.00    +0.057 A 
ATOM      3  C   LIG A   1     -11.124   8.074 128.943  0.00  0.00    +0.162 A 
ATOM      4  C   LIG A   1     -12.318   8.666 129.367  0.00  0.00    +0.159 A 
ATOM      5  C   LIG A   1     -12.941   8.282 130.546  0.00  0.00    +0.050 A 
ATOM      6  C   LIG A   1     -12.359   7.289 131.332  0.00  0.00    +0.012 A 
ENDROOT
BRANCH   1   8
ATOM      7  C   LIG A   1      -9.506   5.848 132.607  0.00  0.00    +0.092 C 
ATOM      8  C   LIG A   1     -10.516   5.632 131.750  0.00  0.00    +0.015 C 
BRANCH   7   9
ATOM      9  C   LIG A   1      -8.934   4.734 133.370  0.00  0.00    +0.330 C 
ATOM     10  O   LIG A   1      -7.765   4.419 133.462  0.00  0.00    -0.246 OA
BRANCH   9  11
ATOM     11  O   LIG A   1      -9.913   4.056 133.991  0.00  0.00    -0.477 OA
ATOM     12  H   LIG A   1     -10.525   4.755 134.303  0.00  0.00    +0.295 HD
ENDBRANCH   9  11
ENDBRANCH   7   9
ENDBRANCH   1   8
BRANCH   3  13
ATOM     13  O   LIG A   1     -10.633   8.556 127.757  0.00  0.00    -0.491 OA
ATOM     14  C   LIG A   1     -10.834   7.743 126.605  0.00  0.00    +0.277 C 
ENDBRANCH   3  13
BRANCH   4  15
ATOM     15  O   LIG A   1     -12.910   9.645 128.615  0.00  0.00    -0.503 OA
ATOM     16  H   LIG A   1     -12.433   9.629 127.763  0.00  0.00    +0.292 HD
ENDBRANCH   4  15
TORSDOF 5
ENDMDL
MODEL 2
REMARK VINA RESULT:      -5.7      9.912     11.647
REMARK  Name = NuBBE_135
REMARK  6 active torsions:
REMARK  status: ('A' for Active; 'I' for Inactive)
REMARK    1  A    between atoms: O_1  and  C_2
REMARK    2  A    between atoms: C_2  and  C_3
REMARK    3  A    between atoms: C_4  and  C_5
REMARK    4  A    between atoms: C_7  and  O_8
REMARK    5  A    between atoms: O_8  and  C_9
REMARK    6  A    between atoms: C_10  and  O_13
REMARK                            x       y       z     vdW  Elec       q    Type
REMARK                         _______ _______ _______ _____ _____    ______ ____
ROOT
ATOM      1  C   LIG A   1      -7.139   2.898 122.286  0.00  0.00    -0.021 A 
ATOM      2  C   LIG A   1      -6.548   1.737 122.817  0.00  0.00    +0.057 A 
ATOM      3  C   LIG A   1      -7.341   0.716 123.349  0.00  0.00    +0.162 A 
ATOM      4  C   LIG A   1      -8.730   0.876 123.358  0.00  0.00    +0.159 A 
ATOM      5  C   LIG A   1      -9.332   2.022 122.861  0.00  0.00    +0.050 A 
ATOM      6  C   LIG A   1      -8.535   3.035 122.330  0.00  0.00    +0.012 A 
ENDROOT
BRANCH   1   8
ATOM      7  C   LIG A   1      -6.175   4.242 120.434  0.00  0.00    +0.092 C 
ATOM      8  C   LIG A   1      -6.272   3.955 121.741  0.00  0.00    +0.015 C 
BRANCH   7   9
ATOM      9  C   LIG A   1      -5.285   5.315 119.978  0.00  0.00    +0.330 C 
ATOM     10  O   LIG A   1      -4.482   5.944 120.636  0.00  0.00    -0.246 OA
BRANCH   9  11
ATOM     11  O   LIG A   1      -5.475   5.538 118.667  0.00  0.00    -0.477 OA
ATOM     12  H   LIG A   1      -4.861   4.914 118.228  0.00  0.00    +0.295 HD
ENDBRANCH   9  11
ENDBRANCH   7   9
ENDBRANCH   1   8
BRANCH   3  13
ATOM     13  O   LIG A   1      -6.895  -0.468 123.878  0.00  0.00    -0.491 OA
ATOM     14  C   LIG A   1      -6.460  -1.458 122.953  0.00  0.00    +0.277 C 
ENDBRANCH   3  13
BRANCH   4  15
ATOM     15  O   LIG A   1      -9.536  -0.104 123.871  0.00  0.00    -0.503 OA
ATOM     16  H   LIG A   1      -9.381  -0.880 123.299  0.00  0.00    +0.292 HD
ENDBRANCH   4  15
TORSDOF 5
ENDMDL
MODEL 3
REMARK VINA RESULT:      -5.6      8.862     10.488
REMARK  Name = NuBBE_135
REMARK  6 active torsions:
REMARK  status: ('A' for Active; 'I' for Inactive)
REMARK    1  A    between atoms: O_1  and  C_2
REMARK    2  A    between atoms: C_2  and  C_3
REMARK    3  A    between atoms: C_4  and  C_5
REMARK    4  A    between atoms: C_7  and  O_8
REMARK    5  A    between atoms: O_8  and  C_9
REMARK    6  A    between atoms: C_10  and  O_13
REMARK                            x       y       z     vdW  Elec       q    Type
REMARK                         _______ _______ _______ _____ _____    ______ ____
ROOT
ATOM      1  C   LIG A   1      -7.492   3.134 122.353  0.00  0.00    -0.021 A 
ATOM      2  C   LIG A   1      -8.119   3.477 121.140  0.00  0.00    +0.057 A 
ATOM      3  C   LIG A   1      -7.404   4.128 120.131  0.00  0.00    +0.162 A 
ATOM      4  C   LIG A   1      -6.061   4.446 120.353  0.00  0.00    +0.159 A 
ATOM      5  C   LIG A   1      -5.430   4.138 121.549  0.00  0.00    +0.050 A 
ATOM      6  C   LIG A   1      -6.149   3.488 122.551  0.00  0.00    +0.012 A 
ENDROOT
BRANCH   1   8
ATOM      7  C   LIG A   1      -9.532   2.011 123.214  0.00  0.00    +0.092 C 
ATOM      8  C   LIG A   1      -8.279   2.456 123.395  0.00  0.00    +0.015 C 
BRANCH   7   9
ATOM      9  C   LIG A   1     -10.244   1.343 124.309  0.00  0.00    +0.330 C 
ATOM     10  O   LIG A   1      -9.778   0.905 125.340  0.00  0.00    -0.246 OA
BRANCH   9  11
ATOM     11  O   LIG A   1     -11.553   1.263 124.018  0.00  0.00    -0.477 OA
ATOM     12  H   LIG A   1     -11.879   0.536 124.589  0.00  0.00    +0.295 HD
ENDBRANCH   9  11
ENDBRANCH   7   9
ENDBRANCH   1   8
BRANCH   3  13
ATOM     13  O   LIG A   1      -7.888   4.500 118.903  0.00  0.00    -0.491 OA
ATOM     14  C   LIG A   1      -9.292   4.372 118.703  0.00  0.00    +0.277 C 
ENDBRANCH   3  13
BRANCH   4  15
ATOM     15  O   LIG A   1      -5.332   5.084 119.386  0.00  0.00    -0.503 OA
ATOM     16  H   LIG A   1      -5.896   5.056 118.589  0.00  0.00    +0.292 HD
ENDBRANCH   4  15
TORSDOF 5
ENDMDL
MODEL 4
REMARK VINA RESULT:      -5.3      2.866      3.537
REMARK  Name = NuBBE_135
REMARK  6 active torsions:
REMARK  status: ('A' for Active; 'I' for Inactive)
REMARK    1  A    between atoms: O_1  and  C_2
REMARK    2  A    between atoms: C_2  and  C_3
REMARK    3  A    between atoms: C_4  and  C_5
REMARK    4  A    between atoms: C_7  and  O_8
REMARK    5  A    between atoms: O_8  and  C_9
REMARK    6  A    between atoms: C_10  and  O_13
REMARK                            x       y       z     vdW  Elec       q    Type
REMARK                         _______ _______ _______ _____ _____    ______ ____
ROOT
ATOM      1  C   LIG A   1      -8.999   6.587 131.336  0.00  0.00    -0.021 A 
ATOM      2  C   LIG A   1      -9.579   7.151 130.184  0.00  0.00    +0.057 A 
ATOM      3  C   LIG A   1     -10.965   7.295 130.085  0.00  0.00    +0.162 A 
ATOM      4  C   LIG A   1     -11.767   6.857 131.143  0.00  0.00    +0.159 A 
ATOM      5  C   LIG A   1     -11.219   6.278 132.278  0.00  0.00    +0.050 A 
ATOM      6  C   LIG A   1      -9.835   6.138 132.371  0.00  0.00    +0.012 A 
ENDROOT
BRANCH   1   8
ATOM      7  C   LIG A   1      -6.678   7.259 130.770  0.00  0.00    +0.092 C 
ATOM      8  C   LIG A   1      -7.536   6.444 131.401  0.00  0.00    +0.015 C 
BRANCH   7   9
ATOM      9  C   LIG A   1      -5.231   7.044 130.890  0.00  0.00    +0.330 C 
ATOM     10  O   LIG A   1      -4.634   6.505 131.799  0.00  0.00    -0.246 OA
BRANCH   9  11
ATOM     11  O   LIG A   1      -4.605   7.549 129.814  0.00  0.00    -0.477 OA
ATOM     12  H   LIG A   1      -5.091   8.378 129.624  0.00  0.00    +0.295 HD
ENDBRANCH   9  11
ENDBRANCH   7   9
ENDBRANCH   1   8
BRANCH   3  13
ATOM     13  O   LIG A   1     -11.652   7.842 129.031  0.00  0.00    -0.491 OA
ATOM     14  C   LIG A   1     -10.873   8.445 128.003  0.00  0.00    +0.277 C 
ENDBRANCH   3  13
BRANCH   4  15
ATOM     15  O   LIG A   1     -13.128   6.984 131.079  0.00  0.00    -0.503 OA
ATOM     16  H   LIG A   1     -13.381   7.393 131.929  0.00  0.00    +0.292 HD
ENDBRANCH   4  15
TORSDOF 5
ENDMDL
MODEL 5
REMARK VINA RESULT:      -5.1      8.803     11.010
REMARK  Name = NuBBE_135
REMARK  6 active torsions:
REMARK  status: ('A' for Active; 'I' for Inactive)
REMARK    1  A    between atoms: O_1  and  C_2
REMARK    2  A    between atoms: C_2  and  C_3
REMARK    3  A    between atoms: C_4  and  C_5
REMARK    4  A    between atoms: C_7  and  O_8
REMARK    5  A    between atoms: O_8  and  C_9
REMARK    6  A    between atoms: C_10  and  O_13
REMARK                            x       y       z     vdW  Elec       q    Type
REMARK                         _______ _______ _______ _____ _____    ______ ____
ROOT
ATOM      1  C   LIG A   1      -6.636   3.285 122.911  0.00  0.00    -0.021 A 
ATOM      2  C   LIG A   1      -7.944   2.886 122.579  0.00  0.00    +0.057 A 
ATOM      3  C   LIG A   1      -8.695   2.107 123.463  0.00  0.00    +0.162 A 
ATOM      4  C   LIG A   1      -8.118   1.717 124.676  0.00  0.00    +0.159 A 
ATOM      5  C   LIG A   1      -6.822   2.079 125.013  0.00  0.00    +0.050 A 
ATOM      6  C   LIG A   1      -6.080   2.858 124.126  0.00  0.00    +0.012 A 
ENDROOT
BRANCH   1   8
ATOM      7  C   LIG A   1      -6.303   4.390 120.713  0.00  0.00    +0.092 C 
ATOM      8  C   LIG A   1      -5.874   4.099 121.951  0.00  0.00    +0.015 C 
BRANCH   7   9
ATOM      9  C   LIG A   1      -5.478   5.211 119.820  0.00  0.00    +0.330 C 
ATOM     10  O   LIG A   1      -5.528   5.271 118.608  0.00  0.00    -0.246 OA
BRANCH   9  11
ATOM     11  O   LIG A   1      -4.603   5.931 120.541  0.00  0.00    -0.477 OA
ATOM     12  H   LIG A   1      -4.223   6.561 119.894  0.00  0.00    +0.295 HD
ENDBRANCH   9  11
ENDBRANCH   7   9
ENDBRANCH   1   8
BRANCH   3  13
ATOM     13  O   LIG A   1      -9.980   1.669 123.271  0.00  0.00    -0.491 OA
ATOM     14  C   LIG A   1     -10.146   0.514 122.455  0.00  0.00    +0.277 C 
ENDBRANCH   3  13
BRANCH   4  15
ATOM     15  O   LIG A   1      -8.824   0.954 125.565  0.00  0.00    -0.503 OA
ATOM     16  H   LIG A   1      -9.678   1.417 125.670  0.00  0.00    +0.292 HD
ENDBRANCH   4  15
TORSDOF 5
ENDMDL
MODEL 6
REMARK VINA RESULT:      -5.1      1.966      6.051
REMARK  Name = NuBBE_135
REMARK  6 active torsions:
REMARK  status: ('A' for Active; 'I' for Inactive)
REMARK    1  A    between atoms: O_1  and  C_2
REMARK    2  A    between atoms: C_2  and  C_3
REMARK    3  A    between atoms: C_4  and  C_5
REMARK    4  A    between atoms: C_7  and  O_8
REMARK    5  A    between atoms: O_8  and  C_9
REMARK    6  A    between atoms: C_10  and  O_13
REMARK                            x       y       z     vdW  Elec       q    Type
REMARK                         _______ _______ _______ _____ _____    ______ ____
ROOT
ATOM      1  C   LIG A   1      -9.082   6.923 130.788  0.00  0.00    -0.021 A 
ATOM      2  C   LIG A   1      -7.688   6.861 130.977  0.00  0.00    +0.057 A 
ATOM      3  C   LIG A   1      -7.151   6.217 132.094  0.00  0.00    +0.162 A 
ATOM      4  C   LIG A   1      -8.022   5.650 133.030  0.00  0.00    +0.159 A 
ATOM      5  C   LIG A   1      -9.399   5.719 132.876  0.00  0.00    +0.050 A 
ATOM      6  C   LIG A   1      -9.927   6.362 131.757  0.00  0.00    +0.012 A 
ENDROOT
BRANCH   1   8
ATOM      7  C   LIG A   1     -10.919   7.791 129.362  0.00  0.00    +0.092 C 
ATOM      8  C   LIG A   1      -9.610   7.616 129.603  0.00  0.00    +0.015 C 
BRANCH   7   9
ATOM      9  C   LIG A   1     -11.360   8.497 128.154  0.00  0.00    +0.330 C 
ATOM     10  O   LIG A   1     -10.940   8.365 127.022  0.00  0.00    -0.246 OA
BRANCH   9  11
ATOM     11  O   LIG A   1     -12.338   9.363 128.463  0.00  0.00    -0.477 OA
ATOM     12  H   LIG A   1     -11.951   9.913 129.176  0.00  0.00    +0.295 HD
ENDBRANCH   9  11
ENDBRANCH   7   9
ENDBRANCH   1   8
BRANCH   3  13
ATOM     13  O   LIG A   1      -5.819   6.071 132.386  0.00  0.00    -0.491 OA
ATOM     14  C   LIG A   1      -4.900   6.743 131.532  0.00  0.00    +0.277 C 
ENDBRANCH   3  13
BRANCH   4  15
ATOM     15  O   LIG A   1      -7.530   5.012 134.136  0.00  0.00    -0.503 OA
ATOM     16  H   LIG A   1      -7.550   5.686 134.843  0.00  0.00    +0.292 HD
ENDBRANCH   4  15
TORSDOF 5
ENDMDL
MODEL 7
REMARK VINA RESULT:      -5.1     10.951     12.329
REMARK  Name = NuBBE_135
REMARK  6 active torsions:
REMARK  status: ('A' for Active; 'I' for Inactive)
REMARK    1  A    between atoms: O_1  and  C_2
REMARK    2  A    between atoms: C_2  and  C_3
REMARK    3  A    between atoms: C_4  and  C_5
REMARK    4  A    between atoms: C_7  and  O_8
REMARK    5  A    between atoms: O_8  and  C_9
REMARK    6  A    between atoms: C_10  and  O_13
REMARK                            x       y       z     vdW  Elec       q    Type
REMARK                         _______ _______ _______ _____ _____    ______ ____
ROOT
ATOM      1  C   LIG A   1      -7.749  -2.723 127.188  0.00  0.00    -0.021 A 
ATOM      2  C   LIG A   1      -6.438  -2.368 127.557  0.00  0.00    +0.057 A 
ATOM      3  C   LIG A   1      -5.979  -2.600 128.856  0.00  0.00    +0.162 A 
ATOM      4  C   LIG A   1      -6.849  -3.176 129.787  0.00  0.00    +0.159 A 
ATOM      5  C   LIG A   1      -8.152  -3.512 129.451  0.00  0.00    +0.050 A 
ATOM      6  C   LIG A   1      -8.603  -3.279 128.152  0.00  0.00    +0.012 A 
ENDROOT
BRANCH   1   8
ATOM      7  C   LIG A   1      -8.558  -3.414 124.945  0.00  0.00    +0.092 C 
ATOM      8  C   LIG A   1      -8.199  -2.456 125.812  0.00  0.00    +0.015 C 
BRANCH   7   9
ATOM      9  C   LIG A   1      -8.997  -3.059 123.591  0.00  0.00    +0.330 C 
ATOM     10  O   LIG A   1      -8.390  -2.417 122.758  0.00  0.00    -0.246 OA
BRANCH   9  11
ATOM     11  O   LIG A   1     -10.227  -3.551 123.366  0.00  0.00    -0.477 OA
ATOM     12  H   LIG A   1     -10.822  -2.912 123.811  0.00  0.00    +0.295 HD
ENDBRANCH   9  11
ENDBRANCH   7   9
ENDBRANCH   1   8
BRANCH   3  13
ATOM     13  O   LIG A   1      -4.725  -2.320 129.338  0.00  0.00    -0.491 OA
ATOM     14  C   LIG A   1      -3.711  -3.284 129.079  0.00  0.00    +0.277 C 
ENDBRANCH   3  13
BRANCH   4  15
ATOM     15  O   LIG A   1      -6.432  -3.417 131.068  0.00  0.00    -0.503 OA
ATOM     16  H   LIG A   1      -5.791  -4.150 130.988  0.00  0.00    +0.292 HD
ENDBRANCH   4  15
TORSDOF 5
ENDMDL
MODEL 8
REMARK VINA RESULT:      -5.0      8.374     10.447
REMARK  Name = NuBBE_135
REMARK  6 active torsions:
REMARK  status: ('A' for Active; 'I' for Inactive)
REMARK    1  A    between atoms: O_1  and  C_2
REMARK    2  A    between atoms: C_2  and  C_3
REMARK    3  A    between atoms: C_4  and  C_5
REMARK    4  A    between atoms: C_7  and  O_8
REMARK    5  A    between atoms: O_8  and  C_9
REMARK    6  A    between atoms: C_10  and  O_13
REMARK                            x       y       z     vdW  Elec       q    Type
REMARK                         _______ _______ _______ _____ _____    ______ ____
ROOT
ATOM      1  C   LIG A   1      -6.078   3.718 122.177  0.00  0.00    -0.021 A 
ATOM      2  C   LIG A   1      -6.996   3.653 121.112  0.00  0.00    +0.057 A 
ATOM      3  C   LIG A   1      -6.744   4.329 119.916  0.00  0.00    +0.162 A 
ATOM      4  C   LIG A   1      -5.573   5.084 119.800  0.00  0.00    +0.159 A 
ATOM      5  C   LIG A   1      -4.666   5.181 120.845  0.00  0.00    +0.050 A 
ATOM      6  C   LIG A   1      -4.923   4.503 122.035  0.00  0.00    +0.012 A 
ENDROOT
BRANCH   1   8
ATOM      7  C   LIG A   1      -5.854   3.318 124.617  0.00  0.00    +0.092 C 
ATOM      8  C   LIG A   1      -6.381   3.000 123.425  0.00  0.00    +0.015 C 
BRANCH   7   9
ATOM      9  C   LIG A   1      -6.213   2.548 125.813  0.00  0.00    +0.330 C 
ATOM     10  O   LIG A   1      -6.329   1.344 125.913  0.00  0.00    -0.246 OA
BRANCH   9  11
ATOM     11  O   LIG A   1      -6.415   3.380 126.847  0.00  0.00    -0.477 OA
ATOM     12  H   LIG A   1      -5.744   3.107 127.506  0.00  0.00    +0.295 HD
ENDBRANCH   9  11
ENDBRANCH   7   9
ENDBRANCH   1   8
BRANCH   3  13
ATOM     13  O   LIG A   1      -7.543   4.333 118.800  0.00  0.00    -0.491 OA
ATOM     14  C   LIG A   1      -8.949   4.318 119.021  0.00  0.00    +0.277 C 
ENDBRANCH   3  13
BRANCH   4  15
ATOM     15  O   LIG A   1      -5.295   5.758 118.642  0.00  0.00    -0.503 OA
ATOM     16  H   LIG A   1      -6.036   6.386 118.534  0.00  0.00    +0.292 HD
ENDBRANCH   4  15
TORSDOF 5
ENDMDL
MODEL 9
REMARK VINA RESULT:      -5.0     10.021     10.994
REMARK  Name = NuBBE_135
REMARK  6 active torsions:
REMARK  status: ('A' for Active; 'I' for Inactive)
REMARK    1  A    between atoms: O_1  and  C_2
REMARK    2  A    between atoms: C_2  and  C_3
REMARK    3  A    between atoms: C_4  and  C_5
REMARK    4  A    between atoms: C_7  and  O_8
REMARK    5  A    between atoms: O_8  and  C_9
REMARK    6  A    between atoms: C_10  and  O_13
REMARK                            x       y       z     vdW  Elec       q    Type
REMARK                         _______ _______ _______ _____ _____    ______ ____
ROOT
ATOM      1  C   LIG A   1      -6.913  -2.819 128.344  0.00  0.00    -0.021 A 
ATOM      2  C   LIG A   1      -6.857  -2.102 127.134  0.00  0.00    +0.057 A 
ATOM      3  C   LIG A   1      -7.912  -2.167 126.221  0.00  0.00    +0.162 A 
ATOM      4  C   LIG A   1      -9.018  -2.969 126.522  0.00  0.00    +0.159 A 
ATOM      5  C   LIG A   1      -9.084  -3.701 127.698  0.00  0.00    +0.050 A 
ATOM      6  C   LIG A   1      -8.028  -3.631 128.606  0.00  0.00    +0.012 A 
ENDROOT
BRANCH   1   8
ATOM      7  C   LIG A   1      -4.530  -3.114 128.972  0.00  0.00    +0.092 C 
ATOM      8  C   LIG A   1      -5.779  -2.732 129.278  0.00  0.00    +0.015 C 
BRANCH   7   9
ATOM      9  C   LIG A   1      -3.456  -2.992 129.965  0.00  0.00    +0.330 C 
ATOM     10  O   LIG A   1      -3.302  -3.645 130.976  0.00  0.00    -0.246 OA
BRANCH   9  11
ATOM     11  O   LIG A   1      -2.615  -2.008 129.607  0.00  0.00    -0.477 OA
ATOM     12  H   LIG A   1      -2.752  -1.918 128.641  0.00  0.00    +0.295 HD
ENDBRANCH   9  11
ENDBRANCH   7   9
ENDBRANCH   1   8
BRANCH   3  13
ATOM     13  O   LIG A   1      -7.991  -1.508 125.021  0.00  0.00    -0.491 OA
ATOM     14  C   LIG A   1      -8.129  -0.092 125.077  0.00  0.00    +0.277 C 
ENDBRANCH   3  13
BRANCH   4  15
ATOM     15  O   LIG A   1     -10.069  -3.055 125.650  0.00  0.00    -0.503 OA
ATOM     16  H   LIG A   1     -10.410  -3.964 125.759  0.00  0.00    +0.292 HD
ENDBRANCH   4  15
TORSDOF 5
ENDMDL
