MODEL 1
REMARK VINA RESULT:      -7.3      0.000      0.000
REMARK  Name = NuBBE_2201
REMARK  10 active torsions:
REMARK  status: ('A' for Active; 'I' for Inactive)
REMARK    1  A    between atoms: C_1  and  C_2
REMARK    2  A    between atoms: C_2  and  C_3
REMARK    3  A    between atoms: C_7  and  C_8
REMARK    4  A    between atoms: C_7  and  C_10
REMARK    5  A    between atoms: C_14  and  C_15
REMARK    6  A    between atoms: C_15  and  C_16
REMARK    7  A    between atoms: C_16  and  O_17
REMARK    8  A    between atoms: O_17  and  C_18
REMARK    9  A    between atoms: C_21  and  C_22
REMARK   10  A    between atoms: C_21  and  C_23
REMARK                            x       y       z     vdW  Elec       q    Type
REMARK                         _______ _______ _______ _____ _____    ______ ____
ROOT
ATOM      1  C   LIG A   1      -7.806   6.418 131.563  0.00  0.00    +0.012 C 
ATOM      2  C   LIG A   1      -9.060   5.504 131.490  0.00  0.00    -0.019 C 
ATOM      3  C   LIG A   1      -8.716   4.164 130.627  0.00  0.00    +0.012 C 
ATOM      4  C   LIG A   1      -8.299   2.861 131.466  0.00  0.00    -0.031 C 
ATOM      5  C   LIG A   1      -6.768   2.692 131.615  0.00  0.00    +0.011 C 
ATOM      6  C   LIG A   1      -8.828   1.589 130.748  0.00  0.00    +0.011 C 
ATOM      7  C   LIG A   1      -8.921   2.818 132.875  0.00  0.00    +0.007 C 
ATOM      8  C   LIG A   1      -8.677   4.096 133.632  0.00  0.00    +0.001 C 
ATOM      9  C   LIG A   1      -9.471   5.191 132.962  0.00  0.00    +0.007 C 
ENDROOT
BRANCH   2  10
ATOM     10  C   LIG A   1     -10.247   6.372 130.835  0.00  0.00    +0.061 C 
ATOM     11  C   LIG A   1     -11.327   5.552 130.101  0.00  0.00    +0.138 C 
ATOM     12  C   LIG A   1     -12.450   6.327 129.474  0.00  0.00    +0.085 C 
ATOM     13  C   LIG A   1     -11.930   7.372 128.484  0.00  0.00    -0.008 C 
ATOM     14  C   LIG A   1     -11.228   6.676 127.295  0.00  0.00    +0.016 C 
ATOM     15  C   LIG A   1     -10.933   8.283 129.230  0.00  0.00    +0.012 C 
ATOM     16  C   LIG A   1      -9.780   7.511 129.890  0.00  0.00    +0.012 C 
ATOM     17  O   LIG A   1     -11.393   4.322 130.095  0.00  0.00    -0.297 OA
BRANCH  13  18
ATOM     18  C   LIG A   1     -13.066   8.237 127.937  0.00  0.00    -0.028 C 
ATOM     19  C   LIG A   1     -13.508   9.400 128.441  0.00  0.00    +0.004 C 
ENDBRANCH  13  18
ENDBRANCH   2  10
BRANCH   3  20
ATOM     20  C   LIG A   1      -7.728   4.362 129.412  0.00  0.00    +0.125 C 
BRANCH  20  21
ATOM     21  C   LIG A   1      -8.216   3.980 128.025  0.00  0.00    +0.307 C 
ATOM     22  O   LIG A   1      -8.428   2.837 127.640  0.00  0.00    -0.251 OA
BRANCH  21  23
ATOM     23  O   LIG A   1      -8.338   5.078 127.230  0.00  0.00    -0.468 OA
ATOM     24  C   LIG A   1      -8.048   4.815 125.848  0.00  0.00    +0.280 C 
ENDBRANCH  21  23
ENDBRANCH  20  21
ENDBRANCH   3  20
TORSDOF 5
ENDMDL
MODEL 2
REMARK VINA RESULT:      -6.9      6.441      9.616
REMARK  Name = NuBBE_2201
REMARK  10 active torsions:
REMARK  status: ('A' for Active; 'I' for Inactive)
REMARK    1  A    between atoms: C_1  and  C_2
REMARK    2  A    between atoms: C_2  and  C_3
REMARK    3  A    between atoms: C_7  and  C_8
REMARK    4  A    between atoms: C_7  and  C_10
REMARK    5  A    between atoms: C_14  and  C_15
REMARK    6  A    between atoms: C_15  and  C_16
REMARK    7  A    between atoms: C_16  and  O_17
REMARK    8  A    between atoms: O_17  and  C_18
REMARK    9  A    between atoms: C_21  and  C_22
REMARK   10  A    between atoms: C_21  and  C_23
REMARK                            x       y       z     vdW  Elec       q    Type
REMARK                         _______ _______ _______ _____ _____    ______ ____
ROOT
ATOM      1  C   LIG A   1      -5.278  -0.348 126.218  0.00  0.00    +0.012 C 
ATOM      2  C   LIG A   1      -6.330  -1.487 126.302  0.00  0.00    -0.019 C 
ATOM      3  C   LIG A   1      -7.567  -1.172 125.286  0.00  0.00    +0.012 C 
ATOM      4  C   LIG A   1      -7.502  -1.870 123.842  0.00  0.00    -0.031 C 
ATOM      5  C   LIG A   1      -6.879  -0.965 122.752  0.00  0.00    +0.011 C 
ATOM      6  C   LIG A   1      -8.939  -2.225 123.371  0.00  0.00    +0.011 C 
ATOM      7  C   LIG A   1      -6.735  -3.206 123.845  0.00  0.00    +0.007 C 
ATOM      8  C   LIG A   1      -5.378  -3.070 124.484  0.00  0.00    +0.001 C 
ATOM      9  C   LIG A   1      -5.582  -2.812 125.957  0.00  0.00    +0.007 C 
ENDROOT
BRANCH   2  10
ATOM     10  C   LIG A   1      -6.803  -1.590 127.836  0.00  0.00    +0.061 C 
ATOM     11  C   LIG A   1      -5.660  -1.645 128.869  0.00  0.00    +0.138 C 
ATOM     12  C   LIG A   1      -6.062  -1.743 130.313  0.00  0.00    +0.085 C 
ATOM     13  C   LIG A   1      -6.956  -2.960 130.568  0.00  0.00    -0.008 C 
ATOM     14  C   LIG A   1      -6.172  -4.264 130.294  0.00  0.00    +0.016 C 
ATOM     15  C   LIG A   1      -8.174  -2.864 129.625  0.00  0.00    +0.012 C 
ATOM     16  C   LIG A   1      -7.788  -2.751 128.142  0.00  0.00    +0.012 C 
ATOM     17  O   LIG A   1      -4.467  -1.497 128.605  0.00  0.00    -0.297 OA
BRANCH  13  18
ATOM     18  C   LIG A   1      -7.458  -2.991 132.012  0.00  0.00    -0.028 C 
ATOM     19  C   LIG A   1      -7.426  -1.983 132.898  0.00  0.00    +0.004 C 
ENDBRANCH  13  18
ENDBRANCH   2  10
BRANCH   3  20
ATOM     20  C   LIG A   1      -7.960   0.349 125.133  0.00  0.00    +0.125 C 
BRANCH  20  21
ATOM     21  C   LIG A   1      -9.201   0.842 125.857  0.00  0.00    +0.307 C 
ATOM     22  O   LIG A   1      -9.223   1.298 126.994  0.00  0.00    -0.251 OA
BRANCH  21  23
ATOM     23  O   LIG A   1     -10.315   0.663 125.096  0.00  0.00    -0.468 OA
ATOM     24  C   LIG A   1     -10.235   1.302 123.811  0.00  0.00    +0.280 C 
ENDBRANCH  21  23
ENDBRANCH  20  21
ENDBRANCH   3  20
TORSDOF 5
ENDMDL
MODEL 3
REMARK VINA RESULT:      -6.7      5.541      8.718
REMARK  Name = NuBBE_2201
REMARK  10 active torsions:
REMARK  status: ('A' for Active; 'I' for Inactive)
REMARK    1  A    between atoms: C_1  and  C_2
REMARK    2  A    between atoms: C_2  and  C_3
REMARK    3  A    between atoms: C_7  and  C_8
REMARK    4  A    between atoms: C_7  and  C_10
REMARK    5  A    between atoms: C_14  and  C_15
REMARK    6  A    between atoms: C_15  and  C_16
REMARK    7  A    between atoms: C_16  and  O_17
REMARK    8  A    between atoms: O_17  and  C_18
REMARK    9  A    between atoms: C_21  and  C_22
REMARK   10  A    between atoms: C_21  and  C_23
REMARK                            x       y       z     vdW  Elec       q    Type
REMARK                         _______ _______ _______ _____ _____    ______ ____
ROOT
ATOM      1  C   LIG A   1      -6.477  -0.645 122.977  0.00  0.00    +0.012 C 
ATOM      2  C   LIG A   1      -6.568  -1.118 124.453  0.00  0.00    -0.019 C 
ATOM      3  C   LIG A   1      -8.132  -1.299 124.879  0.00  0.00    +0.012 C 
ATOM      4  C   LIG A   1      -8.734  -2.784 124.776  0.00  0.00    -0.031 C 
ATOM      5  C   LIG A   1      -9.464  -3.058 123.440  0.00  0.00    +0.011 C 
ATOM      6  C   LIG A   1      -9.769  -3.005 125.913  0.00  0.00    +0.011 C 
ATOM      7  C   LIG A   1      -7.675  -3.886 124.973  0.00  0.00    +0.007 C 
ATOM      8  C   LIG A   1      -6.482  -3.681 124.076  0.00  0.00    +0.001 C 
ATOM      9  C   LIG A   1      -5.754  -2.446 124.547  0.00  0.00    +0.007 C 
ENDROOT
BRANCH   2  10
ATOM     10  C   LIG A   1      -5.806  -0.024 125.354  0.00  0.00    +0.061 C 
ATOM     11  C   LIG A   1      -6.004  -0.179 126.876  0.00  0.00    +0.138 C 
ATOM     12  C   LIG A   1      -5.311   0.826 127.750  0.00  0.00    +0.085 C 
ATOM     13  C   LIG A   1      -5.711   2.259 127.390  0.00  0.00    -0.008 C 
ATOM     14  C   LIG A   1      -7.216   2.477 127.667  0.00  0.00    +0.016 C 
ATOM     15  C   LIG A   1      -5.409   2.477 125.892  0.00  0.00    +0.012 C 
ATOM     16  C   LIG A   1      -6.099   1.453 124.977  0.00  0.00    +0.012 C 
ATOM     17  O   LIG A   1      -6.584  -1.121 127.417  0.00  0.00    -0.297 OA
BRANCH  13  18
ATOM     18  C   LIG A   1      -4.916   3.282 128.202  0.00  0.00    -0.028 C 
ATOM     19  C   LIG A   1      -3.584   3.318 128.369  0.00  0.00    +0.004 C 
ENDBRANCH  13  18
ENDBRANCH   2  10
BRANCH   3  20
ATOM     20  C   LIG A   1      -9.141  -0.264 124.246  0.00  0.00    +0.125 C 
BRANCH  20  21
ATOM     21  C   LIG A   1      -9.605   0.899 125.108  0.00  0.00    +0.307 C 
ATOM     22  O   LIG A   1      -9.843   0.840 126.308  0.00  0.00    -0.251 OA
BRANCH  21  23
ATOM     23  O   LIG A   1      -9.778   2.023 124.359  0.00  0.00    -0.468 OA
ATOM     24  C   LIG A   1      -9.296   1.889 123.012  0.00  0.00    +0.280 C 
ENDBRANCH  21  23
ENDBRANCH  20  21
ENDBRANCH   3  20
TORSDOF 5
ENDMDL
MODEL 4
REMARK VINA RESULT:      -6.7      5.767      8.504
REMARK  Name = NuBBE_2201
REMARK  10 active torsions:
REMARK  status: ('A' for Active; 'I' for Inactive)
REMARK    1  A    between atoms: C_1  and  C_2
REMARK    2  A    between atoms: C_2  and  C_3
REMARK    3  A    between atoms: C_7  and  C_8
REMARK    4  A    between atoms: C_7  and  C_10
REMARK    5  A    between atoms: C_14  and  C_15
REMARK    6  A    between atoms: C_15  and  C_16
REMARK    7  A    between atoms: C_16  and  O_17
REMARK    8  A    between atoms: O_17  and  C_18
REMARK    9  A    between atoms: C_21  and  C_22
REMARK   10  A    between atoms: C_21  and  C_23
REMARK                            x       y       z     vdW  Elec       q    Type
REMARK                         _______ _______ _______ _____ _____    ______ ____
ROOT
ATOM      1  C   LIG A   1      -9.767   0.268 125.830  0.00  0.00    +0.012 C 
ATOM      2  C   LIG A   1      -8.345   0.068 125.238  0.00  0.00    -0.019 C 
ATOM      3  C   LIG A   1      -7.852  -1.465 125.497  0.00  0.00    +0.012 C 
ATOM      4  C   LIG A   1      -8.074  -2.501 124.291  0.00  0.00    -0.031 C 
ATOM      5  C   LIG A   1      -9.387  -3.310 124.413  0.00  0.00    +0.011 C 
ATOM      6  C   LIG A   1      -6.908  -3.528 124.267  0.00  0.00    +0.011 C 
ATOM      7  C   LIG A   1      -8.054  -1.833 122.903  0.00  0.00    +0.007 C 
ATOM      8  C   LIG A   1      -8.992  -0.657 122.835  0.00  0.00    +0.001 C 
ATOM      9  C   LIG A   1      -8.438   0.430 123.723  0.00  0.00    +0.007 C 
ENDROOT
BRANCH   2  10
ATOM     10  C   LIG A   1      -7.381   1.152 125.932  0.00  0.00    +0.061 C 
ATOM     11  C   LIG A   1      -7.834   2.619 125.784  0.00  0.00    +0.138 C 
ATOM     12  C   LIG A   1      -6.958   3.661 126.416  0.00  0.00    +0.085 C 
ATOM     13  C   LIG A   1      -5.520   3.581 125.896  0.00  0.00    -0.008 C 
ATOM     14  C   LIG A   1      -5.482   3.908 124.385  0.00  0.00    +0.016 C 
ATOM     15  C   LIG A   1      -5.001   2.150 126.144  0.00  0.00    +0.012 C 
ATOM     16  C   LIG A   1      -5.888   1.063 125.515  0.00  0.00    +0.012 C 
ATOM     17  O   LIG A   1      -8.905   2.977 125.294  0.00  0.00    -0.297 OA
BRANCH  13  18
ATOM     18  C   LIG A   1      -4.606   4.565 126.627  0.00  0.00    -0.028 C 
ATOM     19  C   LIG A   1      -3.386   4.312 127.127  0.00  0.00    +0.004 C 
ENDBRANCH  13  18
ENDBRANCH   2  10
BRANCH   3  20
ATOM     20  C   LIG A   1      -8.313  -2.116 126.859  0.00  0.00    +0.125 C 
BRANCH  20  21
ATOM     21  C   LIG A   1      -7.241  -2.513 127.860  0.00  0.00    +0.307 C 
ATOM     22  O   LIG A   1      -7.411  -3.245 128.827  0.00  0.00    -0.251 OA
BRANCH  21  23
ATOM     23  O   LIG A   1      -6.058  -1.901 127.577  0.00  0.00    -0.468 OA
ATOM     24  C   LIG A   1      -4.957  -2.406 128.350  0.00  0.00    +0.280 C 
ENDBRANCH  21  23
ENDBRANCH  20  21
ENDBRANCH   3  20
TORSDOF 5
ENDMDL
MODEL 5
REMARK VINA RESULT:      -6.6      5.172      8.596
REMARK  Name = NuBBE_2201
REMARK  10 active torsions:
REMARK  status: ('A' for Active; 'I' for Inactive)
REMARK    1  A    between atoms: C_1  and  C_2
REMARK    2  A    between atoms: C_2  and  C_3
REMARK    3  A    between atoms: C_7  and  C_8
REMARK    4  A    between atoms: C_7  and  C_10
REMARK    5  A    between atoms: C_14  and  C_15
REMARK    6  A    between atoms: C_15  and  C_16
REMARK    7  A    between atoms: C_16  and  O_17
REMARK    8  A    between atoms: O_17  and  C_18
REMARK    9  A    between atoms: C_21  and  C_22
REMARK   10  A    between atoms: C_21  and  C_23
REMARK                            x       y       z     vdW  Elec       q    Type
REMARK                         _______ _______ _______ _____ _____    ______ ____
ROOT
ATOM      1  C   LIG A   1      -7.155  -3.104 130.821  0.00  0.00    +0.012 C 
ATOM      2  C   LIG A   1      -6.237  -2.598 129.674  0.00  0.00    -0.019 C 
ATOM      3  C   LIG A   1      -6.086  -0.977 129.764  0.00  0.00    +0.012 C 
ATOM      4  C   LIG A   1      -4.784  -0.422 130.523  0.00  0.00    -0.031 C 
ATOM      5  C   LIG A   1      -5.036  -0.097 132.014  0.00  0.00    +0.011 C 
ATOM      6  C   LIG A   1      -4.309   0.893 129.845  0.00  0.00    +0.011 C 
ATOM      7  C   LIG A   1      -3.578  -1.377 130.442  0.00  0.00    +0.007 C 
ATOM      8  C   LIG A   1      -3.943  -2.775 130.868  0.00  0.00    +0.001 C 
ATOM      9  C   LIG A   1      -4.877  -3.347 129.829  0.00  0.00    +0.007 C 
ENDROOT
BRANCH   2  10
ATOM     10  C   LIG A   1      -6.895  -3.080 128.287  0.00  0.00    +0.061 C 
ATOM     11  C   LIG A   1      -6.449  -2.286 127.043  0.00  0.00    +0.138 C 
ATOM     12  C   LIG A   1      -7.044  -2.705 125.729  0.00  0.00    +0.085 C 
ATOM     13  C   LIG A   1      -8.574  -2.663 125.763  0.00  0.00    -0.008 C 
ATOM     14  C   LIG A   1      -9.063  -1.211 125.965  0.00  0.00    +0.016 C 
ATOM     15  C   LIG A   1      -9.050  -3.551 126.932  0.00  0.00    +0.012 C 
ATOM     16  C   LIG A   1      -8.446  -3.149 128.287  0.00  0.00    +0.012 C 
ATOM     17  O   LIG A   1      -5.568  -1.427 127.036  0.00  0.00    -0.297 OA
BRANCH  13  18
ATOM     18  C   LIG A   1      -9.176  -3.201 124.465  0.00  0.00    -0.028 C 
ATOM     19  C   LIG A   1      -9.105  -2.637 123.249  0.00  0.00    +0.004 C 
ENDBRANCH  13  18
ENDBRANCH   2  10
BRANCH   3  20
ATOM     20  C   LIG A   1      -7.367  -0.192 130.247  0.00  0.00    +0.125 C 
BRANCH  20  21
ATOM     21  C   LIG A   1      -7.936   0.877 129.330  0.00  0.00    +0.307 C 
ATOM     22  O   LIG A   1      -7.631   1.038 128.155  0.00  0.00    -0.251 OA
BRANCH  21  23
ATOM     23  O   LIG A   1      -8.804   1.685 130.000  0.00  0.00    -0.468 OA
ATOM     24  C   LIG A   1      -8.765   3.052 129.559  0.00  0.00    +0.280 C 
ENDBRANCH  21  23
ENDBRANCH  20  21
ENDBRANCH   3  20
TORSDOF 5
ENDMDL
MODEL 6
REMARK VINA RESULT:      -6.6      7.046      8.961
REMARK  Name = NuBBE_2201
REMARK  10 active torsions:
REMARK  status: ('A' for Active; 'I' for Inactive)
REMARK    1  A    between atoms: C_1  and  C_2
REMARK    2  A    between atoms: C_2  and  C_3
REMARK    3  A    between atoms: C_7  and  C_8
REMARK    4  A    between atoms: C_7  and  C_10
REMARK    5  A    between atoms: C_14  and  C_15
REMARK    6  A    between atoms: C_15  and  C_16
REMARK    7  A    between atoms: C_16  and  O_17
REMARK    8  A    between atoms: O_17  and  C_18
REMARK    9  A    between atoms: C_21  and  C_22
REMARK   10  A    between atoms: C_21  and  C_23
REMARK                            x       y       z     vdW  Elec       q    Type
REMARK                         _______ _______ _______ _____ _____    ______ ____
ROOT
ATOM      1  C   LIG A   1      -7.966  -1.989 130.351  0.00  0.00    +0.012 C 
ATOM      2  C   LIG A   1      -6.953  -2.482 129.282  0.00  0.00    -0.019 C 
ATOM      3  C   LIG A   1      -5.523  -1.727 129.486  0.00  0.00    +0.012 C 
ATOM      4  C   LIG A   1      -4.412  -2.517 130.335  0.00  0.00    -0.031 C 
ATOM      5  C   LIG A   1      -4.396  -2.130 131.833  0.00  0.00    +0.011 C 
ATOM      6  C   LIG A   1      -3.001  -2.200 129.768  0.00  0.00    +0.011 C 
ATOM      7  C   LIG A   1      -4.550  -4.049 130.242  0.00  0.00    +0.007 C 
ATOM      8  C   LIG A   1      -5.951  -4.504 130.557  0.00  0.00    +0.001 C 
ATOM      9  C   LIG A   1      -6.853  -4.031 129.443  0.00  0.00    +0.007 C 
ENDROOT
BRANCH   2  10
ATOM     10  C   LIG A   1      -7.603  -2.192 127.838  0.00  0.00    +0.061 C 
ATOM     11  C   LIG A   1      -8.726  -3.163 127.421  0.00  0.00    +0.138 C 
ATOM     12  C   LIG A   1      -9.356  -2.926 126.078  0.00  0.00    +0.085 C 
ATOM     13  C   LIG A   1      -8.314  -2.937 124.957  0.00  0.00    -0.008 C 
ATOM     14  C   LIG A   1      -7.670  -4.338 124.841  0.00  0.00    +0.016 C 
ATOM     15  C   LIG A   1      -7.238  -1.884 125.294  0.00  0.00    +0.012 C 
ATOM     16  C   LIG A   1      -6.586  -2.099 126.669  0.00  0.00    +0.012 C 
ATOM     17  O   LIG A   1      -9.213  -4.029 128.149  0.00  0.00    -0.297 OA
BRANCH  13  18
ATOM     18  C   LIG A   1      -8.941  -2.579 123.609  0.00  0.00    -0.028 C 
ATOM     19  C   LIG A   1      -8.307  -2.096 122.529  0.00  0.00    +0.004 C 
ENDBRANCH  13  18
ENDBRANCH   2  10
BRANCH   3  20
ATOM     20  C   LIG A   1      -5.599  -0.225 129.965  0.00  0.00    +0.125 C 
BRANCH  20  21
ATOM     21  C   LIG A   1      -5.035   0.847 129.048  0.00  0.00    +0.307 C 
ATOM     22  O   LIG A   1      -4.028   1.508 129.268  0.00  0.00    -0.251 OA
BRANCH  21  23
ATOM     23  O   LIG A   1      -5.829   1.024 127.957  0.00  0.00    -0.468 OA
ATOM     24  C   LIG A   1      -5.096   1.356 126.767  0.00  0.00    +0.280 C 
ENDBRANCH  21  23
ENDBRANCH  20  21
ENDBRANCH   3  20
TORSDOF 5
ENDMDL
MODEL 7
REMARK VINA RESULT:      -6.5      5.401      9.660
REMARK  Name = NuBBE_2201
REMARK  10 active torsions:
REMARK  status: ('A' for Active; 'I' for Inactive)
REMARK    1  A    between atoms: C_1  and  C_2
REMARK    2  A    between atoms: C_2  and  C_3
REMARK    3  A    between atoms: C_7  and  C_8
REMARK    4  A    between atoms: C_7  and  C_10
REMARK    5  A    between atoms: C_14  and  C_15
REMARK    6  A    between atoms: C_15  and  C_16
REMARK    7  A    between atoms: C_16  and  O_17
REMARK    8  A    between atoms: O_17  and  C_18
REMARK    9  A    between atoms: C_21  and  C_22
REMARK   10  A    between atoms: C_21  and  C_23
REMARK                            x       y       z     vdW  Elec       q    Type
REMARK                         _______ _______ _______ _____ _____    ______ ____
ROOT
ATOM      1  C   LIG A   1      -5.326  -1.704 124.511  0.00  0.00    +0.012 C 
ATOM      2  C   LIG A   1      -6.763  -1.809 125.091  0.00  0.00    -0.019 C 
ATOM      3  C   LIG A   1      -7.397  -0.316 125.266  0.00  0.00    +0.012 C 
ATOM      4  C   LIG A   1      -8.338   0.205 124.074  0.00  0.00    -0.031 C 
ATOM      5  C   LIG A   1      -7.585   1.065 123.031  0.00  0.00    +0.011 C 
ATOM      6  C   LIG A   1      -9.474   1.090 124.657  0.00  0.00    +0.011 C 
ATOM      7  C   LIG A   1      -9.056  -0.933 123.323  0.00  0.00    +0.007 C 
ATOM      8  C   LIG A   1      -8.094  -2.001 122.875  0.00  0.00    +0.001 C 
ATOM      9  C   LIG A   1      -7.577  -2.705 124.107  0.00  0.00    +0.007 C 
ENDROOT
BRANCH   2  10
ATOM     10  C   LIG A   1      -6.659  -2.602 126.487  0.00  0.00    +0.061 C 
ATOM     11  C   LIG A   1      -7.991  -2.765 127.246  0.00  0.00    +0.138 C 
ATOM     12  C   LIG A   1      -7.934  -3.498 128.556  0.00  0.00    +0.085 C 
ATOM     13  C   LIG A   1      -6.943  -2.847 129.524  0.00  0.00    -0.008 C 
ATOM     14  C   LIG A   1      -7.419  -1.424 129.897  0.00  0.00    +0.016 C 
ATOM     15  C   LIG A   1      -5.567  -2.782 128.827  0.00  0.00    +0.012 C 
ATOM     16  C   LIG A   1      -5.602  -2.046 127.479  0.00  0.00    +0.012 C 
ATOM     17  O   LIG A   1      -9.095  -2.445 126.805  0.00  0.00    -0.297 OA
BRANCH  13  18
ATOM     18  C   LIG A   1      -6.801  -3.663 130.809  0.00  0.00    -0.028 C 
ATOM     19  C   LIG A   1      -5.771  -4.453 131.152  0.00  0.00    +0.004 C 
ENDBRANCH  13  18
ENDBRANCH   2  10
BRANCH   3  20
ATOM     20  C   LIG A   1      -6.384   0.817 125.688  0.00  0.00    +0.125 C 
BRANCH  20  21
ATOM     21  C   LIG A   1      -6.611   1.522 127.015  0.00  0.00    +0.307 C 
ATOM     22  O   LIG A   1      -5.909   2.414 127.471  0.00  0.00    -0.251 OA
BRANCH  21  23
ATOM     23  O   LIG A   1      -7.681   0.993 127.671  0.00  0.00    -0.468 OA
ATOM     24  C   LIG A   1      -8.483   1.981 128.339  0.00  0.00    +0.280 C 
ENDBRANCH  21  23
ENDBRANCH  20  21
ENDBRANCH   3  20
TORSDOF 5
ENDMDL
MODEL 8
REMARK VINA RESULT:      -6.4      2.780      5.682
REMARK  Name = NuBBE_2201
REMARK  10 active torsions:
REMARK  status: ('A' for Active; 'I' for Inactive)
REMARK    1  A    between atoms: C_1  and  C_2
REMARK    2  A    between atoms: C_2  and  C_3
REMARK    3  A    between atoms: C_7  and  C_8
REMARK    4  A    between atoms: C_7  and  C_10
REMARK    5  A    between atoms: C_14  and  C_15
REMARK    6  A    between atoms: C_15  and  C_16
REMARK    7  A    between atoms: C_16  and  O_17
REMARK    8  A    between atoms: O_17  and  C_18
REMARK    9  A    between atoms: C_21  and  C_22
REMARK   10  A    between atoms: C_21  and  C_23
REMARK                            x       y       z     vdW  Elec       q    Type
REMARK                         _______ _______ _______ _____ _____    ______ ____
ROOT
ATOM      1  C   LIG A   1      -7.877   3.546 132.233  0.00  0.00    +0.012 C 
ATOM      2  C   LIG A   1      -7.812   5.024 131.758  0.00  0.00    -0.019 C 
ATOM      3  C   LIG A   1      -8.527   5.165 130.299  0.00  0.00    +0.012 C 
ATOM      4  C   LIG A   1     -10.061   5.642 130.298  0.00  0.00    -0.031 C 
ATOM      5  C   LIG A   1     -11.067   4.468 130.250  0.00  0.00    +0.011 C 
ATOM      6  C   LIG A   1     -10.330   6.522 129.047  0.00  0.00    +0.011 C 
ATOM      7  C   LIG A   1     -10.424   6.530 131.503  0.00  0.00    +0.007 C 
ATOM      8  C   LIG A   1     -10.016   5.896 132.807  0.00  0.00    +0.001 C 
ATOM      9  C   LIG A   1      -8.508   5.878 132.863  0.00  0.00    +0.007 C 
ENDROOT
BRANCH   2  10
ATOM     10  C   LIG A   1      -6.261   5.450 131.728  0.00  0.00    +0.061 C 
ATOM     11  C   LIG A   1      -5.962   6.777 131.003  0.00  0.00    +0.138 C 
ATOM     12  C   LIG A   1      -4.524   7.207 130.951  0.00  0.00    +0.085 C 
ATOM     13  C   LIG A   1      -3.637   6.135 130.311  0.00  0.00    -0.008 C 
ATOM     14  C   LIG A   1      -4.034   5.931 128.830  0.00  0.00    +0.016 C 
ATOM     15  C   LIG A   1      -3.830   4.823 131.099  0.00  0.00    +0.012 C 
ATOM     16  C   LIG A   1      -5.295   4.368 131.174  0.00  0.00    +0.012 C 
ATOM     17  O   LIG A   1      -6.818   7.551 130.573  0.00  0.00    -0.297 OA
BRANCH  13  18
ATOM     18  C   LIG A   1      -2.160   6.526 130.367  0.00  0.00    -0.028 C 
ATOM     19  C   LIG A   1      -1.306   6.304 131.378  0.00  0.00    +0.004 C 
ENDBRANCH  13  18
ENDBRANCH   2  10
BRANCH   3  20
ATOM     20  C   LIG A   1      -8.343   3.942 129.320  0.00  0.00    +0.125 C 
BRANCH  20  21
ATOM     21  C   LIG A   1      -7.554   4.163 128.041  0.00  0.00    +0.307 C 
ATOM     22  O   LIG A   1      -6.408   3.779 127.840  0.00  0.00    -0.251 OA
BRANCH  21  23
ATOM     23  O   LIG A   1      -8.268   4.902 127.148  0.00  0.00    -0.468 OA
ATOM     24  C   LIG A   1      -7.938   4.615 125.779  0.00  0.00    +0.280 C 
ENDBRANCH  21  23
ENDBRANCH  20  21
ENDBRANCH   3  20
TORSDOF 5
ENDMDL
MODEL 9
REMARK VINA RESULT:      -6.3      5.671      8.956
REMARK  Name = NuBBE_2201
REMARK  10 active torsions:
REMARK  status: ('A' for Active; 'I' for Inactive)
REMARK    1  A    between atoms: C_1  and  C_2
REMARK    2  A    between atoms: C_2  and  C_3
REMARK    3  A    between atoms: C_7  and  C_8
REMARK    4  A    between atoms: C_7  and  C_10
REMARK    5  A    between atoms: C_14  and  C_15
REMARK    6  A    between atoms: C_15  and  C_16
REMARK    7  A    between atoms: C_16  and  O_17
REMARK    8  A    between atoms: O_17  and  C_18
REMARK    9  A    between atoms: C_21  and  C_22
REMARK   10  A    between atoms: C_21  and  C_23
REMARK                            x       y       z     vdW  Elec       q    Type
REMARK                         _______ _______ _______ _____ _____    ______ ____
ROOT
ATOM      1  C   LIG A   1      -6.557  -3.851 129.692  0.00  0.00    +0.012 C 
ATOM      2  C   LIG A   1      -5.959  -2.516 129.168  0.00  0.00    -0.019 C 
ATOM      3  C   LIG A   1      -6.099  -1.363 130.313  0.00  0.00    +0.012 C 
ATOM      4  C   LIG A   1      -4.814  -1.120 131.244  0.00  0.00    -0.031 C 
ATOM      5  C   LIG A   1      -4.863  -1.907 132.575  0.00  0.00    +0.011 C 
ATOM      6  C   LIG A   1      -4.715   0.387 131.610  0.00  0.00    +0.011 C 
ATOM      7  C   LIG A   1      -3.482  -1.454 130.543  0.00  0.00    +0.007 C 
ATOM      8  C   LIG A   1      -3.502  -2.831 129.933  0.00  0.00    +0.001 C 
ATOM      9  C   LIG A   1      -4.477  -2.813 128.781  0.00  0.00    +0.007 C 
ENDROOT
BRANCH   2  10
ATOM     10  C   LIG A   1      -6.742  -2.140 127.814  0.00  0.00    +0.061 C 
ATOM     11  C   LIG A   1      -8.132  -2.790 127.662  0.00  0.00    +0.138 C 
ATOM     12  C   LIG A   1      -8.894  -2.466 126.409  0.00  0.00    +0.085 C 
ATOM     13  C   LIG A   1      -8.092  -2.820 125.154  0.00  0.00    -0.008 C 
ATOM     14  C   LIG A   1      -7.863  -4.348 125.083  0.00  0.00    +0.016 C 
ATOM     15  C   LIG A   1      -6.739  -2.082 125.226  0.00  0.00    +0.012 C 
ATOM     16  C   LIG A   1      -5.946  -2.390 126.506  0.00  0.00    +0.012 C 
ATOM     17  O   LIG A   1      -8.698  -3.451 128.534  0.00  0.00    -0.297 OA
BRANCH  13  18
ATOM     18  C   LIG A   1      -8.821  -2.380 123.884  0.00  0.00    -0.028 C 
ATOM     19  C   LIG A   1      -9.660  -3.118 123.140  0.00  0.00    +0.004 C 
ENDBRANCH  13  18
ENDBRANCH   2  10
BRANCH   3  20
ATOM     20  C   LIG A   1      -7.402  -1.429 131.201  0.00  0.00    +0.125 C 
BRANCH  20  21
ATOM     21  C   LIG A   1      -8.415  -0.304 131.066  0.00  0.00    +0.307 C 
ATOM     22  O   LIG A   1      -9.352  -0.102 131.828  0.00  0.00    -0.251 OA
BRANCH  21  23
ATOM     23  O   LIG A   1      -8.182   0.432 129.945  0.00  0.00    -0.468 OA
ATOM     24  C   LIG A   1      -8.299   1.848 130.160  0.00  0.00    +0.280 C 
ENDBRANCH  21  23
ENDBRANCH  20  21
ENDBRANCH   3  20
TORSDOF 5
ENDMDL
