MODEL 1
REMARK VINA RESULT:      -4.5      0.000      0.000
REMARK  Name = NuBBE_2134
REMARK  1 active torsions:
REMARK  status: ('A' for Active; 'I' for Inactive)
REMARK    1  A    between atoms: C_1  and  C_2
REMARK                            x       y       z     vdW  Elec       q    Type
REMARK                         _______ _______ _______ _____ _____    ______ ____
ROOT
ATOM      1  C   LIG A   1     -12.856   7.354 131.033  0.00  0.00    +0.038 C 
ATOM      2  C   LIG A   1     -12.357   7.483 129.619  0.00  0.00    -0.076 C 
ATOM      3  C   LIG A   1     -11.177   8.050 129.341  0.00  0.00    -0.028 C 
ATOM      4  C   LIG A   1     -10.622   8.231 127.972  0.00  0.00    +0.027 C 
ATOM      5  C   LIG A   1     -11.456   7.703 126.809  0.00  0.00    +0.004 C 
ATOM      6  C   LIG A   1     -12.799   7.044 127.109  0.00  0.00    +0.005 C 
ATOM      7  C   LIG A   1     -13.268   6.945 128.559  0.00  0.00    +0.030 C 
ENDROOT
TORSDOF 0
ENDMDL
MODEL 2
REMARK VINA RESULT:      -4.5      1.830      2.539
REMARK  Name = NuBBE_2134
REMARK  1 active torsions:
REMARK  status: ('A' for Active; 'I' for Inactive)
REMARK    1  A    between atoms: C_1  and  C_2
REMARK                            x       y       z     vdW  Elec       q    Type
REMARK                         _______ _______ _______ _____ _____    ______ ____
ROOT
ATOM      1  C   LIG A   1     -13.335  10.785 129.834  0.00  0.00    +0.038 C 
ATOM      2  C   LIG A   1     -13.174   9.316 129.556  0.00  0.00    -0.076 C 
ATOM      3  C   LIG A   1     -12.750   8.466 130.500  0.00  0.00    -0.028 C 
ATOM      4  C   LIG A   1     -12.548   7.005 130.301  0.00  0.00    +0.027 C 
ATOM      5  C   LIG A   1     -12.877   6.440 128.922  0.00  0.00    +0.004 C 
ATOM      6  C   LIG A   1     -13.372   7.393 127.837  0.00  0.00    +0.005 C 
ATOM      7  C   LIG A   1     -13.510   8.879 128.163  0.00  0.00    +0.030 C 
ENDROOT
TORSDOF 0
ENDMDL
MODEL 3
REMARK VINA RESULT:      -4.3      1.328      3.341
REMARK  Name = NuBBE_2134
REMARK  1 active torsions:
REMARK  status: ('A' for Active; 'I' for Inactive)
REMARK    1  A    between atoms: C_1  and  C_2
REMARK                            x       y       z     vdW  Elec       q    Type
REMARK                         _______ _______ _______ _____ _____    ______ ____
ROOT
ATOM      1  C   LIG A   1     -10.766   8.467 127.854  0.00  0.00    +0.038 C 
ATOM      2  C   LIG A   1     -11.059   7.843 129.191  0.00  0.00    -0.076 C 
ATOM      3  C   LIG A   1     -10.117   7.189 129.881  0.00  0.00    -0.028 C 
ATOM      4  C   LIG A   1     -10.330   6.531 131.199  0.00  0.00    +0.027 C 
ATOM      5  C   LIG A   1     -11.723   6.639 131.812  0.00  0.00    +0.004 C 
ATOM      6  C   LIG A   1     -12.807   7.390 131.044  0.00  0.00    +0.005 C 
ATOM      7  C   LIG A   1     -12.465   7.998 129.684  0.00  0.00    +0.030 C 
ENDROOT
TORSDOF 0
ENDMDL
MODEL 4
REMARK VINA RESULT:      -4.3     11.858     12.752
REMARK  Name = NuBBE_2134
REMARK  1 active torsions:
REMARK  status: ('A' for Active; 'I' for Inactive)
REMARK    1  A    between atoms: C_1  and  C_2
REMARK                            x       y       z     vdW  Elec       q    Type
REMARK                         _______ _______ _______ _____ _____    ______ ____
ROOT
ATOM      1  C   LIG A   1      -4.815  -3.011 123.691  0.00  0.00    +0.038 C 
ATOM      2  C   LIG A   1      -6.310  -2.883 123.587  0.00  0.00    -0.076 C 
ATOM      3  C   LIG A   1      -6.882  -2.000 122.760  0.00  0.00    -0.028 C 
ATOM      4  C   LIG A   1      -8.350  -1.799 122.611  0.00  0.00    +0.027 C 
ATOM      5  C   LIG A   1      -9.260  -2.691 123.451  0.00  0.00    +0.004 C 
ATOM      6  C   LIG A   1      -8.625  -3.710 124.392  0.00  0.00    +0.005 C 
ATOM      7  C   LIG A   1      -7.102  -3.797 124.471  0.00  0.00    +0.030 C 
ENDROOT
TORSDOF 0
ENDMDL
MODEL 5
REMARK VINA RESULT:      -4.3      1.566      3.314
REMARK  Name = NuBBE_2134
REMARK  1 active torsions:
REMARK  status: ('A' for Active; 'I' for Inactive)
REMARK    1  A    between atoms: C_1  and  C_2
REMARK                            x       y       z     vdW  Elec       q    Type
REMARK                         _______ _______ _______ _____ _____    ______ ____
ROOT
ATOM      1  C   LIG A   1     -13.088   8.937 128.555  0.00  0.00    +0.038 C 
ATOM      2  C   LIG A   1     -12.229   8.118 129.480  0.00  0.00    -0.076 C 
ATOM      3  C   LIG A   1     -12.737   7.525 130.566  0.00  0.00    -0.028 C 
ATOM      4  C   LIG A   1     -11.954   6.714 131.538  0.00  0.00    +0.027 C 
ATOM      5  C   LIG A   1     -10.466   6.531 131.249  0.00  0.00    +0.004 C 
ATOM      6  C   LIG A   1      -9.873   7.192 130.009  0.00  0.00    +0.005 C 
ATOM      7  C   LIG A   1     -10.782   8.023 129.105  0.00  0.00    +0.030 C 
ENDROOT
TORSDOF 0
ENDMDL
MODEL 6
REMARK VINA RESULT:      -4.2      1.406      2.737
REMARK  Name = NuBBE_2134
REMARK  1 active torsions:
REMARK  status: ('A' for Active; 'I' for Inactive)
REMARK    1  A    between atoms: C_1  and  C_2
REMARK                            x       y       z     vdW  Elec       q    Type
REMARK                         _______ _______ _______ _____ _____    ______ ____
ROOT
ATOM      1  C   LIG A   1      -9.016   7.108 130.459  0.00  0.00    +0.038 C 
ATOM      2  C   LIG A   1     -10.393   7.393 129.925  0.00  0.00    -0.076 C 
ATOM      3  C   LIG A   1     -11.493   6.990 130.572  0.00  0.00    -0.028 C 
ATOM      4  C   LIG A   1     -12.887   7.216 130.103  0.00  0.00    +0.027 C 
ATOM      5  C   LIG A   1     -13.064   7.988 128.798  0.00  0.00    +0.004 C 
ATOM      6  C   LIG A   1     -11.821   8.464 128.053  0.00  0.00    +0.005 C 
ATOM      7  C   LIG A   1     -10.443   8.142 128.629  0.00  0.00    +0.030 C 
ENDROOT
TORSDOF 0
ENDMDL
MODEL 7
REMARK VINA RESULT:      -4.1      1.876      3.312
REMARK  Name = NuBBE_2134
REMARK  1 active torsions:
REMARK  status: ('A' for Active; 'I' for Inactive)
REMARK    1  A    between atoms: C_1  and  C_2
REMARK                            x       y       z     vdW  Elec       q    Type
REMARK                         _______ _______ _______ _____ _____    ______ ____
ROOT
ATOM      1  C   LIG A   1      -8.451   6.491 131.012  0.00  0.00    +0.038 C 
ATOM      2  C   LIG A   1      -9.846   6.943 130.674  0.00  0.00    -0.076 C 
ATOM      3  C   LIG A   1     -10.101   7.674 129.583  0.00  0.00    -0.028 C 
ATOM      4  C   LIG A   1     -11.447   8.174 129.189  0.00  0.00    +0.027 C 
ATOM      5  C   LIG A   1     -12.619   7.797 130.091  0.00  0.00    +0.004 C 
ATOM      6  C   LIG A   1     -12.347   6.956 131.334  0.00  0.00    +0.005 C 
ATOM      7  C   LIG A   1     -10.912   6.529 131.641  0.00  0.00    +0.030 C 
ENDROOT
TORSDOF 0
ENDMDL
MODEL 8
REMARK VINA RESULT:      -3.9     11.711     11.918
REMARK  Name = NuBBE_2134
REMARK  1 active torsions:
REMARK  status: ('A' for Active; 'I' for Inactive)
REMARK    1  A    between atoms: C_1  and  C_2
REMARK                            x       y       z     vdW  Elec       q    Type
REMARK                         _______ _______ _______ _____ _____    ______ ____
ROOT
ATOM      1  C   LIG A   1      -8.810  -3.651 127.011  0.00  0.00    +0.038 C 
ATOM      2  C   LIG A   1      -8.480  -3.172 125.624  0.00  0.00    -0.076 C 
ATOM      3  C   LIG A   1      -9.349  -3.296 124.614  0.00  0.00    -0.028 C 
ATOM      4  C   LIG A   1      -9.093  -2.865 123.212  0.00  0.00    +0.027 C 
ATOM      5  C   LIG A   1      -7.745  -2.211 122.923  0.00  0.00    +0.004 C 
ATOM      6  C   LIG A   1      -6.746  -2.052 124.065  0.00  0.00    +0.005 C 
ATOM      7  C   LIG A   1      -7.122  -2.563 125.455  0.00  0.00    +0.030 C 
ENDROOT
TORSDOF 0
ENDMDL
MODEL 9
REMARK VINA RESULT:      -3.9     11.683     12.084
REMARK  Name = NuBBE_2134
REMARK  1 active torsions:
REMARK  status: ('A' for Active; 'I' for Inactive)
REMARK    1  A    between atoms: C_1  and  C_2
REMARK                            x       y       z     vdW  Elec       q    Type
REMARK                         _______ _______ _______ _____ _____    ______ ____
ROOT
ATOM      1  C   LIG A   1      -5.439  -1.483 125.032  0.00  0.00    +0.038 C 
ATOM      2  C   LIG A   1      -6.714  -2.052 124.473  0.00  0.00    -0.076 C 
ATOM      3  C   LIG A   1      -7.360  -3.054 125.080  0.00  0.00    -0.028 C 
ATOM      4  C   LIG A   1      -8.615  -3.684 124.583  0.00  0.00    +0.027 C 
ATOM      5  C   LIG A   1      -9.213  -3.118 123.298  0.00  0.00    +0.004 C 
ATOM      6  C   LIG A   1      -8.495  -1.968 122.598  0.00  0.00    +0.005 C 
ATOM      7  C   LIG A   1      -7.197  -1.430 123.198  0.00  0.00    +0.030 C 
ENDROOT
TORSDOF 0
ENDMDL
