MODEL 1
REMARK VINA RESULT:      -5.2      0.000      0.000
REMARK  Name = NuBBE_1918
REMARK  13 active torsions:
REMARK  status: ('A' for Active; 'I' for Inactive)
REMARK    1  A    between atoms: C_1  and  C_3
REMARK    2  A    between atoms: C_1  and  O_14
REMARK    3  A    between atoms: C_3  and  C_4
REMARK    4  A    between atoms: C_4  and  C_5
REMARK    5  A    between atoms: C_5  and  C_6
REMARK    6  A    between atoms: C_6  and  C_7
REMARK    7  A    between atoms: C_7  and  C_8
REMARK    8  A    between atoms: C_8  and  C_9
REMARK    9  A    between atoms: C_9  and  C_10
REMARK   10  A    between atoms: C_10  and  C_11
REMARK   11  A    between atoms: C_11  and  C_12
REMARK   12  A    between atoms: C_12  and  C_13
REMARK   13  A    between atoms: O_14  and  C_15
REMARK                            x       y       z     vdW  Elec       q    Type
REMARK                         _______ _______ _______ _____ _____    ______ ____
ROOT
ATOM      1  C   LIG A   1      -8.525  -3.745 124.946  0.00  0.00    +0.000 C 
ENDROOT
BRANCH   1   2
ATOM      2  C   LIG A   1      -8.943  -2.919 126.170  0.00  0.00    +0.011 C 
BRANCH   2   3
ATOM      3  C   LIG A   1      -7.764  -2.532 127.063  0.00  0.00    +0.121 C 
BRANCH   3   4
ATOM      4  C   LIG A   1      -7.853  -3.075 128.470  0.00  0.00    +0.312 C 
ATOM      5  O   LIG A   1      -8.877  -3.475 129.026  0.00  0.00    -0.250 OA
BRANCH   4   6
ATOM      6  O   LIG A   1      -6.588  -3.111 128.996  0.00  0.00    -0.434 OA
BRANCH   6   7
ATOM      7  C   LIG A   1      -6.493  -3.792 130.208  0.00  0.00    +0.191 C 
ATOM      8  C   LIG A   1      -5.451  -4.572 130.482  0.00  0.00    +0.050 C 
ENDBRANCH   6   7
ENDBRANCH   4   6
ENDBRANCH   3   4
ENDBRANCH   2   3
ENDBRANCH   1   2
BRANCH   1   9
ATOM      9  C   LIG A   1      -9.418  -3.468 123.729  0.00  0.00    +0.000 C 
BRANCH   9  10
ATOM     10  C   LIG A   1      -9.203  -2.044 123.189  0.00  0.00    -0.000 C 
BRANCH  10  11
ATOM     11  C   LIG A   1      -7.770  -1.791 122.690  0.00  0.00    -0.000 C 
BRANCH  11  12
ATOM     12  C   LIG A   1      -6.985  -0.872 123.648  0.00  0.00    -0.000 C 
BRANCH  12  13
ATOM     13  C   LIG A   1      -5.717  -1.535 124.212  0.00  0.00    -0.000 C 
BRANCH  13  14
ATOM     14  C   LIG A   1      -5.244  -2.720 123.353  0.00  0.00    -0.000 C 
BRANCH  14  15
ATOM     15  C   LIG A   1      -4.868  -3.938 124.208  0.00  0.00    -0.003 C 
ATOM     16  C   LIG A   1      -4.217  -5.041 123.382  0.00  0.00    +0.004 C 
ENDBRANCH  14  15
ENDBRANCH  13  14
ENDBRANCH  12  13
ENDBRANCH  11  12
ENDBRANCH  10  11
ENDBRANCH   9  10
ENDBRANCH   1   9
TORSDOF 12
ENDMDL
MODEL 2
REMARK VINA RESULT:      -5.1      1.292      1.937
REMARK  Name = NuBBE_1918
REMARK  13 active torsions:
REMARK  status: ('A' for Active; 'I' for Inactive)
REMARK    1  A    between atoms: C_1  and  C_3
REMARK    2  A    between atoms: C_1  and  O_14
REMARK    3  A    between atoms: C_3  and  C_4
REMARK    4  A    between atoms: C_4  and  C_5
REMARK    5  A    between atoms: C_5  and  C_6
REMARK    6  A    between atoms: C_6  and  C_7
REMARK    7  A    between atoms: C_7  and  C_8
REMARK    8  A    between atoms: C_8  and  C_9
REMARK    9  A    between atoms: C_9  and  C_10
REMARK   10  A    between atoms: C_10  and  C_11
REMARK   11  A    between atoms: C_11  and  C_12
REMARK   12  A    between atoms: C_12  and  C_13
REMARK   13  A    between atoms: O_14  and  C_15
REMARK                            x       y       z     vdW  Elec       q    Type
REMARK                         _______ _______ _______ _____ _____    ______ ____
ROOT
ATOM      1  C   LIG A   1      -8.416  -2.776 126.694  0.00  0.00    +0.000 C 
ENDROOT
BRANCH   1   2
ATOM      2  C   LIG A   1      -8.610  -3.782 127.836  0.00  0.00    +0.011 C 
BRANCH   2   3
ATOM      3  C   LIG A   1      -8.351  -3.178 129.217  0.00  0.00    +0.121 C 
BRANCH   3   4
ATOM      4  C   LIG A   1      -6.938  -3.370 129.718  0.00  0.00    +0.312 C 
ATOM      5  O   LIG A   1      -6.420  -4.446 130.024  0.00  0.00    -0.250 OA
BRANCH   4   6
ATOM      6  O   LIG A   1      -6.311  -2.152 129.707  0.00  0.00    -0.434 OA
BRANCH   6   7
ATOM      7  C   LIG A   1      -5.111  -2.134 129.000  0.00  0.00    +0.191 C 
ATOM      8  C   LIG A   1      -5.093  -2.056 127.672  0.00  0.00    +0.050 C 
ENDBRANCH   6   7
ENDBRANCH   4   6
ENDBRANCH   3   4
ENDBRANCH   2   3
ENDBRANCH   1   2
BRANCH   1   9
ATOM      9  C   LIG A   1      -9.486  -2.927 125.603  0.00  0.00    +0.000 C 
BRANCH   9  10
ATOM     10  C   LIG A   1      -8.902  -3.566 124.332  0.00  0.00    -0.000 C 
BRANCH  10  11
ATOM     11  C   LIG A   1      -8.861  -2.607 123.130  0.00  0.00    -0.000 C 
BRANCH  11  12
ATOM     12  C   LIG A   1      -7.745  -1.553 123.277  0.00  0.00    -0.000 C 
BRANCH  12  13
ATOM     13  C   LIG A   1      -6.382  -2.047 122.761  0.00  0.00    -0.000 C 
BRANCH  13  14
ATOM     14  C   LIG A   1      -5.407  -2.377 123.904  0.00  0.00    -0.000 C 
BRANCH  14  15
ATOM     15  C   LIG A   1      -5.296  -3.887 124.150  0.00  0.00    -0.003 C 
ATOM     16  C   LIG A   1      -4.025  -4.476 123.547  0.00  0.00    +0.004 C 
ENDBRANCH  14  15
ENDBRANCH  13  14
ENDBRANCH  12  13
ENDBRANCH  11  12
ENDBRANCH  10  11
ENDBRANCH   9  10
ENDBRANCH   1   9
TORSDOF 12
ENDMDL
MODEL 3
REMARK VINA RESULT:      -4.8      2.825      4.519
REMARK  Name = NuBBE_1918
REMARK  13 active torsions:
REMARK  status: ('A' for Active; 'I' for Inactive)
REMARK    1  A    between atoms: C_1  and  C_3
REMARK    2  A    between atoms: C_1  and  O_14
REMARK    3  A    between atoms: C_3  and  C_4
REMARK    4  A    between atoms: C_4  and  C_5
REMARK    5  A    between atoms: C_5  and  C_6
REMARK    6  A    between atoms: C_6  and  C_7
REMARK    7  A    between atoms: C_7  and  C_8
REMARK    8  A    between atoms: C_8  and  C_9
REMARK    9  A    between atoms: C_9  and  C_10
REMARK   10  A    between atoms: C_10  and  C_11
REMARK   11  A    between atoms: C_11  and  C_12
REMARK   12  A    between atoms: C_12  and  C_13
REMARK   13  A    between atoms: O_14  and  C_15
REMARK                            x       y       z     vdW  Elec       q    Type
REMARK                         _______ _______ _______ _____ _____    ______ ____
ROOT
ATOM      1  C   LIG A   1      -7.458  -2.195 126.978  0.00  0.00    +0.000 C 
ENDROOT
BRANCH   1   2
ATOM      2  C   LIG A   1      -7.717  -0.797 127.552  0.00  0.00    +0.011 C 
BRANCH   2   3
ATOM      3  C   LIG A   1      -7.825   0.282 126.473  0.00  0.00    +0.121 C 
BRANCH   3   4
ATOM      4  C   LIG A   1      -8.707   1.449 126.856  0.00  0.00    +0.312 C 
ATOM      5  O   LIG A   1      -8.968   1.810 128.005  0.00  0.00    -0.250 OA
BRANCH   4   6
ATOM      6  O   LIG A   1      -9.107   2.078 125.706  0.00  0.00    -0.434 OA
BRANCH   6   7
ATOM      7  C   LIG A   1      -9.264   1.227 124.614  0.00  0.00    +0.191 C 
ATOM      8  C   LIG A   1     -10.306   1.338 123.796  0.00  0.00    +0.050 C 
ENDBRANCH   6   7
ENDBRANCH   4   6
ENDBRANCH   3   4
ENDBRANCH   2   3
ENDBRANCH   1   2
BRANCH   1   9
ATOM      9  C   LIG A   1      -8.730  -3.054 126.949  0.00  0.00    +0.000 C 
BRANCH   9  10
ATOM     10  C   LIG A   1      -9.447  -2.945 125.593  0.00  0.00    -0.000 C 
BRANCH  10  11
ATOM     11  C   LIG A   1      -8.655  -3.571 124.432  0.00  0.00    -0.000 C 
BRANCH  11  12
ATOM     12  C   LIG A   1      -8.575  -2.625 123.217  0.00  0.00    -0.000 C 
BRANCH  12  13
ATOM     13  C   LIG A   1      -7.414  -1.620 123.315  0.00  0.00    -0.000 C 
BRANCH  13  14
ATOM     14  C   LIG A   1      -6.089  -2.203 122.793  0.00  0.00    -0.000 C 
BRANCH  14  15
ATOM     15  C   LIG A   1      -5.164  -2.644 123.935  0.00  0.00    -0.003 C 
ATOM     16  C   LIG A   1      -4.771  -4.113 123.822  0.00  0.00    +0.004 C 
ENDBRANCH  14  15
ENDBRANCH  13  14
ENDBRANCH  12  13
ENDBRANCH  11  12
ENDBRANCH  10  11
ENDBRANCH   9  10
ENDBRANCH   1   9
TORSDOF 12
ENDMDL
MODEL 4
REMARK VINA RESULT:      -4.8      2.734      5.235
REMARK  Name = NuBBE_1918
REMARK  13 active torsions:
REMARK  status: ('A' for Active; 'I' for Inactive)
REMARK    1  A    between atoms: C_1  and  C_3
REMARK    2  A    between atoms: C_1  and  O_14
REMARK    3  A    between atoms: C_3  and  C_4
REMARK    4  A    between atoms: C_4  and  C_5
REMARK    5  A    between atoms: C_5  and  C_6
REMARK    6  A    between atoms: C_6  and  C_7
REMARK    7  A    between atoms: C_7  and  C_8
REMARK    8  A    between atoms: C_8  and  C_9
REMARK    9  A    between atoms: C_9  and  C_10
REMARK   10  A    between atoms: C_10  and  C_11
REMARK   11  A    between atoms: C_11  and  C_12
REMARK   12  A    between atoms: C_12  and  C_13
REMARK   13  A    between atoms: O_14  and  C_15
REMARK                            x       y       z     vdW  Elec       q    Type
REMARK                         _______ _______ _______ _____ _____    ______ ____
ROOT
ATOM      1  C   LIG A   1      -8.832  -3.747 124.779  0.00  0.00    +0.000 C 
ENDROOT
BRANCH   1   2
ATOM      2  C   LIG A   1      -9.478  -3.217 123.493  0.00  0.00    +0.011 C 
BRANCH   2   3
ATOM      3  C   LIG A   1      -8.525  -2.372 122.648  0.00  0.00    +0.121 C 
BRANCH   3   4
ATOM      4  C   LIG A   1      -8.340  -0.960 123.154  0.00  0.00    +0.312 C 
ATOM      5  O   LIG A   1      -7.284  -0.324 123.150  0.00  0.00    -0.250 OA
BRANCH   4   6
ATOM      6  O   LIG A   1      -9.561  -0.484 123.551  0.00  0.00    -0.434 OA
BRANCH   6   7
ATOM      7  C   LIG A   1      -9.923   0.725 122.960  0.00  0.00    +0.191 C 
ATOM      8  C   LIG A   1      -9.731   1.884 123.583  0.00  0.00    +0.050 C 
ENDBRANCH   6   7
ENDBRANCH   4   6
ENDBRANCH   3   4
ENDBRANCH   2   3
ENDBRANCH   1   2
BRANCH   1   9
ATOM      9  C   LIG A   1      -9.390  -3.059 126.033  0.00  0.00    +0.000 C 
BRANCH   9  10
ATOM     10  C   LIG A   1      -8.923  -3.768 127.315  0.00  0.00    -0.000 C 
BRANCH  10  11
ATOM     11  C   LIG A   1      -7.859  -2.978 128.097  0.00  0.00    -0.000 C 
BRANCH  11  12
ATOM     12  C   LIG A   1      -7.443  -1.692 127.356  0.00  0.00    -0.000 C 
BRANCH  12  13
ATOM     13  C   LIG A   1      -5.923  -1.589 127.141  0.00  0.00    -0.000 C 
BRANCH  13  14
ATOM     14  C   LIG A   1      -5.543  -1.565 125.650  0.00  0.00    -0.000 C 
BRANCH  14  15
ATOM     15  C   LIG A   1      -5.570  -2.966 125.026  0.00  0.00    -0.003 C 
ATOM     16  C   LIG A   1      -4.942  -2.989 123.637  0.00  0.00    +0.004 C 
ENDBRANCH  14  15
ENDBRANCH  13  14
ENDBRANCH  12  13
ENDBRANCH  11  12
ENDBRANCH  10  11
ENDBRANCH   9  10
ENDBRANCH   1   9
TORSDOF 12
ENDMDL
MODEL 5
REMARK VINA RESULT:      -4.7      9.949     11.473
REMARK  Name = NuBBE_1918
REMARK  13 active torsions:
REMARK  status: ('A' for Active; 'I' for Inactive)
REMARK    1  A    between atoms: C_1  and  C_3
REMARK    2  A    between atoms: C_1  and  O_14
REMARK    3  A    between atoms: C_3  and  C_4
REMARK    4  A    between atoms: C_4  and  C_5
REMARK    5  A    between atoms: C_5  and  C_6
REMARK    6  A    between atoms: C_6  and  C_7
REMARK    7  A    between atoms: C_7  and  C_8
REMARK    8  A    between atoms: C_8  and  C_9
REMARK    9  A    between atoms: C_9  and  C_10
REMARK   10  A    between atoms: C_10  and  C_11
REMARK   11  A    between atoms: C_11  and  C_12
REMARK   12  A    between atoms: C_12  and  C_13
REMARK   13  A    between atoms: O_14  and  C_15
REMARK                            x       y       z     vdW  Elec       q    Type
REMARK                         _______ _______ _______ _____ _____    ______ ____
ROOT
ATOM      1  C   LIG A   1      -9.305   6.859 130.709  0.00  0.00    +0.000 C 
ENDROOT
BRANCH   1   2
ATOM      2  C   LIG A   1      -8.227   6.350 131.674  0.00  0.00    +0.011 C 
BRANCH   2   3
ATOM      3  C   LIG A   1      -8.783   5.967 133.046  0.00  0.00    +0.121 C 
BRANCH   3   4
ATOM      4  C   LIG A   1      -8.545   4.524 133.427  0.00  0.00    +0.312 C 
ATOM      5  O   LIG A   1      -8.685   4.041 134.552  0.00  0.00    -0.250 OA
BRANCH   4   6
ATOM      6  O   LIG A   1      -8.216   3.831 132.292  0.00  0.00    -0.434 OA
BRANCH   6   7
ATOM      7  C   LIG A   1      -9.006   2.707 132.059  0.00  0.00    +0.191 C 
ATOM      8  C   LIG A   1      -9.183   2.229 130.831  0.00  0.00    +0.050 C 
ENDBRANCH   6   7
ENDBRANCH   4   6
ENDBRANCH   3   4
ENDBRANCH   2   3
ENDBRANCH   1   2
BRANCH   1   9
ATOM      9  C   LIG A   1      -9.949   5.719 129.907  0.00  0.00    +0.000 C 
BRANCH   9  10
ATOM     10  C   LIG A   1     -11.378   5.430 130.394  0.00  0.00    -0.000 C 
BRANCH  10  11
ATOM     11  C   LIG A   1     -11.958   6.546 131.280  0.00  0.00    -0.000 C 
BRANCH  11  12
ATOM     12  C   LIG A   1     -13.073   7.328 130.558  0.00  0.00    -0.000 C 
BRANCH  12  13
ATOM     13  C   LIG A   1     -12.608   8.705 130.052  0.00  0.00    -0.000 C 
BRANCH  13  14
ATOM     14  C   LIG A   1     -12.884   8.902 128.551  0.00  0.00    -0.000 C 
BRANCH  14  15
ATOM     15  C   LIG A   1     -12.346   7.738 127.708  0.00  0.00    -0.003 C 
ATOM     16  C   LIG A   1     -10.963   8.031 127.139  0.00  0.00    +0.004 C 
ENDBRANCH  14  15
ENDBRANCH  13  14
ENDBRANCH  12  13
ENDBRANCH  11  12
ENDBRANCH  10  11
ENDBRANCH   9  10
ENDBRANCH   1   9
TORSDOF 12
ENDMDL
MODEL 6
REMARK VINA RESULT:      -4.6      2.191      5.613
REMARK  Name = NuBBE_1918
REMARK  13 active torsions:
REMARK  status: ('A' for Active; 'I' for Inactive)
REMARK    1  A    between atoms: C_1  and  C_3
REMARK    2  A    between atoms: C_1  and  O_14
REMARK    3  A    between atoms: C_3  and  C_4
REMARK    4  A    between atoms: C_4  and  C_5
REMARK    5  A    between atoms: C_5  and  C_6
REMARK    6  A    between atoms: C_6  and  C_7
REMARK    7  A    between atoms: C_7  and  C_8
REMARK    8  A    between atoms: C_8  and  C_9
REMARK    9  A    between atoms: C_9  and  C_10
REMARK   10  A    between atoms: C_10  and  C_11
REMARK   11  A    between atoms: C_11  and  C_12
REMARK   12  A    between atoms: C_12  and  C_13
REMARK   13  A    between atoms: O_14  and  C_15
REMARK                            x       y       z     vdW  Elec       q    Type
REMARK                         _______ _______ _______ _____ _____    ______ ____
ROOT
ATOM      1  C   LIG A   1      -8.752  -2.714 125.888  0.00  0.00    +0.000 C 
ENDROOT
BRANCH   1   2
ATOM      2  C   LIG A   1      -8.258  -3.591 124.730  0.00  0.00    +0.011 C 
BRANCH   2   3
ATOM      3  C   LIG A   1      -7.707  -2.780 123.557  0.00  0.00    +0.121 C 
BRANCH   3   4
ATOM      4  C   LIG A   1      -6.516  -1.919 123.908  0.00  0.00    +0.312 C 
ATOM      5  O   LIG A   1      -6.471  -0.689 123.850  0.00  0.00    -0.250 OA
BRANCH   4   6
ATOM      6  O   LIG A   1      -5.518  -2.737 124.370  0.00  0.00    -0.434 OA
BRANCH   6   7
ATOM      7  C   LIG A   1      -4.906  -3.505 123.382  0.00  0.00    +0.191 C 
ATOM      8  C   LIG A   1      -4.139  -4.547 123.693  0.00  0.00    +0.050 C 
ENDBRANCH   6   7
ENDBRANCH   4   6
ENDBRANCH   3   4
ENDBRANCH   2   3
ENDBRANCH   1   2
BRANCH   1   9
ATOM      9  C   LIG A   1      -7.864  -2.846 127.133  0.00  0.00    +0.000 C 
BRANCH   9  10
ATOM     10  C   LIG A   1      -8.575  -3.633 128.246  0.00  0.00    -0.000 C 
BRANCH  10  11
ATOM     11  C   LIG A   1      -8.401  -3.010 129.642  0.00  0.00    -0.000 C 
BRANCH  11  12
ATOM     12  C   LIG A   1      -6.916  -2.785 129.987  0.00  0.00    -0.000 C 
BRANCH  12  13
ATOM     13  C   LIG A   1      -6.337  -3.884 130.894  0.00  0.00    -0.000 C 
BRANCH  13  14
ATOM     14  C   LIG A   1      -4.925  -4.318 130.462  0.00  0.00    -0.000 C 
BRANCH  14  15
ATOM     15  C   LIG A   1      -4.382  -3.454 129.316  0.00  0.00    -0.003 C 
ATOM     16  C   LIG A   1      -2.906  -3.720 129.045  0.00  0.00    +0.004 C 
ENDBRANCH  14  15
ENDBRANCH  13  14
ENDBRANCH  12  13
ENDBRANCH  11  12
ENDBRANCH  10  11
ENDBRANCH   9  10
ENDBRANCH   1   9
TORSDOF 12
ENDMDL
MODEL 7
REMARK VINA RESULT:      -4.6     10.243     11.871
REMARK  Name = NuBBE_1918
REMARK  13 active torsions:
REMARK  status: ('A' for Active; 'I' for Inactive)
REMARK    1  A    between atoms: C_1  and  C_3
REMARK    2  A    between atoms: C_1  and  O_14
REMARK    3  A    between atoms: C_3  and  C_4
REMARK    4  A    between atoms: C_4  and  C_5
REMARK    5  A    between atoms: C_5  and  C_6
REMARK    6  A    between atoms: C_6  and  C_7
REMARK    7  A    between atoms: C_7  and  C_8
REMARK    8  A    between atoms: C_8  and  C_9
REMARK    9  A    between atoms: C_9  and  C_10
REMARK   10  A    between atoms: C_10  and  C_11
REMARK   11  A    between atoms: C_11  and  C_12
REMARK   12  A    between atoms: C_12  and  C_13
REMARK   13  A    between atoms: O_14  and  C_15
REMARK                            x       y       z     vdW  Elec       q    Type
REMARK                         _______ _______ _______ _____ _____    ______ ____
ROOT
ATOM      1  C   LIG A   1      -8.772   6.990 130.763  0.00  0.00    +0.000 C 
ENDROOT
BRANCH   1   2
ATOM      2  C   LIG A   1      -7.535   6.442 131.486  0.00  0.00    +0.011 C 
BRANCH   2   3
ATOM      3  C   LIG A   1      -6.226   7.050 130.979  0.00  0.00    +0.121 C 
BRANCH   3   4
ATOM      4  C   LIG A   1      -5.257   6.039 130.411  0.00  0.00    +0.312 C 
ATOM      5  O   LIG A   1      -4.843   5.032 130.988  0.00  0.00    -0.250 OA
BRANCH   4   6
ATOM      6  O   LIG A   1      -4.972   6.398 129.120  0.00  0.00    -0.434 OA
BRANCH   6   7
ATOM      7  C   LIG A   1      -3.768   5.890 128.638  0.00  0.00    +0.191 C 
ATOM      8  C   LIG A   1      -2.661   6.627 128.628  0.00  0.00    +0.050 C 
ENDBRANCH   6   7
ENDBRANCH   4   6
ENDBRANCH   3   4
ENDBRANCH   2   3
ENDBRANCH   1   2
BRANCH   1   9
ATOM      9  C   LIG A   1      -9.563   5.884 130.051  0.00  0.00    +0.000 C 
BRANCH   9  10
ATOM     10  C   LIG A   1     -10.806   5.477 130.859  0.00  0.00    -0.000 C 
BRANCH  10  11
ATOM     11  C   LIG A   1     -11.618   6.677 131.377  0.00  0.00    -0.000 C 
BRANCH  11  12
ATOM     12  C   LIG A   1     -12.720   7.094 130.383  0.00  0.00    -0.000 C 
BRANCH  12  13
ATOM     13  C   LIG A   1     -12.597   8.560 129.932  0.00  0.00    -0.000 C 
BRANCH  13  14
ATOM     14  C   LIG A   1     -12.431   8.692 128.408  0.00  0.00    -0.000 C 
BRANCH  14  15
ATOM     15  C   LIG A   1     -10.983   8.445 127.963  0.00  0.00    -0.003 C 
ATOM     16  C   LIG A   1     -10.908   7.593 126.701  0.00  0.00    +0.004 C 
ENDBRANCH  14  15
ENDBRANCH  13  14
ENDBRANCH  12  13
ENDBRANCH  11  12
ENDBRANCH  10  11
ENDBRANCH   9  10
ENDBRANCH   1   9
TORSDOF 12
ENDMDL
MODEL 8
REMARK VINA RESULT:      -4.6      2.757      4.439
REMARK  Name = NuBBE_1918
REMARK  13 active torsions:
REMARK  status: ('A' for Active; 'I' for Inactive)
REMARK    1  A    between atoms: C_1  and  C_3
REMARK    2  A    between atoms: C_1  and  O_14
REMARK    3  A    between atoms: C_3  and  C_4
REMARK    4  A    between atoms: C_4  and  C_5
REMARK    5  A    between atoms: C_5  and  C_6
REMARK    6  A    between atoms: C_6  and  C_7
REMARK    7  A    between atoms: C_7  and  C_8
REMARK    8  A    between atoms: C_8  and  C_9
REMARK    9  A    between atoms: C_9  and  C_10
REMARK   10  A    between atoms: C_10  and  C_11
REMARK   11  A    between atoms: C_11  and  C_12
REMARK   12  A    between atoms: C_12  and  C_13
REMARK   13  A    between atoms: O_14  and  C_15
REMARK                            x       y       z     vdW  Elec       q    Type
REMARK                         _______ _______ _______ _____ _____    ______ ____
ROOT
ATOM      1  C   LIG A   1      -6.445  -2.301 127.476  0.00  0.00    +0.000 C 
ENDROOT
BRANCH   1   2
ATOM      2  C   LIG A   1      -5.764  -0.929 127.558  0.00  0.00    +0.011 C 
BRANCH   2   3
ATOM      3  C   LIG A   1      -5.634  -0.243 126.198  0.00  0.00    +0.121 C 
BRANCH   3   4
ATOM      4  C   LIG A   1      -5.881   1.248 126.234  0.00  0.00    +0.312 C 
ATOM      5  O   LIG A   1      -5.107   2.118 125.830  0.00  0.00    -0.250 OA
BRANCH   4   6
ATOM      6  O   LIG A   1      -7.141   1.461 126.728  0.00  0.00    -0.434 OA
BRANCH   6   7
ATOM      7  C   LIG A   1      -8.141   1.464 125.758  0.00  0.00    +0.191 C 
ATOM      8  C   LIG A   1      -9.290   0.820 125.948  0.00  0.00    +0.050 C 
ENDBRANCH   6   7
ENDBRANCH   4   6
ENDBRANCH   3   4
ENDBRANCH   2   3
ENDBRANCH   1   2
BRANCH   1   9
ATOM      9  C   LIG A   1      -7.976  -2.188 127.455  0.00  0.00    +0.000 C 
BRANCH   9  10
ATOM     10  C   LIG A   1      -8.607  -3.298 126.600  0.00  0.00    -0.000 C 
BRANCH  10  11
ATOM     11  C   LIG A   1      -8.977  -2.839 125.179  0.00  0.00    -0.000 C 
BRANCH  11  12
ATOM     12  C   LIG A   1      -7.981  -3.369 124.129  0.00  0.00    -0.000 C 
BRANCH  12  13
ATOM     13  C   LIG A   1      -7.234  -2.245 123.389  0.00  0.00    -0.000 C 
BRANCH  13  14
ATOM     14  C   LIG A   1      -5.733  -2.544 123.231  0.00  0.00    -0.000 C 
BRANCH  14  15
ATOM     15  C   LIG A   1      -5.264  -3.655 124.180  0.00  0.00    -0.003 C 
ATOM     16  C   LIG A   1      -4.138  -4.488 123.579  0.00  0.00    +0.004 C 
ENDBRANCH  14  15
ENDBRANCH  13  14
ENDBRANCH  12  13
ENDBRANCH  11  12
ENDBRANCH  10  11
ENDBRANCH   9  10
ENDBRANCH   1   9
TORSDOF 12
ENDMDL
MODEL 9
REMARK VINA RESULT:      -4.6      3.740      6.535
REMARK  Name = NuBBE_1918
REMARK  13 active torsions:
REMARK  status: ('A' for Active; 'I' for Inactive)
REMARK    1  A    between atoms: C_1  and  C_3
REMARK    2  A    between atoms: C_1  and  O_14
REMARK    3  A    between atoms: C_3  and  C_4
REMARK    4  A    between atoms: C_4  and  C_5
REMARK    5  A    between atoms: C_5  and  C_6
REMARK    6  A    between atoms: C_6  and  C_7
REMARK    7  A    between atoms: C_7  and  C_8
REMARK    8  A    between atoms: C_8  and  C_9
REMARK    9  A    between atoms: C_9  and  C_10
REMARK   10  A    between atoms: C_10  and  C_11
REMARK   11  A    between atoms: C_11  and  C_12
REMARK   12  A    between atoms: C_12  and  C_13
REMARK   13  A    between atoms: O_14  and  C_15
REMARK                            x       y       z     vdW  Elec       q    Type
REMARK                         _______ _______ _______ _____ _____    ______ ____
ROOT
ATOM      1  C   LIG A   1      -6.626   0.243 124.716  0.00  0.00    +0.000 C 
ENDROOT
BRANCH   1   2
ATOM      2  C   LIG A   1      -8.104   0.474 124.379  0.00  0.00    +0.011 C 
BRANCH   2   3
ATOM      3  C   LIG A   1      -8.320   1.613 123.382  0.00  0.00    +0.121 C 
BRANCH   3   4
ATOM      4  C   LIG A   1      -8.167   2.993 123.980  0.00  0.00    +0.312 C 
ATOM      5  O   LIG A   1      -8.890   3.489 124.847  0.00  0.00    -0.250 OA
BRANCH   4   6
ATOM      6  O   LIG A   1      -7.045   3.569 123.445  0.00  0.00    -0.434 OA
BRANCH   6   7
ATOM      7  C   LIG A   1      -6.667   3.044 122.211  0.00  0.00    +0.191 C 
ATOM      8  C   LIG A   1      -5.725   3.624 121.473  0.00  0.00    +0.050 C 
ENDBRANCH   6   7
ENDBRANCH   4   6
ENDBRANCH   3   4
ENDBRANCH   2   3
ENDBRANCH   1   2
BRANCH   1   9
ATOM      9  C   LIG A   1      -6.312  -1.241 124.956  0.00  0.00    +0.000 C 
BRANCH   9  10
ATOM     10  C   LIG A   1      -6.801  -2.112 123.787  0.00  0.00    -0.000 C 
BRANCH  10  11
ATOM     11  C   LIG A   1      -7.548  -3.378 124.241  0.00  0.00    -0.000 C 
BRANCH  11  12
ATOM     12  C   LIG A   1      -9.071  -3.149 124.312  0.00  0.00    -0.000 C 
BRANCH  12  13
ATOM     13  C   LIG A   1      -9.569  -2.863 125.739  0.00  0.00    -0.000 C 
BRANCH  13  14
ATOM     14  C   LIG A   1      -8.757  -3.619 126.806  0.00  0.00    -0.000 C 
BRANCH  14  15
ATOM     15  C   LIG A   1      -8.153  -2.670 127.849  0.00  0.00    -0.003 C 
ATOM     16  C   LIG A   1      -8.122  -3.291 129.241  0.00  0.00    +0.004 C 
ENDBRANCH  14  15
ENDBRANCH  13  14
ENDBRANCH  12  13
ENDBRANCH  11  12
ENDBRANCH  10  11
ENDBRANCH   9  10
ENDBRANCH   1   9
TORSDOF 12
ENDMDL
