MODEL 1
REMARK VINA RESULT:      -7.7      0.000      0.000
REMARK  Name = NuBBE_1593
REMARK  7 active torsions:
REMARK  status: ('A' for Active; 'I' for Inactive)
REMARK    1  A    between atoms: C_1  and  O_2
REMARK    2  A    between atoms: O_2  and  C_3
REMARK    3  A    between atoms: C_4  and  O_5
REMARK    4  A    between atoms: O_5  and  C_6
REMARK    5  A    between atoms: C_8  and  O_9
REMARK    6  A    between atoms: O_9  and  C_10
REMARK    7  A    between atoms: C_14  and  C_15
REMARK                            x       y       z     vdW  Elec       q    Type
REMARK                         _______ _______ _______ _____ _____    ______ ____
ROOT
ATOM      1  C   LIG A   1      -8.518  -0.255 124.214  0.00  0.00    +0.205 A 
ATOM      2  C   LIG A   1      -8.899  -1.166 125.214  0.00  0.00    +0.169 A 
ATOM      3  C   LIG A   1      -8.408  -0.995 126.516  0.00  0.00    +0.096 A 
ATOM      4  C   LIG A   1      -7.598   0.089 126.865  0.00  0.00    +0.138 A 
ATOM      5  C   LIG A   1      -7.229   1.009 125.876  0.00  0.00    +0.109 A 
ATOM      6  C   LIG A   1      -7.687   0.836 124.564  0.00  0.00    +0.188 A 
ATOM      7  O   LIG A   1      -7.347   1.712 123.550  0.00  0.00    -0.451 OA
ATOM      8  C   LIG A   1      -6.446   2.735 123.803  0.00  0.00    +0.140 A 
ATOM      9  C   LIG A   1      -5.933   2.984 125.012  0.00  0.00    +0.098 A 
ATOM     10  C   LIG A   1      -6.348   2.167 126.164  0.00  0.00    +0.197 A 
ATOM     11  O   LIG A   1      -5.960   2.482 127.275  0.00  0.00    -0.287 OA
ENDROOT
BRANCH   8  12
ATOM     12  C   LIG A   1      -6.068   3.528 122.607  0.00  0.00    +0.021 A 
ATOM     13  C   LIG A   1      -6.884   3.486 121.464  0.00  0.00    +0.061 A 
ATOM     14  C   LIG A   1      -6.524   4.237 120.363  0.00  0.00    +0.167 A 
ATOM     15  C   LIG A   1      -5.397   5.021 120.355  0.00  0.00    +0.166 A 
ATOM     16  O   LIG A   1      -5.229   5.678 119.178  0.00  0.00    -0.453 OA
ATOM     17  C   LIG A   1      -6.382   5.215 118.442  0.00  0.00    +0.466 C 
ATOM     18  O   LIG A   1      -7.208   4.299 119.189  0.00  0.00    -0.453 OA
ATOM     19  C   LIG A   1      -4.568   5.100 121.450  0.00  0.00    +0.050 A 
ATOM     20  C   LIG A   1      -4.911   4.351 122.584  0.00  0.00    +0.015 A 
ENDBRANCH   8  12
BRANCH   1  22
ATOM     21  C   LIG A   1     -10.119   0.174 122.453  0.00  0.00    +0.277 C 
ATOM     22  O   LIG A   1      -8.850  -0.300 122.881  0.00  0.00    -0.488 OA
ENDBRANCH   1  22
BRANCH   2  23
ATOM     23  O   LIG A   1      -9.659  -2.260 124.893  0.00  0.00    -0.491 OA
ATOM     24  C   LIG A   1      -8.971  -3.383 124.346  0.00  0.00    +0.277 C 
ENDBRANCH   2  23
BRANCH   4  25
ATOM     25  O   LIG A   1      -7.076   0.215 128.125  0.00  0.00    -0.494 OA
ATOM     26  C   LIG A   1      -7.538  -0.719 129.097  0.00  0.00    +0.277 C 
ENDBRANCH   4  25
TORSDOF 4
ENDMDL
MODEL 2
REMARK VINA RESULT:      -7.3      6.714      9.523
REMARK  Name = NuBBE_1593
REMARK  7 active torsions:
REMARK  status: ('A' for Active; 'I' for Inactive)
REMARK    1  A    between atoms: C_1  and  O_2
REMARK    2  A    between atoms: O_2  and  C_3
REMARK    3  A    between atoms: C_4  and  O_5
REMARK    4  A    between atoms: O_5  and  C_6
REMARK    5  A    between atoms: C_8  and  O_9
REMARK    6  A    between atoms: O_9  and  C_10
REMARK    7  A    between atoms: C_14  and  C_15
REMARK                            x       y       z     vdW  Elec       q    Type
REMARK                         _______ _______ _______ _____ _____    ______ ____
ROOT
ATOM      1  C   LIG A   1      -4.965   5.115 128.873  0.00  0.00    +0.205 A 
ATOM      2  C   LIG A   1      -3.584   4.862 128.818  0.00  0.00    +0.169 A 
ATOM      3  C   LIG A   1      -2.817   4.999 129.984  0.00  0.00    +0.096 A 
ATOM      4  C   LIG A   1      -3.395   5.322 131.216  0.00  0.00    +0.138 A 
ATOM      5  C   LIG A   1      -4.773   5.559 131.279  0.00  0.00    +0.109 A 
ATOM      6  C   LIG A   1      -5.548   5.456 130.118  0.00  0.00    +0.188 A 
ATOM      7  O   LIG A   1      -6.911   5.685 130.126  0.00  0.00    -0.451 OA
ATOM      8  C   LIG A   1      -7.523   6.132 131.287  0.00  0.00    +0.140 A 
ATOM      9  C   LIG A   1      -6.879   6.282 132.449  0.00  0.00    +0.098 A 
ATOM     10  C   LIG A   1      -5.451   5.936 132.543  0.00  0.00    +0.197 A 
ATOM     11  O   LIG A   1      -4.912   5.969 133.636  0.00  0.00    -0.287 OA
ENDROOT
BRANCH   8  12
ATOM     12  C   LIG A   1      -8.962   6.461 131.135  0.00  0.00    +0.021 A 
ATOM     13  C   LIG A   1      -9.386   7.203 130.019  0.00  0.00    +0.061 A 
ATOM     14  C   LIG A   1     -10.728   7.493 129.887  0.00  0.00    +0.167 A 
ATOM     15  C   LIG A   1     -11.657   7.077 130.808  0.00  0.00    +0.166 A 
ATOM     16  O   LIG A   1     -12.919   7.465 130.488  0.00  0.00    -0.453 OA
ATOM     17  C   LIG A   1     -12.678   8.177 129.255  0.00  0.00    +0.466 C 
ATOM     18  O   LIG A   1     -11.289   8.199 128.868  0.00  0.00    -0.453 OA
ATOM     19  C   LIG A   1     -11.294   6.344 131.915  0.00  0.00    +0.050 A 
ATOM     20  C   LIG A   1      -9.936   6.032 132.073  0.00  0.00    +0.015 A 
ENDBRANCH   8  12
BRANCH   1  22
ATOM     21  C   LIG A   1      -6.307   3.845 127.314  0.00  0.00    +0.277 C 
ATOM     22  O   LIG A   1      -5.855   5.090 127.827  0.00  0.00    -0.488 OA
ENDBRANCH   1  22
BRANCH   2  23
ATOM     23  O   LIG A   1      -2.984   4.583 127.618  0.00  0.00    -0.491 OA
ATOM     24  C   LIG A   1      -2.468   3.264 127.449  0.00  0.00    +0.277 C 
ENDBRANCH   2  23
BRANCH   4  25
ATOM     25  O   LIG A   1      -2.629   5.511 132.336  0.00  0.00    -0.494 OA
ATOM     26  C   LIG A   1      -1.827   4.408 132.747  0.00  0.00    +0.277 C 
ENDBRANCH   4  25
TORSDOF 4
ENDMDL
MODEL 3
REMARK VINA RESULT:      -7.2      2.883      5.511
REMARK  Name = NuBBE_1593
REMARK  7 active torsions:
REMARK  status: ('A' for Active; 'I' for Inactive)
REMARK    1  A    between atoms: C_1  and  O_2
REMARK    2  A    between atoms: O_2  and  C_3
REMARK    3  A    between atoms: C_4  and  O_5
REMARK    4  A    between atoms: O_5  and  C_6
REMARK    5  A    between atoms: C_8  and  O_9
REMARK    6  A    between atoms: O_9  and  C_10
REMARK    7  A    between atoms: C_14  and  C_15
REMARK                            x       y       z     vdW  Elec       q    Type
REMARK                         _______ _______ _______ _____ _____    ______ ____
ROOT
ATOM      1  C   LIG A   1      -6.273  -0.744 125.456  0.00  0.00    +0.205 A 
ATOM      2  C   LIG A   1      -7.195  -1.630 124.873  0.00  0.00    +0.169 A 
ATOM      3  C   LIG A   1      -8.197  -1.120 124.037  0.00  0.00    +0.096 A 
ATOM      4  C   LIG A   1      -8.273   0.239 123.716  0.00  0.00    +0.138 A 
ATOM      5  C   LIG A   1      -7.347   1.124 124.280  0.00  0.00    +0.109 A 
ATOM      6  C   LIG A   1      -6.357   0.635 125.142  0.00  0.00    +0.188 A 
ATOM      7  O   LIG A   1      -5.423   1.467 125.729  0.00  0.00    -0.451 OA
ATOM      8  C   LIG A   1      -5.520   2.838 125.552  0.00  0.00    +0.140 A 
ATOM      9  C   LIG A   1      -6.434   3.417 124.766  0.00  0.00    +0.098 A 
ATOM     10  C   LIG A   1      -7.383   2.582 124.011  0.00  0.00    +0.197 A 
ATOM     11  O   LIG A   1      -8.129   3.121 123.212  0.00  0.00    -0.287 OA
ENDROOT
BRANCH   8  12
ATOM     12  C   LIG A   1      -4.537   3.629 126.333  0.00  0.00    +0.021 A 
ATOM     13  C   LIG A   1      -4.896   4.904 126.804  0.00  0.00    +0.061 A 
ATOM     14  C   LIG A   1      -3.974   5.624 127.536  0.00  0.00    +0.167 A 
ATOM     15  C   LIG A   1      -2.724   5.131 127.818  0.00  0.00    +0.166 A 
ATOM     16  O   LIG A   1      -1.977   5.996 128.553  0.00  0.00    -0.453 OA
ATOM     17  C   LIG A   1      -2.902   7.095 128.699  0.00  0.00    +0.466 C 
ATOM     18  O   LIG A   1      -4.172   6.865 128.056  0.00  0.00    -0.453 OA
ATOM     19  C   LIG A   1      -2.327   3.887 127.384  0.00  0.00    +0.050 A 
ATOM     20  C   LIG A   1      -3.244   3.133 126.640  0.00  0.00    +0.015 A 
ENDBRANCH   8  12
BRANCH   1  22
ATOM     21  C   LIG A   1      -5.584  -1.320 127.701  0.00  0.00    +0.277 C 
ATOM     22  O   LIG A   1      -5.269  -1.055 126.341  0.00  0.00    -0.488 OA
ENDBRANCH   1  22
BRANCH   2  23
ATOM     23  O   LIG A   1      -7.170  -2.960 125.201  0.00  0.00    -0.491 OA
ATOM     24  C   LIG A   1      -8.250  -3.760 124.725  0.00  0.00    +0.277 C 
ENDBRANCH   2  23
BRANCH   4  25
ATOM     25  O   LIG A   1      -9.291   0.736 122.945  0.00  0.00    -0.494 OA
ATOM     26  C   LIG A   1     -10.142  -0.225 122.327  0.00  0.00    +0.277 C 
ENDBRANCH   4  25
TORSDOF 4
ENDMDL
MODEL 4
REMARK VINA RESULT:      -7.1      5.236      6.812
REMARK  Name = NuBBE_1593
REMARK  7 active torsions:
REMARK  status: ('A' for Active; 'I' for Inactive)
REMARK    1  A    between atoms: C_1  and  O_2
REMARK    2  A    between atoms: O_2  and  C_3
REMARK    3  A    between atoms: C_4  and  O_5
REMARK    4  A    between atoms: O_5  and  C_6
REMARK    5  A    between atoms: C_8  and  O_9
REMARK    6  A    between atoms: O_9  and  C_10
REMARK    7  A    between atoms: C_14  and  C_15
REMARK                            x       y       z     vdW  Elec       q    Type
REMARK                         _______ _______ _______ _____ _____    ______ ____
ROOT
ATOM      1  C   LIG A   1     -10.201   6.428 128.996  0.00  0.00    +0.205 A 
ATOM      2  C   LIG A   1     -10.614   6.865 130.266  0.00  0.00    +0.169 A 
ATOM      3  C   LIG A   1      -9.915   6.430 131.399  0.00  0.00    +0.096 A 
ATOM      4  C   LIG A   1      -8.779   5.620 131.302  0.00  0.00    +0.138 A 
ATOM      5  C   LIG A   1      -8.353   5.195 130.039  0.00  0.00    +0.109 A 
ATOM      6  C   LIG A   1      -9.058   5.597 128.898  0.00  0.00    +0.188 A 
ATOM      7  O   LIG A   1      -8.682   5.201 127.628  0.00  0.00    -0.451 OA
ATOM      8  C   LIG A   1      -7.642   4.297 127.474  0.00  0.00    +0.140 A 
ATOM      9  C   LIG A   1      -6.910   3.834 128.492  0.00  0.00    +0.098 A 
ATOM     10  C   LIG A   1      -7.176   4.310 129.859  0.00  0.00    +0.197 A 
ATOM     11  O   LIG A   1      -6.424   3.967 130.755  0.00  0.00    -0.287 OA
ENDROOT
BRANCH   8  12
ATOM     12  C   LIG A   1      -7.417   3.855 126.075  0.00  0.00    +0.021 A 
ATOM     13  C   LIG A   1      -6.519   4.569 125.262  0.00  0.00    +0.061 A 
ATOM     14  C   LIG A   1      -6.313   4.141 123.967  0.00  0.00    +0.167 A 
ATOM     15  C   LIG A   1      -6.954   3.041 123.454  0.00  0.00    +0.166 A 
ATOM     16  O   LIG A   1      -6.606   2.790 122.165  0.00  0.00    -0.453 OA
ATOM     17  C   LIG A   1      -5.672   3.863 121.922  0.00  0.00    +0.466 C 
ATOM     18  O   LIG A   1      -5.481   4.725 123.063  0.00  0.00    -0.453 OA
ATOM     19  C   LIG A   1      -7.838   2.305 124.210  0.00  0.00    +0.050 A 
ATOM     20  C   LIG A   1      -8.064   2.716 125.531  0.00  0.00    +0.015 A 
ENDBRANCH   8  12
BRANCH   1  22
ATOM     21  C   LIG A   1     -10.756   8.022 127.264  0.00  0.00    +0.277 C 
ATOM     22  O   LIG A   1     -10.798   6.702 127.789  0.00  0.00    -0.488 OA
ENDBRANCH   1  22
BRANCH   2  23
ATOM     23  O   LIG A   1     -11.747   7.627 130.394  0.00  0.00    -0.491 OA
ATOM     24  C   LIG A   1     -12.689   7.215 131.383  0.00  0.00    +0.277 C 
ENDBRANCH   2  23
BRANCH   4  25
ATOM     25  O   LIG A   1      -8.138   5.151 132.419  0.00  0.00    -0.494 OA
ATOM     26  C   LIG A   1      -8.482   5.774 133.653  0.00  0.00    +0.277 C 
ENDBRANCH   4  25
TORSDOF 4
ENDMDL
MODEL 5
REMARK VINA RESULT:      -7.0      5.736      7.858
REMARK  Name = NuBBE_1593
REMARK  7 active torsions:
REMARK  status: ('A' for Active; 'I' for Inactive)
REMARK    1  A    between atoms: C_1  and  O_2
REMARK    2  A    between atoms: O_2  and  C_3
REMARK    3  A    between atoms: C_4  and  O_5
REMARK    4  A    between atoms: O_5  and  C_6
REMARK    5  A    between atoms: C_8  and  O_9
REMARK    6  A    between atoms: O_9  and  C_10
REMARK    7  A    between atoms: C_14  and  C_15
REMARK                            x       y       z     vdW  Elec       q    Type
REMARK                         _______ _______ _______ _____ _____    ______ ____
ROOT
ATOM      1  C   LIG A   1      -8.447   1.449 128.895  0.00  0.00    +0.205 A 
ATOM      2  C   LIG A   1      -7.810   0.245 129.240  0.00  0.00    +0.169 A 
ATOM      3  C   LIG A   1      -7.599  -0.054 130.593  0.00  0.00    +0.096 A 
ATOM      4  C   LIG A   1      -8.057   0.783 131.616  0.00  0.00    +0.138 A 
ATOM      5  C   LIG A   1      -8.707   1.976 131.278  0.00  0.00    +0.109 A 
ATOM      6  C   LIG A   1      -8.899   2.303 129.930  0.00  0.00    +0.188 A 
ATOM      7  O   LIG A   1      -9.530   3.471 129.544  0.00  0.00    -0.451 OA
ATOM      8  C   LIG A   1      -9.893   4.402 130.505  0.00  0.00    +0.140 A 
ATOM      9  C   LIG A   1      -9.743   4.204 131.819  0.00  0.00    +0.098 A 
ATOM     10  C   LIG A   1      -9.192   2.928 132.307  0.00  0.00    +0.197 A 
ATOM     11  O   LIG A   1      -9.172   2.721 133.507  0.00  0.00    -0.287 OA
ENDROOT
BRANCH   8  12
ATOM     12  C   LIG A   1     -10.447   5.665 129.957  0.00  0.00    +0.021 A 
ATOM     13  C   LIG A   1     -11.811   5.735 129.627  0.00  0.00    +0.061 A 
ATOM     14  C   LIG A   1     -12.313   6.919 129.127  0.00  0.00    +0.167 A 
ATOM     15  C   LIG A   1     -11.521   8.026 128.946  0.00  0.00    +0.166 A 
ATOM     16  O   LIG A   1     -12.212   9.085 128.449  0.00  0.00    -0.453 OA
ATOM     17  C   LIG A   1     -13.533   8.516 128.334  0.00  0.00    +0.466 C 
ATOM     18  O   LIG A   1     -13.605   7.141 128.763  0.00  0.00    -0.453 OA
ATOM     19  C   LIG A   1     -10.181   8.010 129.258  0.00  0.00    +0.050 A 
ATOM     20  C   LIG A   1      -9.645   6.821 129.771  0.00  0.00    +0.015 A 
ENDBRANCH   8  12
BRANCH   1  22
ATOM     21  C   LIG A   1      -7.645   2.596 126.924  0.00  0.00    +0.277 C 
ATOM     22  O   LIG A   1      -8.682   1.930 127.630  0.00  0.00    -0.488 OA
ENDBRANCH   1  22
BRANCH   2  23
ATOM     23  O   LIG A   1      -7.316  -0.576 128.260  0.00  0.00    -0.491 OA
ATOM     24  C   LIG A   1      -5.908  -0.536 128.037  0.00  0.00    +0.277 C 
ENDBRANCH   2  23
BRANCH   4  25
ATOM     25  O   LIG A   1      -7.793   0.512 132.933  0.00  0.00    -0.494 OA
ATOM     26  C   LIG A   1      -6.419   0.423 133.297  0.00  0.00    +0.277 C 
ENDBRANCH   4  25
TORSDOF 4
ENDMDL
MODEL 6
REMARK VINA RESULT:      -6.9      2.814      8.753
REMARK  Name = NuBBE_1593
REMARK  7 active torsions:
REMARK  status: ('A' for Active; 'I' for Inactive)
REMARK    1  A    between atoms: C_1  and  O_2
REMARK    2  A    between atoms: O_2  and  C_3
REMARK    3  A    between atoms: C_4  and  O_5
REMARK    4  A    between atoms: O_5  and  C_6
REMARK    5  A    between atoms: C_8  and  O_9
REMARK    6  A    between atoms: O_9  and  C_10
REMARK    7  A    between atoms: C_14  and  C_15
REMARK                            x       y       z     vdW  Elec       q    Type
REMARK                         _______ _______ _______ _____ _____    ______ ____
ROOT
ATOM      1  C   LIG A   1      -6.252   1.159 125.483  0.00  0.00    +0.205 A 
ATOM      2  C   LIG A   1      -6.802   1.850 124.390  0.00  0.00    +0.169 A 
ATOM      3  C   LIG A   1      -7.970   1.361 123.790  0.00  0.00    +0.096 A 
ATOM      4  C   LIG A   1      -8.641   0.237 124.283  0.00  0.00    +0.138 A 
ATOM      5  C   LIG A   1      -8.106  -0.446 125.382  0.00  0.00    +0.109 A 
ATOM      6  C   LIG A   1      -6.923   0.013 125.975  0.00  0.00    +0.188 A 
ATOM      7  O   LIG A   1      -6.351  -0.628 127.057  0.00  0.00    -0.451 OA
ATOM      8  C   LIG A   1      -6.897  -1.818 127.514  0.00  0.00    +0.140 A 
ATOM      9  C   LIG A   1      -8.014  -2.357 127.015  0.00  0.00    +0.098 A 
ATOM     10  C   LIG A   1      -8.744  -1.662 125.942  0.00  0.00    +0.197 A 
ATOM     11  O   LIG A   1      -9.819  -2.109 125.582  0.00  0.00    -0.287 OA
ENDROOT
BRANCH   8  12
ATOM     12  C   LIG A   1      -6.122  -2.472 128.598  0.00  0.00    +0.021 A 
ATOM     13  C   LIG A   1      -6.775  -2.841 129.787  0.00  0.00    +0.061 A 
ATOM     14  C   LIG A   1      -6.044  -3.457 130.782  0.00  0.00    +0.167 A 
ATOM     15  C   LIG A   1      -4.704  -3.719 130.642  0.00  0.00    +0.166 A 
ATOM     16  O   LIG A   1      -4.177  -4.332 131.734  0.00  0.00    -0.453 OA
ATOM     17  C   LIG A   1      -5.342  -4.425 132.581  0.00  0.00    +0.466 C 
ATOM     18  O   LIG A   1      -6.531  -3.870 131.982  0.00  0.00    -0.453 OA
ATOM     19  C   LIG A   1      -4.019  -3.381 129.497  0.00  0.00    +0.050 A 
ATOM     20  C   LIG A   1      -4.739  -2.758 128.468  0.00  0.00    +0.015 A 
ENDBRANCH   8  12
BRANCH   1  22
ATOM     21  C   LIG A   1      -5.061   2.535 127.074  0.00  0.00    +0.277 C 
ATOM     22  O   LIG A   1      -5.089   1.455 126.151  0.00  0.00    -0.488 OA
ENDBRANCH   1  22
BRANCH   2  23
ATOM     23  O   LIG A   1      -6.146   2.930 123.860  0.00  0.00    -0.491 OA
ATOM     24  C   LIG A   1      -6.570   3.372 122.572  0.00  0.00    +0.277 C 
ENDBRANCH   2  23
BRANCH   4  25
ATOM     25  O   LIG A   1      -9.749  -0.268 123.655  0.00  0.00    -0.494 OA
ATOM     26  C   LIG A   1     -10.227   0.466 122.531  0.00  0.00    +0.277 C 
ENDBRANCH   4  25
TORSDOF 4
ENDMDL
MODEL 7
REMARK VINA RESULT:      -6.8      3.317      9.111
REMARK  Name = NuBBE_1593
REMARK  7 active torsions:
REMARK  status: ('A' for Active; 'I' for Inactive)
REMARK    1  A    between atoms: C_1  and  O_2
REMARK    2  A    between atoms: O_2  and  C_3
REMARK    3  A    between atoms: C_4  and  O_5
REMARK    4  A    between atoms: O_5  and  C_6
REMARK    5  A    between atoms: C_8  and  O_9
REMARK    6  A    between atoms: O_9  and  C_10
REMARK    7  A    between atoms: C_14  and  C_15
REMARK                            x       y       z     vdW  Elec       q    Type
REMARK                         _______ _______ _______ _____ _____    ______ ____
ROOT
ATOM      1  C   LIG A   1      -8.144   1.531 126.875  0.00  0.00    +0.205 A 
ATOM      2  C   LIG A   1      -8.588   2.266 125.762  0.00  0.00    +0.169 A 
ATOM      3  C   LIG A   1      -9.132   1.583 124.666  0.00  0.00    +0.096 A 
ATOM      4  C   LIG A   1      -9.302   0.195 124.668  0.00  0.00    +0.138 A 
ATOM      5  C   LIG A   1      -8.876  -0.540 125.781  0.00  0.00    +0.109 A 
ATOM      6  C   LIG A   1      -8.304   0.124 126.873  0.00  0.00    +0.188 A 
ATOM      7  O   LIG A   1      -7.863  -0.556 127.993  0.00  0.00    -0.451 OA
ATOM      8  C   LIG A   1      -7.887  -1.941 128.005  0.00  0.00    +0.140 A 
ATOM      9  C   LIG A   1      -8.395  -2.679 127.013  0.00  0.00    +0.098 A 
ATOM     10  C   LIG A   1      -8.995  -2.017 125.843  0.00  0.00    +0.197 A 
ATOM     11  O   LIG A   1      -9.556  -2.703 125.007  0.00  0.00    -0.287 OA
ENDROOT
BRANCH   8  12
ATOM     12  C   LIG A   1      -7.273  -2.554 129.209  0.00  0.00    +0.021 A 
ATOM     13  C   LIG A   1      -7.856  -2.334 130.469  0.00  0.00    +0.061 A 
ATOM     14  C   LIG A   1      -7.279  -2.918 131.578  0.00  0.00    +0.167 A 
ATOM     15  C   LIG A   1      -6.159  -3.707 131.485  0.00  0.00    +0.166 A 
ATOM     16  O   LIG A   1      -5.758  -4.186 132.692  0.00  0.00    -0.453 OA
ATOM     17  C   LIG A   1      -6.755  -3.604 133.559  0.00  0.00    +0.466 C 
ATOM     18  O   LIG A   1      -7.724  -2.797 132.858  0.00  0.00    -0.453 OA
ATOM     19  C   LIG A   1      -5.554  -3.957 130.275  0.00  0.00    +0.050 A 
ATOM     20  C   LIG A   1      -6.121  -3.379 129.131  0.00  0.00    +0.015 A 
ENDBRANCH   8  12
BRANCH   1  22
ATOM     21  C   LIG A   1      -8.315   2.658 129.007  0.00  0.00    +0.277 C 
ATOM     22  O   LIG A   1      -7.535   2.023 128.004  0.00  0.00    -0.488 OA
ENDBRANCH   1  22
BRANCH   2  23
ATOM     23  O   LIG A   1      -8.398   3.623 125.715  0.00  0.00    -0.491 OA
ATOM     24  C   LIG A   1      -7.296   4.091 124.941  0.00  0.00    +0.277 C 
ENDBRANCH   2  23
BRANCH   4  25
ATOM     25  O   LIG A   1      -9.779  -0.468 123.568  0.00  0.00    -0.494 OA
ATOM     26  C   LIG A   1     -10.156   0.339 122.457  0.00  0.00    +0.277 C 
ENDBRANCH   4  25
TORSDOF 4
ENDMDL
MODEL 8
REMARK VINA RESULT:      -6.8      3.079      5.298
REMARK  Name = NuBBE_1593
REMARK  7 active torsions:
REMARK  status: ('A' for Active; 'I' for Inactive)
REMARK    1  A    between atoms: C_1  and  O_2
REMARK    2  A    between atoms: O_2  and  C_3
REMARK    3  A    between atoms: C_4  and  O_5
REMARK    4  A    between atoms: O_5  and  C_6
REMARK    5  A    between atoms: C_8  and  O_9
REMARK    6  A    between atoms: O_9  and  C_10
REMARK    7  A    between atoms: C_14  and  C_15
REMARK                            x       y       z     vdW  Elec       q    Type
REMARK                         _______ _______ _______ _____ _____    ______ ____
ROOT
ATOM      1  C   LIG A   1      -8.484   1.487 125.198  0.00  0.00    +0.205 A 
ATOM      2  C   LIG A   1      -9.377   0.479 124.795  0.00  0.00    +0.169 A 
ATOM      3  C   LIG A   1      -9.128  -0.846 125.175  0.00  0.00    +0.096 A 
ATOM      4  C   LIG A   1      -8.049  -1.192 125.993  0.00  0.00    +0.138 A 
ATOM      5  C   LIG A   1      -7.164  -0.190 126.411  0.00  0.00    +0.109 A 
ATOM      6  C   LIG A   1      -7.382   1.136 126.016  0.00  0.00    +0.188 A 
ATOM      7  O   LIG A   1      -6.536   2.160 126.396  0.00  0.00    -0.451 OA
ATOM      8  C   LIG A   1      -5.380   1.866 127.102  0.00  0.00    +0.140 A 
ATOM      9  C   LIG A   1      -5.061   0.636 127.517  0.00  0.00    +0.098 A 
ATOM     10  C   LIG A   1      -5.980  -0.485 127.254  0.00  0.00    +0.197 A 
ATOM     11  O   LIG A   1      -5.730  -1.573 127.741  0.00  0.00    -0.287 OA
ENDROOT
BRANCH   8  12
ATOM     12  C   LIG A   1      -4.494   3.033 127.342  0.00  0.00    +0.021 A 
ATOM     13  C   LIG A   1      -5.043   4.222 127.853  0.00  0.00    +0.061 A 
ATOM     14  C   LIG A   1      -4.205   5.295 128.079  0.00  0.00    +0.167 A 
ATOM     15  C   LIG A   1      -2.858   5.232 127.823  0.00  0.00    +0.166 A 
ATOM     16  O   LIG A   1      -2.217   6.393 128.120  0.00  0.00    -0.453 OA
ATOM     17  C   LIG A   1      -3.320   7.198 128.590  0.00  0.00    +0.466 C 
ATOM     18  O   LIG A   1      -4.585   6.506 128.567  0.00  0.00    -0.453 OA
ATOM     19  C   LIG A   1      -2.272   4.090 127.328  0.00  0.00    +0.050 A 
ATOM     20  C   LIG A   1      -3.098   2.984 127.091  0.00  0.00    +0.015 A 
ENDBRANCH   8  12
BRANCH   1  22
ATOM     21  C   LIG A   1      -8.006   3.264 123.630  0.00  0.00    +0.277 C 
ATOM     22  O   LIG A   1      -8.535   2.820 124.872  0.00  0.00    -0.488 OA
ENDBRANCH   1  22
BRANCH   2  23
ATOM     23  O   LIG A   1     -10.421   0.782 123.960  0.00  0.00    -0.491 OA
ATOM     24  C   LIG A   1     -10.224   0.535 122.570  0.00  0.00    +0.277 C 
ENDBRANCH   2  23
BRANCH   4  25
ATOM     25  O   LIG A   1      -7.780  -2.498 126.310  0.00  0.00    -0.494 OA
ATOM     26  C   LIG A   1      -8.857  -3.248 126.865  0.00  0.00    +0.277 C 
ENDBRANCH   4  25
TORSDOF 4
ENDMDL
MODEL 9
REMARK VINA RESULT:      -6.6      3.671      6.175
REMARK  Name = NuBBE_1593
REMARK  7 active torsions:
REMARK  status: ('A' for Active; 'I' for Inactive)
REMARK    1  A    between atoms: C_1  and  O_2
REMARK    2  A    between atoms: O_2  and  C_3
REMARK    3  A    between atoms: C_4  and  O_5
REMARK    4  A    between atoms: O_5  and  C_6
REMARK    5  A    between atoms: C_8  and  O_9
REMARK    6  A    between atoms: O_9  and  C_10
REMARK    7  A    between atoms: C_14  and  C_15
REMARK                            x       y       z     vdW  Elec       q    Type
REMARK                         _______ _______ _______ _____ _____    ______ ____
ROOT
ATOM      1  C   LIG A   1      -3.996   4.538 128.481  0.00  0.00    +0.205 A 
ATOM      2  C   LIG A   1      -3.803   4.768 129.854  0.00  0.00    +0.169 A 
ATOM      3  C   LIG A   1      -4.917   4.806 130.703  0.00  0.00    +0.096 A 
ATOM      4  C   LIG A   1      -6.212   4.562 130.236  0.00  0.00    +0.138 A 
ATOM      5  C   LIG A   1      -6.409   4.316 128.872  0.00  0.00    +0.109 A 
ATOM      6  C   LIG A   1      -5.309   4.305 128.005  0.00  0.00    +0.188 A 
ATOM      7  O   LIG A   1      -5.450   4.073 126.650  0.00  0.00    -0.451 OA
ATOM      8  C   LIG A   1      -6.718   3.949 126.105  0.00  0.00    +0.140 A 
ATOM      9  C   LIG A   1      -7.839   3.961 126.834  0.00  0.00    +0.098 A 
ATOM     10  C   LIG A   1      -7.756   4.080 128.299  0.00  0.00    +0.197 A 
ATOM     11  O   LIG A   1      -8.778   3.972 128.953  0.00  0.00    -0.287 OA
ENDROOT
BRANCH   8  12
ATOM     12  C   LIG A   1      -6.741   3.828 124.626  0.00  0.00    +0.021 A 
ATOM     13  C   LIG A   1      -5.655   4.313 123.877  0.00  0.00    +0.061 A 
ATOM     14  C   LIG A   1      -5.687   4.185 122.503  0.00  0.00    +0.167 A 
ATOM     15  C   LIG A   1      -6.743   3.598 121.852  0.00  0.00    +0.166 A 
ATOM     16  O   LIG A   1      -6.573   3.570 120.504  0.00  0.00    -0.453 OA
ATOM     17  C   LIG A   1      -5.285   4.210 120.380  0.00  0.00    +0.466 C 
ATOM     18  O   LIG A   1      -4.717   4.604 121.646  0.00  0.00    -0.453 OA
ATOM     19  C   LIG A   1      -7.828   3.104 122.539  0.00  0.00    +0.050 A 
ATOM     20  C   LIG A   1      -7.821   3.218 123.936  0.00  0.00    +0.015 A 
ENDBRANCH   8  12
BRANCH   1  22
ATOM     21  C   LIG A   1      -2.223   3.376 127.318  0.00  0.00    +0.277 C 
ATOM     22  O   LIG A   1      -3.035   4.528 127.499  0.00  0.00    -0.488 OA
ENDBRANCH   1  22
BRANCH   2  23
ATOM     23  O   LIG A   1      -2.550   5.050 130.333  0.00  0.00    -0.491 OA
ATOM     24  C   LIG A   1      -2.156   6.420 130.337  0.00  0.00    +0.277 C 
ENDBRANCH   2  23
BRANCH   4  25
ATOM     25  O   LIG A   1      -7.300   4.660 131.063  0.00  0.00    -0.494 OA
ATOM     26  C   LIG A   1      -7.519   5.928 131.673  0.00  0.00    +0.277 C 
ENDBRANCH   4  25
TORSDOF 4
ENDMDL
