MODEL 1
REMARK VINA RESULT:      -8.0      0.000      0.000
REMARK  Name = NuBBE_1962
REMARK  7 active torsions:
REMARK  status: ('A' for Active; 'I' for Inactive)
REMARK    1  A    between atoms: C_2  and  C_31
REMARK    2  A    between atoms: C_22  and  O_23
REMARK    3  A    between atoms: O_23  and  C_24
REMARK    4  A    between atoms: C_25  and  O_26
REMARK    5  A    between atoms: O_26  and  C_27
REMARK    6  A    between atoms: C_28  and  O_29
REMARK    7  A    between atoms: C_31  and  C_32
REMARK                            x       y       z     vdW  Elec       q    Type
REMARK                         _______ _______ _______ _____ _____    ______ ____
ROOT
ATOM      1  O   LIG A   1      -8.654   4.216 125.480  0.00  0.00    -0.275 OA
ATOM      2  C   LIG A   1      -8.420   3.108 125.024  0.00  0.00    +0.220 C 
ATOM      3  N   LIG A   1      -8.148   1.984 125.813  0.00  0.00    -0.264 N 
ATOM      4  C   LIG A   1      -7.916   0.622 125.295  0.00  0.00    +0.096 C 
ATOM      5  C   LIG A   1      -7.130  -0.141 126.398  0.00  0.00    +0.061 C 
ATOM      6  C   LIG A   1      -7.100  -1.716 126.193  0.00  0.00    +0.140 C 
ATOM      7  N   LIG A   1      -5.761  -1.944 125.638  0.00  0.00    -0.274 NA
ATOM      8  C   LIG A   1      -5.093  -0.723 125.262  0.00  0.00    +0.088 C 
ATOM      9  C   LIG A   1      -5.628   0.237 126.293  0.00  0.00    +0.033 C 
ATOM     10  O   LIG A   1      -7.132  -2.370 127.475  0.00  0.00    -0.357 OA
ATOM     11  C   LIG A   1      -8.299  -3.186 127.596  0.00  0.00    +0.163 C 
ATOM     12  C   LIG A   1      -9.232  -2.793 126.478  0.00  0.00    +0.039 C 
ATOM     13  C   LIG A   1      -8.276  -2.346 125.368  0.00  0.00    +0.017 C 
ATOM     14  C   LIG A   1      -7.857  -3.607 124.557  0.00  0.00    +0.012 C 
ATOM     15  C   LIG A   1      -6.535  -3.408 123.832  0.00  0.00    +0.016 C 
ATOM     16  C   LIG A   1      -5.459  -3.117 124.858  0.00  0.00    +0.087 C 
ATOM     17  C   LIG A   1      -8.988  -1.399 124.392  0.00  0.00    +0.013 C 
ATOM     18  C   LIG A   1      -9.261  -0.047 125.009  0.00  0.00    +0.025 C 
ATOM     19  C   LIG A   1      -7.661   0.605 127.614  0.00  0.00    -0.007 A 
ATOM     20  C   LIG A   1      -7.553   0.250 128.957  0.00  0.00    +0.056 A 
ATOM     21  C   LIG A   1      -7.899   1.178 129.951  0.00  0.00    +0.166 A 
ATOM     22  C   LIG A   1      -8.287   2.488 129.589  0.00  0.00    +0.205 A 
ATOM     23  C   LIG A   1      -8.392   2.844 128.226  0.00  0.00    +0.184 A 
ATOM     24  C   LIG A   1      -8.112   1.900 127.235  0.00  0.00    +0.086 A 
ENDROOT
BRANCH  21  25
ATOM     25  O   LIG A   1      -7.744   0.708 131.237  0.00  0.00    -0.491 OA
ATOM     26  C   LIG A   1      -8.802  -0.101 131.751  0.00  0.00    +0.277 C 
ENDBRANCH  21  25
BRANCH  22  27
ATOM     27  O   LIG A   1      -8.401   3.394 130.615  0.00  0.00    -0.488 OA
ATOM     28  C   LIG A   1      -9.680   3.574 131.203  0.00  0.00    +0.277 C 
ENDBRANCH  22  27
BRANCH  23  29
ATOM     29  O   LIG A   1      -8.716   4.136 127.934  0.00  0.00    -0.502 OA
ATOM     30  H   LIG A   1      -8.240   4.740 128.543  0.00  0.00    +0.292 HD
ENDBRANCH  23  29
BRANCH   2  31
ATOM     31  C   LIG A   1      -8.388   2.897 123.504  0.00  0.00    +0.093 C 
ATOM     32  C   LIG A   1      -7.058   3.258 122.858  0.00  0.00    +0.013 C 
ENDBRANCH   2  31
TORSDOF 4
ENDMDL
MODEL 2
REMARK VINA RESULT:      -8.0      2.861      5.613
REMARK  Name = NuBBE_1962
REMARK  7 active torsions:
REMARK  status: ('A' for Active; 'I' for Inactive)
REMARK    1  A    between atoms: C_2  and  C_31
REMARK    2  A    between atoms: C_22  and  O_23
REMARK    3  A    between atoms: O_23  and  C_24
REMARK    4  A    between atoms: C_25  and  O_26
REMARK    5  A    between atoms: O_26  and  C_27
REMARK    6  A    between atoms: C_28  and  O_29
REMARK    7  A    between atoms: C_31  and  C_32
REMARK                            x       y       z     vdW  Elec       q    Type
REMARK                         _______ _______ _______ _____ _____    ______ ____
ROOT
ATOM      1  O   LIG A   1      -4.626   3.290 127.543  0.00  0.00    -0.275 OA
ATOM      2  C   LIG A   1      -5.139   2.183 127.504  0.00  0.00    +0.220 C 
ATOM      3  N   LIG A   1      -5.776   1.661 126.372  0.00  0.00    -0.264 N 
ATOM      4  C   LIG A   1      -6.357   0.308 126.276  0.00  0.00    +0.096 C 
ATOM      5  C   LIG A   1      -7.402   0.357 125.125  0.00  0.00    +0.061 C 
ATOM      6  C   LIG A   1      -7.871  -1.075 124.622  0.00  0.00    +0.140 C 
ATOM      7  N   LIG A   1      -9.179  -1.231 125.270  0.00  0.00    -0.274 NA
ATOM      8  C   LIG A   1      -9.439  -0.220 126.263  0.00  0.00    +0.088 C 
ATOM      9  C   LIG A   1      -8.720   0.966 125.674  0.00  0.00    +0.033 C 
ATOM     10  O   LIG A   1      -8.115  -1.031 123.204  0.00  0.00    -0.357 OA
ATOM     11  C   LIG A   1      -7.244  -1.931 122.516  0.00  0.00    +0.163 C 
ATOM     12  C   LIG A   1      -6.165  -2.335 123.488  0.00  0.00    +0.039 C 
ATOM     13  C   LIG A   1      -6.875  -2.266 124.843  0.00  0.00    +0.017 C 
ATOM     14  C   LIG A   1      -7.585  -3.630 125.085  0.00  0.00    +0.012 C 
ATOM     15  C   LIG A   1      -8.742  -3.507 126.064  0.00  0.00    +0.016 C 
ATOM     16  C   LIG A   1      -9.753  -2.531 125.499  0.00  0.00    +0.087 C 
ATOM     17  C   LIG A   1      -5.856  -2.082 125.977  0.00  0.00    +0.013 C 
ATOM     18  C   LIG A   1      -5.246  -0.699 125.974  0.00  0.00    +0.025 C 
ATOM     19  C   LIG A   1      -6.759   1.449 124.281  0.00  0.00    -0.007 A 
ATOM     20  C   LIG A   1      -7.055   1.808 122.968  0.00  0.00    +0.056 A 
ATOM     21  C   LIG A   1      -6.522   2.991 122.434  0.00  0.00    +0.166 A 
ATOM     22  C   LIG A   1      -5.750   3.848 123.250  0.00  0.00    +0.205 A 
ATOM     23  C   LIG A   1      -5.456   3.481 124.582  0.00  0.00    +0.184 A 
ATOM     24  C   LIG A   1      -5.929   2.271 125.093  0.00  0.00    +0.086 A 
ENDROOT
BRANCH  21  25
ATOM     25  O   LIG A   1      -6.893   3.235 121.129  0.00  0.00    -0.491 OA
ATOM     26  C   LIG A   1      -8.216   3.734 120.927  0.00  0.00    +0.277 C 
ENDBRANCH  21  25
BRANCH  22  27
ATOM     27  O   LIG A   1      -5.447   5.080 122.723  0.00  0.00    -0.488 OA
ATOM     28  C   LIG A   1      -4.329   5.175 121.854  0.00  0.00    +0.277 C 
ENDBRANCH  22  27
BRANCH  23  29
ATOM     29  O   LIG A   1      -4.753   4.371 125.341  0.00  0.00    -0.502 OA
ATOM     30  H   LIG A   1      -5.082   5.280 125.171  0.00  0.00    +0.292 HD
ENDBRANCH  23  29
BRANCH   2  31
ATOM     31  C   LIG A   1      -5.129   1.290 128.752  0.00  0.00    +0.093 C 
ATOM     32  C   LIG A   1      -4.162   1.751 129.834  0.00  0.00    +0.013 C 
ENDBRANCH   2  31
TORSDOF 4
ENDMDL
MODEL 3
REMARK VINA RESULT:      -7.4      2.760      4.789
REMARK  Name = NuBBE_1962
REMARK  7 active torsions:
REMARK  status: ('A' for Active; 'I' for Inactive)
REMARK    1  A    between atoms: C_2  and  C_31
REMARK    2  A    between atoms: C_22  and  O_23
REMARK    3  A    between atoms: O_23  and  C_24
REMARK    4  A    between atoms: C_25  and  O_26
REMARK    5  A    between atoms: O_26  and  C_27
REMARK    6  A    between atoms: C_28  and  O_29
REMARK    7  A    between atoms: C_31  and  C_32
REMARK                            x       y       z     vdW  Elec       q    Type
REMARK                         _______ _______ _______ _____ _____    ______ ____
ROOT
ATOM      1  O   LIG A   1      -8.192   4.593 130.300  0.00  0.00    -0.275 OA
ATOM      2  C   LIG A   1      -8.495   3.519 129.807  0.00  0.00    +0.220 C 
ATOM      3  N   LIG A   1      -7.738   2.874 128.821  0.00  0.00    -0.264 N 
ATOM      4  C   LIG A   1      -8.049   1.552 128.245  0.00  0.00    +0.096 C 
ATOM      5  C   LIG A   1      -7.328   1.490 126.869  0.00  0.00    +0.061 C 
ATOM      6  C   LIG A   1      -7.234   0.026 126.258  0.00  0.00    +0.140 C 
ATOM      7  N   LIG A   1      -8.304   0.028 125.252  0.00  0.00    -0.274 NA
ATOM      8  C   LIG A   1      -9.163   1.181 125.347  0.00  0.00    +0.088 C 
ATOM      9  C   LIG A   1      -8.194   2.235 125.818  0.00  0.00    +0.033 C 
ATOM     10  O   LIG A   1      -5.994  -0.118 125.542  0.00  0.00    -0.357 OA
ATOM     11  C   LIG A   1      -5.193  -1.148 126.125  0.00  0.00    +0.163 C 
ATOM     12  C   LIG A   1      -5.790  -1.464 127.472  0.00  0.00    +0.039 C 
ATOM     13  C   LIG A   1      -7.279  -1.169 127.271  0.00  0.00    +0.017 C 
ATOM     14  C   LIG A   1      -7.949  -2.449 126.690  0.00  0.00    +0.012 C 
ATOM     15  C   LIG A   1      -9.233  -2.132 125.939  0.00  0.00    +0.016 C 
ATOM     16  C   LIG A   1      -8.906  -1.196 124.794  0.00  0.00    +0.087 C 
ATOM     17  C   LIG A   1      -7.959  -0.878 128.617  0.00  0.00    +0.013 C 
ATOM     18  C   LIG A   1      -7.542   0.458 129.186  0.00  0.00    +0.025 C 
ATOM     19  C   LIG A   1      -6.163   2.419 127.180  0.00  0.00    -0.007 A 
ATOM     20  C   LIG A   1      -4.990   2.603 126.451  0.00  0.00    +0.056 A 
ATOM     21  C   LIG A   1      -4.136   3.671 126.765  0.00  0.00    +0.166 A 
ATOM     22  C   LIG A   1      -4.504   4.595 127.770  0.00  0.00    +0.205 A 
ATOM     23  C   LIG A   1      -5.696   4.406 128.504  0.00  0.00    +0.184 A 
ATOM     24  C   LIG A   1      -6.512   3.305 128.237  0.00  0.00    +0.086 A 
ENDROOT
BRANCH  21  25
ATOM     25  O   LIG A   1      -3.014   3.747 125.969  0.00  0.00    -0.491 OA
ATOM     26  C   LIG A   1      -1.843   3.091 126.457  0.00  0.00    +0.277 C 
ENDBRANCH  21  25
BRANCH  22  27
ATOM     27  O   LIG A   1      -3.728   5.724 127.871  0.00  0.00    -0.488 OA
ATOM     28  C   LIG A   1      -2.689   5.733 128.839  0.00  0.00    +0.277 C 
ENDBRANCH  22  27
BRANCH  23  29
ATOM     29  O   LIG A   1      -6.029   5.358 129.422  0.00  0.00    -0.502 OA
ATOM     30  H   LIG A   1      -6.930   5.181 129.767  0.00  0.00    +0.292 HD
ENDBRANCH  23  29
BRANCH   2  31
ATOM     31  C   LIG A   1      -9.785   2.812 130.247  0.00  0.00    +0.093 C 
ATOM     32  C   LIG A   1      -9.733   2.259 131.664  0.00  0.00    +0.013 C 
ENDBRANCH   2  31
TORSDOF 4
ENDMDL
MODEL 4
REMARK VINA RESULT:      -7.3      2.472      3.441
REMARK  Name = NuBBE_1962
REMARK  7 active torsions:
REMARK  status: ('A' for Active; 'I' for Inactive)
REMARK    1  A    between atoms: C_2  and  C_31
REMARK    2  A    between atoms: C_22  and  O_23
REMARK    3  A    between atoms: O_23  and  C_24
REMARK    4  A    between atoms: C_25  and  O_26
REMARK    5  A    between atoms: O_26  and  C_27
REMARK    6  A    between atoms: C_28  and  O_29
REMARK    7  A    between atoms: C_31  and  C_32
REMARK                            x       y       z     vdW  Elec       q    Type
REMARK                         _______ _______ _______ _____ _____    ______ ____
ROOT
ATOM      1  O   LIG A   1      -3.892   5.088 128.092  0.00  0.00    -0.275 OA
ATOM      2  C   LIG A   1      -4.131   4.178 127.315  0.00  0.00    +0.220 C 
ATOM      3  N   LIG A   1      -5.299   3.406 127.356  0.00  0.00    -0.264 N 
ATOM      4  C   LIG A   1      -5.641   2.336 126.398  0.00  0.00    +0.096 C 
ATOM      5  C   LIG A   1      -6.673   1.419 127.113  0.00  0.00    +0.061 C 
ATOM      6  C   LIG A   1      -7.437   0.428 126.134  0.00  0.00    +0.140 C 
ATOM      7  N   LIG A   1      -6.743  -0.846 126.359  0.00  0.00    -0.274 NA
ATOM      8  C   LIG A   1      -5.538  -0.700 127.137  0.00  0.00    +0.088 C 
ATOM      9  C   LIG A   1      -5.910   0.442 128.047  0.00  0.00    +0.033 C 
ATOM     10  O   LIG A   1      -8.790   0.247 126.590  0.00  0.00    -0.357 OA
ATOM     11  C   LIG A   1      -9.719   0.700 125.604  0.00  0.00    +0.163 C 
ATOM     12  C   LIG A   1      -8.939   1.511 124.600  0.00  0.00    +0.039 C 
ATOM     13  C   LIG A   1      -7.552   0.863 124.632  0.00  0.00    +0.017 C 
ATOM     14  C   LIG A   1      -7.558  -0.336 123.638  0.00  0.00    +0.012 C 
ATOM     15  C   LIG A   1      -6.492  -1.366 123.979  0.00  0.00    +0.016 C 
ATOM     16  C   LIG A   1      -6.757  -1.895 125.373  0.00  0.00    +0.087 C 
ATOM     17  C   LIG A   1      -6.484   1.850 124.139  0.00  0.00    +0.013 C 
ATOM     18  C   LIG A   1      -6.234   2.960 125.134  0.00  0.00    +0.025 C 
ATOM     19  C   LIG A   1      -7.307   2.458 128.027  0.00  0.00    -0.007 A 
ATOM     20  C   LIG A   1      -8.487   2.354 128.761  0.00  0.00    +0.056 A 
ATOM     21  C   LIG A   1      -8.791   3.323 129.728  0.00  0.00    +0.166 A 
ATOM     22  C   LIG A   1      -7.869   4.358 130.004  0.00  0.00    +0.205 A 
ATOM     23  C   LIG A   1      -6.672   4.457 129.260  0.00  0.00    +0.184 A 
ATOM     24  C   LIG A   1      -6.401   3.532 128.250  0.00  0.00    +0.086 A 
ENDROOT
BRANCH  21  25
ATOM     25  O   LIG A   1      -9.981   3.104 130.388  0.00  0.00    -0.491 OA
ATOM     26  C   LIG A   1      -9.923   2.271 131.545  0.00  0.00    +0.277 C 
ENDBRANCH  21  25
BRANCH  22  27
ATOM     27  O   LIG A   1      -8.138   5.135 131.104  0.00  0.00    -0.488 OA
ATOM     28  C   LIG A   1      -8.826   6.360 130.901  0.00  0.00    +0.277 C 
ENDBRANCH  22  27
BRANCH  23  29
ATOM     29  O   LIG A   1      -5.794   5.442 129.606  0.00  0.00    -0.502 OA
ATOM     30  H   LIG A   1      -5.961   6.239 129.059  0.00  0.00    +0.292 HD
ENDBRANCH  23  29
BRANCH   2  31
ATOM     31  C   LIG A   1      -3.108   3.809 126.231  0.00  0.00    +0.093 C 
ATOM     32  C   LIG A   1      -1.871   3.101 126.765  0.00  0.00    +0.013 C 
ENDBRANCH   2  31
TORSDOF 4
ENDMDL
MODEL 5
REMARK VINA RESULT:      -7.3      2.630      4.598
REMARK  Name = NuBBE_1962
REMARK  7 active torsions:
REMARK  status: ('A' for Active; 'I' for Inactive)
REMARK    1  A    between atoms: C_2  and  C_31
REMARK    2  A    between atoms: C_22  and  O_23
REMARK    3  A    between atoms: O_23  and  C_24
REMARK    4  A    between atoms: C_25  and  O_26
REMARK    5  A    between atoms: O_26  and  C_27
REMARK    6  A    between atoms: C_28  and  O_29
REMARK    7  A    between atoms: C_31  and  C_32
REMARK                            x       y       z     vdW  Elec       q    Type
REMARK                         _______ _______ _______ _____ _____    ______ ____
ROOT
ATOM      1  O   LIG A   1      -9.572  -0.877 125.129  0.00  0.00    -0.275 OA
ATOM      2  C   LIG A   1      -9.012  -1.633 125.907  0.00  0.00    +0.220 C 
ATOM      3  N   LIG A   1      -8.241  -1.200 126.992  0.00  0.00    -0.264 N 
ATOM      4  C   LIG A   1      -7.597  -2.087 127.980  0.00  0.00    +0.096 C 
ATOM      5  C   LIG A   1      -6.442  -1.267 128.622  0.00  0.00    +0.061 C 
ATOM      6  C   LIG A   1      -5.864  -1.908 129.956  0.00  0.00    +0.140 C 
ATOM      7  N   LIG A   1      -4.624  -2.545 129.496  0.00  0.00    -0.274 NA
ATOM      8  C   LIG A   1      -4.510  -2.583 128.060  0.00  0.00    +0.088 C 
ATOM      9  C   LIG A   1      -5.214  -1.307 127.673  0.00  0.00    +0.033 C 
ATOM     10  O   LIG A   1      -5.477  -0.861 130.865  0.00  0.00    -0.357 OA
ATOM     11  C   LIG A   1      -6.233  -0.939 132.074  0.00  0.00    +0.163 C 
ATOM     12  C   LIG A   1      -7.389  -1.871 131.815  0.00  0.00    +0.039 C 
ATOM     13  C   LIG A   1      -6.826  -2.840 130.770  0.00  0.00    +0.017 C 
ATOM     14  C   LIG A   1      -6.088  -3.985 131.524  0.00  0.00    +0.012 C 
ATOM     15  C   LIG A   1      -5.045  -4.665 130.651  0.00  0.00    +0.016 C 
ATOM     16  C   LIG A   1      -4.022  -3.632 130.225  0.00  0.00    +0.087 C 
ATOM     17  C   LIG A   1      -7.964  -3.489 129.968  0.00  0.00    +0.013 C 
ATOM     18  C   LIG A   1      -8.627  -2.508 129.029  0.00  0.00    +0.025 C 
ATOM     19  C   LIG A   1      -7.039   0.125 128.469  0.00  0.00    -0.007 A 
ATOM     20  C   LIG A   1      -6.624   1.311 129.073  0.00  0.00    +0.056 A 
ATOM     21  C   LIG A   1      -7.148   2.535 128.633  0.00  0.00    +0.166 A 
ATOM     22  C   LIG A   1      -8.036   2.567 127.533  0.00  0.00    +0.205 A 
ATOM     23  C   LIG A   1      -8.450   1.363 126.922  0.00  0.00    +0.184 A 
ATOM     24  C   LIG A   1      -7.982   0.140 127.404  0.00  0.00    +0.086 A 
ENDROOT
BRANCH  21  25
ATOM     25  O   LIG A   1      -6.655   3.632 129.306  0.00  0.00    -0.491 OA
ATOM     26  C   LIG A   1      -5.312   4.011 129.006  0.00  0.00    +0.277 C 
ENDBRANCH  21  25
BRANCH  22  27
ATOM     27  O   LIG A   1      -8.333   3.810 127.029  0.00  0.00    -0.488 OA
ATOM     28  C   LIG A   1      -7.509   4.322 125.993  0.00  0.00    +0.277 C 
ENDBRANCH  22  27
BRANCH  23  29
ATOM     29  O   LIG A   1      -9.263   1.457 125.831  0.00  0.00    -0.502 OA
ATOM     30  H   LIG A   1      -9.706   2.332 125.824  0.00  0.00    +0.292 HD
ENDBRANCH  23  29
BRANCH   2  31
ATOM     31  C   LIG A   1      -9.114  -3.151 125.706  0.00  0.00    +0.093 C 
ATOM     32  C   LIG A   1      -8.167  -3.698 124.647  0.00  0.00    +0.013 C 
ENDBRANCH   2  31
TORSDOF 4
ENDMDL
MODEL 6
REMARK VINA RESULT:      -7.3      2.922      4.759
REMARK  Name = NuBBE_1962
REMARK  7 active torsions:
REMARK  status: ('A' for Active; 'I' for Inactive)
REMARK    1  A    between atoms: C_2  and  C_31
REMARK    2  A    between atoms: C_22  and  O_23
REMARK    3  A    between atoms: O_23  and  C_24
REMARK    4  A    between atoms: C_25  and  O_26
REMARK    5  A    between atoms: O_26  and  C_27
REMARK    6  A    between atoms: C_28  and  O_29
REMARK    7  A    between atoms: C_31  and  C_32
REMARK                            x       y       z     vdW  Elec       q    Type
REMARK                         _______ _______ _______ _____ _____    ______ ____
ROOT
ATOM      1  O   LIG A   1      -8.201   0.084 125.910  0.00  0.00    -0.275 OA
ATOM      2  C   LIG A   1      -7.632  -0.735 126.613  0.00  0.00    +0.220 C 
ATOM      3  N   LIG A   1      -7.421  -0.568 127.987  0.00  0.00    -0.264 N 
ATOM      4  C   LIG A   1      -6.784  -1.562 128.873  0.00  0.00    +0.096 C 
ATOM      5  C   LIG A   1      -6.264  -0.780 130.112  0.00  0.00    +0.061 C 
ATOM      6  C   LIG A   1      -5.877  -1.708 131.342  0.00  0.00    +0.140 C 
ATOM      7  N   LIG A   1      -4.412  -1.762 131.256  0.00  0.00    -0.274 NA
ATOM      8  C   LIG A   1      -3.900  -1.209 130.027  0.00  0.00    +0.088 C 
ATOM      9  C   LIG A   1      -4.906  -0.120 129.751  0.00  0.00    +0.033 C 
ATOM     10  O   LIG A   1      -6.193  -1.033 132.573  0.00  0.00    -0.357 OA
ATOM     11  C   LIG A   1      -7.163  -1.772 133.317  0.00  0.00    +0.163 C 
ATOM     12  C   LIG A   1      -7.746  -2.803 132.385  0.00  0.00    +0.039 C 
ATOM     13  C   LIG A   1      -6.587  -3.102 131.429  0.00  0.00    +0.017 C 
ATOM     14  C   LIG A   1      -5.704  -4.209 132.077  0.00  0.00    +0.012 C 
ATOM     15  C   LIG A   1      -4.281  -4.192 131.539  0.00  0.00    +0.016 C 
ATOM     16  C   LIG A   1      -3.664  -2.843 131.844  0.00  0.00    +0.087 C 
ATOM     17  C   LIG A   1      -7.115  -3.667 130.102  0.00  0.00    +0.013 C 
ATOM     18  C   LIG A   1      -7.818  -2.615 129.277  0.00  0.00    +0.025 C 
ATOM     19  C   LIG A   1      -7.285   0.349 130.114  0.00  0.00    -0.007 A 
ATOM     20  C   LIG A   1      -7.547   1.272 131.125  0.00  0.00    +0.056 A 
ATOM     21  C   LIG A   1      -8.360   2.383 130.858  0.00  0.00    +0.166 A 
ATOM     22  C   LIG A   1      -8.849   2.601 129.550  0.00  0.00    +0.205 A 
ATOM     23  C   LIG A   1      -8.578   1.665 128.527  0.00  0.00    +0.184 A 
ATOM     24  C   LIG A   1      -7.826   0.523 128.809  0.00  0.00    +0.086 A 
ENDROOT
BRANCH  21  25
ATOM     25  O   LIG A   1      -8.537   3.222 131.937  0.00  0.00    -0.491 OA
ATOM     26  C   LIG A   1      -9.374   2.736 132.988  0.00  0.00    +0.277 C 
ENDBRANCH  21  25
BRANCH  22  27
ATOM     27  O   LIG A   1      -9.452   3.814 129.320  0.00  0.00    -0.488 OA
ATOM     28  C   LIG A   1      -8.618   4.936 129.074  0.00  0.00    +0.277 C 
ENDBRANCH  22  27
BRANCH  23  29
ATOM     29  O   LIG A   1      -9.027   1.953 127.272  0.00  0.00    -0.502 OA
ATOM     30  H   LIG A   1      -9.037   2.926 127.141  0.00  0.00    +0.292 HD
ENDBRANCH  23  29
BRANCH   2  31
ATOM     31  C   LIG A   1      -7.077  -2.024 125.991  0.00  0.00    +0.093 C 
ATOM     32  C   LIG A   1      -8.152  -3.006 125.544  0.00  0.00    +0.013 C 
ENDBRANCH   2  31
TORSDOF 4
ENDMDL
MODEL 7
REMARK VINA RESULT:      -7.3      4.870      8.387
REMARK  Name = NuBBE_1962
REMARK  7 active torsions:
REMARK  status: ('A' for Active; 'I' for Inactive)
REMARK    1  A    between atoms: C_2  and  C_31
REMARK    2  A    between atoms: C_22  and  O_23
REMARK    3  A    between atoms: O_23  and  C_24
REMARK    4  A    between atoms: C_25  and  O_26
REMARK    5  A    between atoms: O_26  and  C_27
REMARK    6  A    between atoms: C_28  and  O_29
REMARK    7  A    between atoms: C_31  and  C_32
REMARK                            x       y       z     vdW  Elec       q    Type
REMARK                         _______ _______ _______ _____ _____    ______ ____
ROOT
ATOM      1  O   LIG A   1      -9.466   4.639 131.510  0.00  0.00    -0.275 OA
ATOM      2  C   LIG A   1      -8.359   4.992 131.880  0.00  0.00    +0.220 C 
ATOM      3  N   LIG A   1      -7.193   4.812 131.126  0.00  0.00    -0.264 N 
ATOM      4  C   LIG A   1      -5.848   5.275 131.522  0.00  0.00    +0.096 C 
ATOM      5  C   LIG A   1      -4.832   4.410 130.724  0.00  0.00    +0.061 C 
ATOM      6  C   LIG A   1      -3.353   4.990 130.729  0.00  0.00    +0.140 C 
ATOM      7  N   LIG A   1      -2.680   4.150 131.727  0.00  0.00    -0.274 NA
ATOM      8  C   LIG A   1      -3.596   3.330 132.480  0.00  0.00    +0.088 C 
ATOM      9  C   LIG A   1      -4.658   3.049 131.449  0.00  0.00    +0.033 C 
ATOM     10  O   LIG A   1      -2.723   4.713 129.465  0.00  0.00    -0.357 OA
ATOM     11  C   LIG A   1      -2.368   5.928 128.801  0.00  0.00    +0.163 C 
ATOM     12  C   LIG A   1      -3.090   7.046 129.509  0.00  0.00    +0.039 C 
ATOM     13  C   LIG A   1      -3.197   6.535 130.949  0.00  0.00    +0.017 C 
ATOM     14  C   LIG A   1      -1.889   6.925 131.697  0.00  0.00    +0.012 C 
ATOM     15  C   LIG A   1      -1.625   6.028 132.896  0.00  0.00    +0.016 C 
ATOM     16  C   LIG A   1      -1.495   4.598 132.411  0.00  0.00    +0.087 C 
ATOM     17  C   LIG A   1      -4.357   7.225 131.681  0.00  0.00    +0.013 C 
ATOM     18  C   LIG A   1      -5.704   6.759 131.179  0.00  0.00    +0.025 C 
ATOM     19  C   LIG A   1      -5.689   4.122 129.500  0.00  0.00    -0.007 A 
ATOM     20  C   LIG A   1      -5.288   3.602 128.271  0.00  0.00    +0.056 A 
ATOM     21  C   LIG A   1      -6.255   3.186 127.343  0.00  0.00    +0.166 A 
ATOM     22  C   LIG A   1      -7.625   3.230 127.686  0.00  0.00    +0.205 A 
ATOM     23  C   LIG A   1      -8.027   3.755 128.934  0.00  0.00    +0.184 A 
ATOM     24  C   LIG A   1      -7.068   4.231 129.830  0.00  0.00    +0.086 A 
ENDROOT
BRANCH  21  25
ATOM     25  O   LIG A   1      -5.730   2.686 126.171  0.00  0.00    -0.491 OA
ATOM     26  C   LIG A   1      -4.910   1.523 126.287  0.00  0.00    +0.277 C 
ENDBRANCH  21  25
BRANCH  22  27
ATOM     27  O   LIG A   1      -8.489   2.610 126.816  0.00  0.00    -0.488 OA
ATOM     28  C   LIG A   1      -8.686   1.212 126.957  0.00  0.00    +0.277 C 
ENDBRANCH  22  27
BRANCH  23  29
ATOM     29  O   LIG A   1      -9.357   3.721 129.234  0.00  0.00    -0.502 OA
ATOM     30  H   LIG A   1      -9.628   4.580 129.624  0.00  0.00    +0.292 HD
ENDBRANCH  23  29
BRANCH   2  31
ATOM     31  C   LIG A   1      -8.185   5.652 133.255  0.00  0.00    +0.093 C 
ATOM     32  C   LIG A   1      -8.266   4.678 134.422  0.00  0.00    +0.013 C 
ENDBRANCH   2  31
TORSDOF 4
ENDMDL
MODEL 8
REMARK VINA RESULT:      -7.1      2.375      7.092
REMARK  Name = NuBBE_1962
REMARK  7 active torsions:
REMARK  status: ('A' for Active; 'I' for Inactive)
REMARK    1  A    between atoms: C_2  and  C_31
REMARK    2  A    between atoms: C_22  and  O_23
REMARK    3  A    between atoms: O_23  and  C_24
REMARK    4  A    between atoms: C_25  and  O_26
REMARK    5  A    between atoms: O_26  and  C_27
REMARK    6  A    between atoms: C_28  and  O_29
REMARK    7  A    between atoms: C_31  and  C_32
REMARK                            x       y       z     vdW  Elec       q    Type
REMARK                         _______ _______ _______ _____ _____    ______ ____
ROOT
ATOM      1  O   LIG A   1      -6.513  -3.118 128.502  0.00  0.00    -0.275 OA
ATOM      2  C   LIG A   1      -6.592  -2.331 129.431  0.00  0.00    +0.220 C 
ATOM      3  N   LIG A   1      -7.115  -1.037 129.312  0.00  0.00    -0.264 N 
ATOM      4  C   LIG A   1      -7.274  -0.083 130.426  0.00  0.00    +0.096 C 
ATOM      5  C   LIG A   1      -7.340   1.333 129.787  0.00  0.00    +0.061 C 
ATOM      6  C   LIG A   1      -7.872   2.459 130.774  0.00  0.00    +0.140 C 
ATOM      7  N   LIG A   1      -6.637   3.136 131.186  0.00  0.00    -0.274 NA
ATOM      8  C   LIG A   1      -5.447   2.430 130.783  0.00  0.00    +0.088 C 
ATOM      9  C   LIG A   1      -5.895   1.812 129.483  0.00  0.00    +0.033 C 
ATOM     10  O   LIG A   1      -8.644   3.422 130.035  0.00  0.00    -0.357 OA
ATOM     11  C   LIG A   1      -9.992   3.459 130.508  0.00  0.00    +0.163 C 
ATOM     12  C   LIG A   1     -10.192   2.239 131.370  0.00  0.00    +0.039 C 
ATOM     13  C   LIG A   1      -8.796   1.991 131.951  0.00  0.00    +0.017 C 
ATOM     14  C   LIG A   1      -8.649   2.858 133.236  0.00  0.00    +0.012 C 
ATOM     15  C   LIG A   1      -7.192   3.140 133.572  0.00  0.00    +0.016 C 
ATOM     16  C   LIG A   1      -6.564   3.885 132.413  0.00  0.00    +0.087 C 
ATOM     17  C   LIG A   1      -8.642   0.524 132.378  0.00  0.00    +0.013 C 
ATOM     18  C   LIG A   1      -8.558  -0.407 131.191  0.00  0.00    +0.025 C 
ATOM     19  C   LIG A   1      -7.941   0.948 128.442  0.00  0.00    -0.007 A 
ATOM     20  C   LIG A   1      -8.499   1.785 127.478  0.00  0.00    +0.056 A 
ATOM     21  C   LIG A   1      -8.789   1.278 126.202  0.00  0.00    +0.166 A 
ATOM     22  C   LIG A   1      -8.449  -0.055 125.879  0.00  0.00    +0.205 A 
ATOM     23  C   LIG A   1      -7.880  -0.899 126.860  0.00  0.00    +0.184 A 
ATOM     24  C   LIG A   1      -7.654  -0.414 128.149  0.00  0.00    +0.086 A 
ENDROOT
BRANCH  21  25
ATOM     25  O   LIG A   1      -9.332   2.205 125.339  0.00  0.00    -0.491 OA
ATOM     26  C   LIG A   1      -8.453   3.228 124.871  0.00  0.00    +0.277 C 
ENDBRANCH  21  25
BRANCH  22  27
ATOM     27  O   LIG A   1      -8.566  -0.410 124.557  0.00  0.00    -0.488 OA
ATOM     28  C   LIG A   1      -7.453  -0.181 123.706  0.00  0.00    +0.277 C 
ENDBRANCH  22  27
BRANCH  23  29
ATOM     29  O   LIG A   1      -7.521  -2.158 126.478  0.00  0.00    -0.502 OA
ATOM     30  H   LIG A   1      -6.712  -2.430 126.962  0.00  0.00    +0.292 HD
ENDBRANCH  23  29
BRANCH   2  31
ATOM     31  C   LIG A   1      -6.079  -2.733 130.820  0.00  0.00    +0.093 C 
ATOM     32  C   LIG A   1      -5.977  -4.237 131.030  0.00  0.00    +0.013 C 
ENDBRANCH   2  31
TORSDOF 4
ENDMDL
MODEL 9
REMARK VINA RESULT:      -7.0      3.234      6.195
REMARK  Name = NuBBE_1962
REMARK  7 active torsions:
REMARK  status: ('A' for Active; 'I' for Inactive)
REMARK    1  A    between atoms: C_2  and  C_31
REMARK    2  A    between atoms: C_22  and  O_23
REMARK    3  A    between atoms: O_23  and  C_24
REMARK    4  A    between atoms: C_25  and  O_26
REMARK    5  A    between atoms: O_26  and  C_27
REMARK    6  A    between atoms: C_28  and  O_29
REMARK    7  A    between atoms: C_31  and  C_32
REMARK                            x       y       z     vdW  Elec       q    Type
REMARK                         _______ _______ _______ _____ _____    ______ ____
ROOT
ATOM      1  O   LIG A   1      -9.014   2.245 128.806  0.00  0.00    -0.275 OA
ATOM      2  C   LIG A   1      -8.391   1.598 129.631  0.00  0.00    +0.220 C 
ATOM      3  N   LIG A   1      -7.639   0.458 129.318  0.00  0.00    -0.264 N 
ATOM      4  C   LIG A   1      -6.831  -0.314 130.282  0.00  0.00    +0.096 C 
ATOM      5  C   LIG A   1      -6.650  -1.732 129.670  0.00  0.00    +0.061 C 
ATOM      6  C   LIG A   1      -5.514  -2.594 130.370  0.00  0.00    +0.140 C 
ATOM      7  N   LIG A   1      -6.283  -3.498 131.234  0.00  0.00    -0.274 NA
ATOM      8  C   LIG A   1      -7.675  -3.137 131.329  0.00  0.00    +0.088 C 
ATOM      9  C   LIG A   1      -7.927  -2.566 129.957  0.00  0.00    +0.033 C 
ATOM     10  O   LIG A   1      -4.860  -3.418 129.388  0.00  0.00    -0.357 OA
ATOM     11  C   LIG A   1      -3.473  -3.088 129.296  0.00  0.00    +0.163 C 
ATOM     12  C   LIG A   1      -3.282  -1.774 130.010  0.00  0.00    +0.039 C 
ATOM     13  C   LIG A   1      -4.367  -1.804 131.091  0.00  0.00    +0.017 C 
ATOM     14  C   LIG A   1      -3.789  -2.546 132.332  0.00  0.00    +0.012 C 
ATOM     15  C   LIG A   1      -4.885  -3.128 133.212  0.00  0.00    +0.016 C 
ATOM     16  C   LIG A   1      -5.691  -4.114 132.393  0.00  0.00    +0.087 C 
ATOM     17  C   LIG A   1      -4.719  -0.379 131.542  0.00  0.00    +0.013 C 
ATOM     18  C   LIG A   1      -5.483   0.380 130.482  0.00  0.00    +0.025 C 
ATOM     19  C   LIG A   1      -6.723  -1.354 128.197  0.00  0.00    -0.007 A 
ATOM     20  C   LIG A   1      -6.378  -2.129 127.091  0.00  0.00    +0.056 A 
ATOM     21  C   LIG A   1      -6.733  -1.701 125.804  0.00  0.00    +0.166 A 
ATOM     22  C   LIG A   1      -7.500  -0.525 125.638  0.00  0.00    +0.205 A 
ATOM     23  C   LIG A   1      -7.851   0.256 126.762  0.00  0.00    +0.184 A 
ATOM     24  C   LIG A   1      -7.439  -0.135 128.038  0.00  0.00    +0.086 A 
ENDROOT
BRANCH  21  25
ATOM     25  O   LIG A   1      -6.339  -2.556 124.798  0.00  0.00    -0.491 OA
ATOM     26  C   LIG A   1      -7.260  -3.589 124.445  0.00  0.00    +0.277 C 
ENDBRANCH  21  25
BRANCH  22  27
ATOM     27  O   LIG A   1      -7.987  -0.289 124.376  0.00  0.00    -0.488 OA
ATOM     28  C   LIG A   1      -7.213   0.520 123.504  0.00  0.00    +0.277 C 
ENDBRANCH  22  27
BRANCH  23  29
ATOM     29  O   LIG A   1      -8.638   1.349 126.551  0.00  0.00    -0.502 OA
ATOM     30  H   LIG A   1      -8.682   1.886 127.370  0.00  0.00    +0.292 HD
ENDBRANCH  23  29
BRANCH   2  31
ATOM     31  C   LIG A   1      -8.424   2.006 131.110  0.00  0.00    +0.093 C 
ATOM     32  C   LIG A   1      -9.666   1.534 131.853  0.00  0.00    +0.013 C 
ENDBRANCH   2  31
TORSDOF 4
ENDMDL
