MODEL 1
REMARK VINA RESULT:      -7.5      0.000      0.000
REMARK  Name = NuBBE_201
REMARK  11 active torsions:
REMARK  status: ('A' for Active; 'I' for Inactive)
REMARK    1  A    between atoms: C_4  and  C_5
REMARK    2  A    between atoms: C_6  and  C_21
REMARK    3  A    between atoms: C_9  and  C_11
REMARK    4  A    between atoms: C_12  and  C_13
REMARK    5  A    between atoms: C_12  and  C_14
REMARK    6  A    between atoms: C_14  and  C_15
REMARK    7  A    between atoms: C_15  and  C_16
REMARK    8  A    between atoms: C_16  and  C_17
REMARK    9  A    between atoms: C_16  and  C_18
REMARK   10  A    between atoms: C_18  and  C_19
REMARK   11  A    between atoms: C_19  and  O_20
REMARK                            x       y       z     vdW  Elec       q    Type
REMARK                         _______ _______ _______ _____ _____    ______ ____
ROOT
ATOM      1  O   LIG A   1     -10.740   0.468 122.450  0.00  0.00    -0.293 OA
ATOM      2  C   LIG A   1      -9.715   0.322 123.122  0.00  0.00    +0.156 C 
ATOM      3  C   LIG A   1      -8.950  -0.942 123.007  0.00  0.00    +0.045 C 
ATOM      4  C   LIG A   1      -7.911  -1.219 123.818  0.00  0.00    -0.063 C 
ATOM      5  C   LIG A   1      -7.199  -2.540 123.679  0.00  0.00    +0.040 C 
ATOM      6  C   LIG A   1      -7.450  -0.230 124.916  0.00  0.00    -0.007 C 
ATOM      7  C   LIG A   1      -5.941  -0.359 125.210  0.00  0.00    +0.011 C 
ATOM      8  C   LIG A   1      -5.432   0.717 126.159  0.00  0.00    +0.004 C 
ATOM      9  C   LIG A   1      -5.590   2.113 125.548  0.00  0.00    -0.008 C 
ATOM     10  C   LIG A   1      -4.937   3.134 126.494  0.00  0.00    +0.008 C 
ATOM     11  C   LIG A   1      -7.069   2.450 125.134  0.00  0.00    -0.025 C 
ATOM     12  C   LIG A   1      -7.908   2.854 126.375  0.00  0.00    +0.012 C 
ATOM     13  C   LIG A   1      -8.243  -0.623 126.185  0.00  0.00    +0.016 C 
ATOM     14  C   LIG A   1      -7.730   1.221 124.376  0.00  0.00    +0.013 C 
ATOM     15  C   LIG A   1      -9.236   1.381 124.088  0.00  0.00    +0.084 C 
ENDROOT
BRANCH  11  16
ATOM     16  C   LIG A   1      -7.071   3.730 124.196  0.00  0.00    +0.007 C 
BRANCH  16  17
ATOM     17  C   LIG A   1      -5.868   3.910 123.240  0.00  0.00    +0.004 C 
BRANCH  17  18
ATOM     18  C   LIG A   1      -6.075   3.290 121.837  0.00  0.00    -0.012 C 
ATOM     19  C   LIG A   1      -7.509   3.553 121.352  0.00  0.00    +0.007 C 
BRANCH  18  20
ATOM     20  C   LIG A   1      -5.054   3.769 120.791  0.00  0.00    +0.031 C 
BRANCH  20  21
ATOM     21  C   LIG A   1      -5.485   5.001 120.001  0.00  0.00    +0.156 C 
BRANCH  21  22
ATOM     22  O   LIG A   1      -4.696   6.107 120.412  0.00  0.00    -0.395 OA
ATOM     23  H   LIG A   1      -3.765   5.835 120.327  0.00  0.00    +0.209 HD
ENDBRANCH  21  22
ENDBRANCH  20  21
ENDBRANCH  18  20
ENDBRANCH  17  18
ENDBRANCH  16  17
ENDBRANCH  11  16
TORSDOF 6
ENDMDL
MODEL 2
REMARK VINA RESULT:      -6.8      4.376      5.952
REMARK  Name = NuBBE_201
REMARK  11 active torsions:
REMARK  status: ('A' for Active; 'I' for Inactive)
REMARK    1  A    between atoms: C_4  and  C_5
REMARK    2  A    between atoms: C_6  and  C_21
REMARK    3  A    between atoms: C_9  and  C_11
REMARK    4  A    between atoms: C_12  and  C_13
REMARK    5  A    between atoms: C_12  and  C_14
REMARK    6  A    between atoms: C_14  and  C_15
REMARK    7  A    between atoms: C_15  and  C_16
REMARK    8  A    between atoms: C_16  and  C_17
REMARK    9  A    between atoms: C_16  and  C_18
REMARK   10  A    between atoms: C_18  and  C_19
REMARK   11  A    between atoms: C_19  and  O_20
REMARK                            x       y       z     vdW  Elec       q    Type
REMARK                         _______ _______ _______ _____ _____    ______ ____
ROOT
ATOM      1  O   LIG A   1      -9.139  -4.106 127.677  0.00  0.00    -0.293 OA
ATOM      2  C   LIG A   1      -8.350  -3.229 128.039  0.00  0.00    +0.156 C 
ATOM      3  C   LIG A   1      -7.498  -3.471 129.227  0.00  0.00    +0.045 C 
ATOM      4  C   LIG A   1      -6.727  -2.502 129.756  0.00  0.00    -0.063 C 
ATOM      5  C   LIG A   1      -5.913  -2.799 130.990  0.00  0.00    +0.040 C 
ATOM      6  C   LIG A   1      -6.681  -1.077 129.153  0.00  0.00    -0.007 C 
ATOM      7  C   LIG A   1      -5.321  -0.392 129.397  0.00  0.00    +0.011 C 
ATOM      8  C   LIG A   1      -5.193   0.938 128.665  0.00  0.00    +0.004 C 
ATOM      9  C   LIG A   1      -5.262   0.744 127.148  0.00  0.00    -0.008 C 
ATOM     10  C   LIG A   1      -4.992   2.097 126.472  0.00  0.00    +0.008 C 
ATOM     11  C   LIG A   1      -6.574   0.018 126.671  0.00  0.00    -0.025 C 
ATOM     12  C   LIG A   1      -7.768   1.008 126.639  0.00  0.00    +0.012 C 
ATOM     13  C   LIG A   1      -7.783  -0.281 129.891  0.00  0.00    +0.016 C 
ATOM     14  C   LIG A   1      -6.892  -1.228 127.600  0.00  0.00    +0.013 C 
ATOM     15  C   LIG A   1      -8.254  -1.898 127.329  0.00  0.00    +0.084 C 
ENDROOT
BRANCH  11  16
ATOM     16  C   LIG A   1      -6.390  -0.459 125.168  0.00  0.00    +0.007 C 
BRANCH  16  17
ATOM     17  C   LIG A   1      -5.419  -1.635 124.912  0.00  0.00    +0.004 C 
BRANCH  17  18
ATOM     18  C   LIG A   1      -5.822  -2.543 123.724  0.00  0.00    -0.012 C 
ATOM     19  C   LIG A   1      -6.448  -1.697 122.604  0.00  0.00    +0.007 C 
BRANCH  18  20
ATOM     20  C   LIG A   1      -4.666  -3.396 123.176  0.00  0.00    +0.031 C 
BRANCH  20  21
ATOM     21  C   LIG A   1      -4.488  -4.743 123.867  0.00  0.00    +0.156 C 
BRANCH  21  22
ATOM     22  O   LIG A   1      -4.113  -5.710 122.896  0.00  0.00    -0.395 OA
ATOM     23  H   LIG A   1      -3.505  -5.267 122.279  0.00  0.00    +0.209 HD
ENDBRANCH  21  22
ENDBRANCH  20  21
ENDBRANCH  18  20
ENDBRANCH  17  18
ENDBRANCH  16  17
ENDBRANCH  11  16
TORSDOF 6
ENDMDL
MODEL 3
REMARK VINA RESULT:      -6.7      4.117      7.161
REMARK  Name = NuBBE_201
REMARK  11 active torsions:
REMARK  status: ('A' for Active; 'I' for Inactive)
REMARK    1  A    between atoms: C_4  and  C_5
REMARK    2  A    between atoms: C_6  and  C_21
REMARK    3  A    between atoms: C_9  and  C_11
REMARK    4  A    between atoms: C_12  and  C_13
REMARK    5  A    between atoms: C_12  and  C_14
REMARK    6  A    between atoms: C_14  and  C_15
REMARK    7  A    between atoms: C_15  and  C_16
REMARK    8  A    between atoms: C_16  and  C_17
REMARK    9  A    between atoms: C_16  and  C_18
REMARK   10  A    between atoms: C_18  and  C_19
REMARK   11  A    between atoms: C_19  and  O_20
REMARK                            x       y       z     vdW  Elec       q    Type
REMARK                         _______ _______ _______ _____ _____    ______ ____
ROOT
ATOM      1  O   LIG A   1      -4.679  -4.026 124.030  0.00  0.00    -0.293 OA
ATOM      2  C   LIG A   1      -5.606  -3.273 124.343  0.00  0.00    +0.156 C 
ATOM      3  C   LIG A   1      -6.982  -3.602 123.905  0.00  0.00    +0.045 C 
ATOM      4  C   LIG A   1      -8.009  -2.749 124.089  0.00  0.00    -0.063 C 
ATOM      5  C   LIG A   1      -9.378  -3.124 123.584  0.00  0.00    +0.040 C 
ATOM      6  C   LIG A   1      -7.811  -1.374 124.773  0.00  0.00    -0.007 C 
ATOM      7  C   LIG A   1      -9.087  -0.906 125.502  0.00  0.00    +0.011 C 
ATOM      8  C   LIG A   1      -8.865   0.356 126.324  0.00  0.00    +0.004 C 
ATOM      9  C   LIG A   1      -7.845   0.117 127.441  0.00  0.00    -0.008 C 
ATOM     10  C   LIG A   1      -7.771   1.383 128.310  0.00  0.00    +0.008 C 
ATOM     11  C   LIG A   1      -6.458  -0.407 126.918  0.00  0.00    -0.025 C 
ATOM     12  C   LIG A   1      -5.613   0.759 126.342  0.00  0.00    +0.012 C 
ATOM     13  C   LIG A   1      -7.498  -0.384 123.626  0.00  0.00    +0.016 C 
ATOM     14  C   LIG A   1      -6.665  -1.549 125.836  0.00  0.00    +0.013 C 
ATOM     15  C   LIG A   1      -5.372  -2.003 125.128  0.00  0.00    +0.084 C 
ENDROOT
BRANCH  11  16
ATOM     16  C   LIG A   1      -5.615  -0.965 128.142  0.00  0.00    +0.007 C 
BRANCH  16  17
ATOM     17  C   LIG A   1      -5.830  -2.446 128.534  0.00  0.00    +0.004 C 
BRANCH  17  18
ATOM     18  C   LIG A   1      -7.080  -2.695 129.412  0.00  0.00    -0.012 C 
ATOM     19  C   LIG A   1      -8.137  -3.474 128.614  0.00  0.00    +0.007 C 
BRANCH  18  20
ATOM     20  C   LIG A   1      -6.772  -3.405 130.741  0.00  0.00    +0.031 C 
BRANCH  20  21
ATOM     21  C   LIG A   1      -5.429  -4.127 130.779  0.00  0.00    +0.156 C 
BRANCH  21  22
ATOM     22  O   LIG A   1      -5.661  -5.528 130.735  0.00  0.00    -0.395 OA
ATOM     23  H   LIG A   1      -6.038  -5.722 129.859  0.00  0.00    +0.209 HD
ENDBRANCH  21  22
ENDBRANCH  20  21
ENDBRANCH  18  20
ENDBRANCH  17  18
ENDBRANCH  16  17
ENDBRANCH  11  16
TORSDOF 6
ENDMDL
MODEL 4
REMARK VINA RESULT:      -6.7      4.824      7.297
REMARK  Name = NuBBE_201
REMARK  11 active torsions:
REMARK  status: ('A' for Active; 'I' for Inactive)
REMARK    1  A    between atoms: C_4  and  C_5
REMARK    2  A    between atoms: C_6  and  C_21
REMARK    3  A    between atoms: C_9  and  C_11
REMARK    4  A    between atoms: C_12  and  C_13
REMARK    5  A    between atoms: C_12  and  C_14
REMARK    6  A    between atoms: C_14  and  C_15
REMARK    7  A    between atoms: C_15  and  C_16
REMARK    8  A    between atoms: C_16  and  C_17
REMARK    9  A    between atoms: C_16  and  C_18
REMARK   10  A    between atoms: C_18  and  C_19
REMARK   11  A    between atoms: C_19  and  O_20
REMARK                            x       y       z     vdW  Elec       q    Type
REMARK                         _______ _______ _______ _____ _____    ______ ____
ROOT
ATOM      1  O   LIG A   1      -2.654  -3.672 129.510  0.00  0.00    -0.293 OA
ATOM      2  C   LIG A   1      -3.533  -2.806 129.526  0.00  0.00    +0.156 C 
ATOM      3  C   LIG A   1      -3.392  -1.652 130.444  0.00  0.00    +0.045 C 
ATOM      4  C   LIG A   1      -4.383  -0.754 130.612  0.00  0.00    -0.063 C 
ATOM      5  C   LIG A   1      -4.194   0.376 131.591  0.00  0.00    +0.040 C 
ATOM      6  C   LIG A   1      -5.726  -0.873 129.853  0.00  0.00    -0.007 C 
ATOM      7  C   LIG A   1      -6.378   0.505 129.617  0.00  0.00    +0.011 C 
ATOM      8  C   LIG A   1      -7.610   0.428 128.725  0.00  0.00    +0.004 C 
ATOM      9  C   LIG A   1      -7.248  -0.075 127.324  0.00  0.00    -0.008 C 
ATOM     10  C   LIG A   1      -8.504   0.001 126.441  0.00  0.00    +0.008 C 
ATOM     11  C   LIG A   1      -6.528  -1.473 127.329  0.00  0.00    -0.025 C 
ATOM     12  C   LIG A   1      -7.557  -2.619 127.518  0.00  0.00    +0.012 C 
ATOM     13  C   LIG A   1      -6.647  -1.712 130.772  0.00  0.00    +0.016 C 
ATOM     14  C   LIG A   1      -5.409  -1.521 128.454  0.00  0.00    +0.013 C 
ATOM     15  C   LIG A   1      -4.770  -2.908 128.663  0.00  0.00    +0.084 C 
ENDROOT
BRANCH  11  16
ATOM     16  C   LIG A   1      -5.877  -1.730 125.905  0.00  0.00    +0.007 C 
BRANCH  16  17
ATOM     17  C   LIG A   1      -6.370  -2.963 125.111  0.00  0.00    +0.004 C 
BRANCH  17  18
ATOM     18  C   LIG A   1      -6.073  -2.900 123.593  0.00  0.00    -0.012 C 
ATOM     19  C   LIG A   1      -6.381  -1.494 123.055  0.00  0.00    +0.007 C 
BRANCH  18  20
ATOM     20  C   LIG A   1      -4.640  -3.319 123.224  0.00  0.00    +0.031 C 
BRANCH  20  21
ATOM     21  C   LIG A   1      -4.172  -4.619 123.869  0.00  0.00    +0.156 C 
BRANCH  21  22
ATOM     22  O   LIG A   1      -4.151  -5.639 122.880  0.00  0.00    -0.395 OA
ATOM     23  H   LIG A   1      -3.249  -5.657 122.516  0.00  0.00    +0.209 HD
ENDBRANCH  21  22
ENDBRANCH  20  21
ENDBRANCH  18  20
ENDBRANCH  17  18
ENDBRANCH  16  17
ENDBRANCH  11  16
TORSDOF 6
ENDMDL
MODEL 5
REMARK VINA RESULT:      -6.6      2.952      6.205
REMARK  Name = NuBBE_201
REMARK  11 active torsions:
REMARK  status: ('A' for Active; 'I' for Inactive)
REMARK    1  A    between atoms: C_4  and  C_5
REMARK    2  A    between atoms: C_6  and  C_21
REMARK    3  A    between atoms: C_9  and  C_11
REMARK    4  A    between atoms: C_12  and  C_13
REMARK    5  A    between atoms: C_12  and  C_14
REMARK    6  A    between atoms: C_14  and  C_15
REMARK    7  A    between atoms: C_15  and  C_16
REMARK    8  A    between atoms: C_16  and  C_17
REMARK    9  A    between atoms: C_16  and  C_18
REMARK   10  A    between atoms: C_18  and  C_19
REMARK   11  A    between atoms: C_19  and  O_20
REMARK                            x       y       z     vdW  Elec       q    Type
REMARK                         _______ _______ _______ _____ _____    ______ ____
ROOT
ATOM      1  O   LIG A   1      -4.292   2.655 127.654  0.00  0.00    -0.293 OA
ATOM      2  C   LIG A   1      -5.044   2.602 126.678  0.00  0.00    +0.156 C 
ATOM      3  C   LIG A   1      -4.758   3.454 125.499  0.00  0.00    +0.045 C 
ATOM      4  C   LIG A   1      -5.619   3.550 124.468  0.00  0.00    -0.063 C 
ATOM      5  C   LIG A   1      -5.290   4.464 123.316  0.00  0.00    +0.040 C 
ATOM      6  C   LIG A   1      -6.958   2.772 124.449  0.00  0.00    -0.007 C 
ATOM      7  C   LIG A   1      -7.413   2.443 123.013  0.00  0.00    +0.011 C 
ATOM      8  C   LIG A   1      -8.632   1.532 122.976  0.00  0.00    +0.004 C 
ATOM      9  C   LIG A   1      -8.326   0.171 123.607  0.00  0.00    -0.008 C 
ATOM     10  C   LIG A   1      -9.549  -0.740 123.416  0.00  0.00    +0.008 C 
ATOM     11  C   LIG A   1      -7.803   0.272 125.087  0.00  0.00    -0.025 C 
ATOM     12  C   LIG A   1      -8.981   0.507 126.069  0.00  0.00    +0.012 C 
ATOM     13  C   LIG A   1      -7.994   3.720 125.098  0.00  0.00    +0.016 C 
ATOM     14  C   LIG A   1      -6.715   1.420 125.218  0.00  0.00    +0.013 C 
ATOM     15  C   LIG A   1      -6.273   1.722 126.664  0.00  0.00    +0.084 C 
ENDROOT
BRANCH  11  16
ATOM     16  C   LIG A   1      -7.176  -1.122 125.516  0.00  0.00    +0.007 C 
BRANCH  16  17
ATOM     17  C   LIG A   1      -5.910  -1.592 124.761  0.00  0.00    +0.004 C 
BRANCH  17  18
ATOM     18  C   LIG A   1      -6.159  -2.754 123.769  0.00  0.00    -0.012 C 
ATOM     19  C   LIG A   1      -5.770  -2.324 122.347  0.00  0.00    +0.007 C 
BRANCH  18  20
ATOM     20  C   LIG A   1      -5.445  -4.061 124.155  0.00  0.00    +0.031 C 
BRANCH  20  21
ATOM     21  C   LIG A   1      -4.102  -4.277 123.465  0.00  0.00    +0.156 C 
BRANCH  21  22
ATOM     22  O   LIG A   1      -4.037  -5.618 123.001  0.00  0.00    -0.395 OA
ATOM     23  H   LIG A   1      -3.334  -6.057 123.512  0.00  0.00    +0.209 HD
ENDBRANCH  21  22
ENDBRANCH  20  21
ENDBRANCH  18  20
ENDBRANCH  17  18
ENDBRANCH  16  17
ENDBRANCH  11  16
TORSDOF 6
ENDMDL
MODEL 6
REMARK VINA RESULT:      -6.5      2.465      4.956
REMARK  Name = NuBBE_201
REMARK  11 active torsions:
REMARK  status: ('A' for Active; 'I' for Inactive)
REMARK    1  A    between atoms: C_4  and  C_5
REMARK    2  A    between atoms: C_6  and  C_21
REMARK    3  A    between atoms: C_9  and  C_11
REMARK    4  A    between atoms: C_12  and  C_13
REMARK    5  A    between atoms: C_12  and  C_14
REMARK    6  A    between atoms: C_14  and  C_15
REMARK    7  A    between atoms: C_15  and  C_16
REMARK    8  A    between atoms: C_16  and  C_17
REMARK    9  A    between atoms: C_16  and  C_18
REMARK   10  A    between atoms: C_18  and  C_19
REMARK   11  A    between atoms: C_19  and  O_20
REMARK                            x       y       z     vdW  Elec       q    Type
REMARK                         _______ _______ _______ _____ _____    ______ ____
ROOT
ATOM      1  O   LIG A   1      -4.447   1.775 126.319  0.00  0.00    -0.293 OA
ATOM      2  C   LIG A   1      -5.246   0.853 126.504  0.00  0.00    +0.156 C 
ATOM      3  C   LIG A   1      -5.875   0.700 127.837  0.00  0.00    +0.045 C 
ATOM      4  C   LIG A   1      -6.639  -0.367 128.143  0.00  0.00    -0.063 C 
ATOM      5  C   LIG A   1      -7.219  -0.485 129.529  0.00  0.00    +0.040 C 
ATOM      6  C   LIG A   1      -6.909  -1.495 127.118  0.00  0.00    -0.007 C 
ATOM      7  C   LIG A   1      -8.271  -2.178 127.359  0.00  0.00    +0.011 C 
ATOM      8  C   LIG A   1      -8.633  -3.170 126.262  0.00  0.00    +0.004 C 
ATOM      9  C   LIG A   1      -8.786  -2.469 124.909  0.00  0.00    -0.008 C 
ATOM     10  C   LIG A   1      -9.282  -3.499 123.882  0.00  0.00    +0.008 C 
ATOM     11  C   LIG A   1      -7.504  -1.667 124.474  0.00  0.00    -0.025 C 
ATOM     12  C   LIG A   1      -6.426  -2.625 123.902  0.00  0.00    +0.012 C 
ATOM     13  C   LIG A   1      -5.782  -2.532 127.340  0.00  0.00    +0.016 C 
ATOM     14  C   LIG A   1      -6.932  -0.827 125.693  0.00  0.00    +0.013 C 
ATOM     15  C   LIG A   1      -5.573  -0.149 125.421  0.00  0.00    +0.084 C 
ENDROOT
BRANCH  11  16
ATOM     16  C   LIG A   1      -7.878  -0.697 123.274  0.00  0.00    +0.007 C 
BRANCH  16  17
ATOM     17  C   LIG A   1      -9.074   0.260 123.483  0.00  0.00    +0.004 C 
BRANCH  17  18
ATOM     18  C   LIG A   1      -8.680   1.754 123.586  0.00  0.00    -0.012 C 
ATOM     19  C   LIG A   1      -8.765   2.221 125.047  0.00  0.00    +0.007 C 
BRANCH  18  20
ATOM     20  C   LIG A   1      -7.295   2.071 122.997  0.00  0.00    +0.031 C 
BRANCH  20  21
ATOM     21  C   LIG A   1      -7.230   3.363 122.189  0.00  0.00    +0.156 C 
BRANCH  21  22
ATOM     22  O   LIG A   1      -8.548   3.736 121.814  0.00  0.00    -0.395 OA
ATOM     23  H   LIG A   1      -9.086   3.717 122.625  0.00  0.00    +0.209 HD
ENDBRANCH  21  22
ENDBRANCH  20  21
ENDBRANCH  18  20
ENDBRANCH  17  18
ENDBRANCH  16  17
ENDBRANCH  11  16
TORSDOF 6
ENDMDL
MODEL 7
REMARK VINA RESULT:      -6.4      3.162      6.923
REMARK  Name = NuBBE_201
REMARK  11 active torsions:
REMARK  status: ('A' for Active; 'I' for Inactive)
REMARK    1  A    between atoms: C_4  and  C_5
REMARK    2  A    between atoms: C_6  and  C_21
REMARK    3  A    between atoms: C_9  and  C_11
REMARK    4  A    between atoms: C_12  and  C_13
REMARK    5  A    between atoms: C_12  and  C_14
REMARK    6  A    between atoms: C_14  and  C_15
REMARK    7  A    between atoms: C_15  and  C_16
REMARK    8  A    between atoms: C_16  and  C_17
REMARK    9  A    between atoms: C_16  and  C_18
REMARK   10  A    between atoms: C_18  and  C_19
REMARK   11  A    between atoms: C_19  and  O_20
REMARK                            x       y       z     vdW  Elec       q    Type
REMARK                         _______ _______ _______ _____ _____    ______ ____
ROOT
ATOM      1  O   LIG A   1      -8.566   2.608 127.826  0.00  0.00    -0.293 OA
ATOM      2  C   LIG A   1      -8.282   1.927 126.837  0.00  0.00    +0.156 C 
ATOM      3  C   LIG A   1      -7.608   2.572 125.686  0.00  0.00    +0.045 C 
ATOM      4  C   LIG A   1      -7.405   1.918 124.525  0.00  0.00    -0.063 C 
ATOM      5  C   LIG A   1      -6.749   2.641 123.377  0.00  0.00    +0.040 C 
ATOM      6  C   LIG A   1      -7.861   0.452 124.326  0.00  0.00    -0.007 C 
ATOM      7  C   LIG A   1      -6.967  -0.297 123.316  0.00  0.00    +0.011 C 
ATOM      8  C   LIG A   1      -7.288  -1.783 123.235  0.00  0.00    +0.004 C 
ATOM      9  C   LIG A   1      -7.028  -2.479 124.574  0.00  0.00    -0.008 C 
ATOM     10  C   LIG A   1      -7.241  -3.990 124.385  0.00  0.00    +0.008 C 
ATOM     11  C   LIG A   1      -7.825  -1.846 125.773  0.00  0.00    -0.025 C 
ATOM     12  C   LIG A   1      -9.300  -2.324 125.765  0.00  0.00    +0.012 C 
ATOM     13  C   LIG A   1      -9.296   0.540 123.756  0.00  0.00    +0.016 C 
ATOM     14  C   LIG A   1      -7.739  -0.261 125.724  0.00  0.00    +0.013 C 
ATOM     15  C   LIG A   1      -8.637   0.460 126.749  0.00  0.00    +0.084 C 
ENDROOT
BRANCH  11  16
ATOM     16  C   LIG A   1      -7.222  -2.379 127.141  0.00  0.00    +0.007 C 
BRANCH  16  17
ATOM     17  C   LIG A   1      -8.209  -2.998 128.157  0.00  0.00    +0.004 C 
BRANCH  17  18
ATOM     18  C   LIG A   1      -7.860  -2.708 129.637  0.00  0.00    -0.012 C 
ATOM     19  C   LIG A   1      -6.783  -3.689 130.126  0.00  0.00    +0.007 C 
BRANCH  18  20
ATOM     20  C   LIG A   1      -7.428  -1.256 129.899  0.00  0.00    +0.031 C 
BRANCH  20  21
ATOM     21  C   LIG A   1      -8.382  -0.458 130.782  0.00  0.00    +0.156 C 
BRANCH  21  22
ATOM     22  O   LIG A   1      -8.417   0.885 130.322  0.00  0.00    -0.395 OA
ATOM     23  H   LIG A   1      -8.031   1.433 131.028  0.00  0.00    +0.209 HD
ENDBRANCH  21  22
ENDBRANCH  20  21
ENDBRANCH  18  20
ENDBRANCH  17  18
ENDBRANCH  16  17
ENDBRANCH  11  16
TORSDOF 6
ENDMDL
MODEL 8
REMARK VINA RESULT:      -6.3      3.825      6.376
REMARK  Name = NuBBE_201
REMARK  11 active torsions:
REMARK  status: ('A' for Active; 'I' for Inactive)
REMARK    1  A    between atoms: C_4  and  C_5
REMARK    2  A    between atoms: C_6  and  C_21
REMARK    3  A    between atoms: C_9  and  C_11
REMARK    4  A    between atoms: C_12  and  C_13
REMARK    5  A    between atoms: C_12  and  C_14
REMARK    6  A    between atoms: C_14  and  C_15
REMARK    7  A    between atoms: C_15  and  C_16
REMARK    8  A    between atoms: C_16  and  C_17
REMARK    9  A    between atoms: C_16  and  C_18
REMARK   10  A    between atoms: C_18  and  C_19
REMARK   11  A    between atoms: C_19  and  O_20
REMARK                            x       y       z     vdW  Elec       q    Type
REMARK                         _______ _______ _______ _____ _____    ______ ____
ROOT
ATOM      1  O   LIG A   1      -4.938   1.196 130.299  0.00  0.00    -0.293 OA
ATOM      2  C   LIG A   1      -5.623   0.199 130.054  0.00  0.00    +0.156 C 
ATOM      3  C   LIG A   1      -6.311  -0.497 131.167  0.00  0.00    +0.045 C 
ATOM      4  C   LIG A   1      -6.950  -1.669 130.984  0.00  0.00    -0.063 C 
ATOM      5  C   LIG A   1      -7.595  -2.348 132.165  0.00  0.00    +0.040 C 
ATOM      6  C   LIG A   1      -7.007  -2.357 129.599  0.00  0.00    -0.007 C 
ATOM      7  C   LIG A   1      -8.283  -3.208 129.432  0.00  0.00    +0.011 C 
ATOM      8  C   LIG A   1      -8.445  -3.753 128.019  0.00  0.00    +0.004 C 
ATOM      9  C   LIG A   1      -8.599  -2.619 127.002  0.00  0.00    -0.008 C 
ATOM     10  C   LIG A   1      -8.893  -3.237 125.626  0.00  0.00    +0.008 C 
ATOM     11  C   LIG A   1      -7.407  -1.594 127.024  0.00  0.00    -0.025 C 
ATOM     12  C   LIG A   1      -6.181  -2.163 126.263  0.00  0.00    +0.012 C 
ATOM     13  C   LIG A   1      -5.773  -3.290 129.550  0.00  0.00    +0.016 C 
ATOM     14  C   LIG A   1      -7.024  -1.214 128.517  0.00  0.00    +0.013 C 
ATOM     15  C   LIG A   1      -5.750  -0.357 128.654  0.00  0.00    +0.084 C 
ENDROOT
BRANCH  11  16
ATOM     16  C   LIG A   1      -7.824  -0.289 126.223  0.00  0.00    +0.007 C 
BRANCH  16  17
ATOM     17  C   LIG A   1      -6.937   0.122 125.024  0.00  0.00    +0.004 C 
BRANCH  17  18
ATOM     18  C   LIG A   1      -7.648   0.038 123.651  0.00  0.00    -0.012 C 
ATOM     19  C   LIG A   1      -7.206  -1.232 122.908  0.00  0.00    +0.007 C 
BRANCH  18  20
ATOM     20  C   LIG A   1      -9.181   0.106 123.742  0.00  0.00    +0.031 C 
BRANCH  20  21
ATOM     21  C   LIG A   1      -9.777   1.472 123.414  0.00  0.00    +0.156 C 
BRANCH  21  22
ATOM     22  O   LIG A   1      -9.832   2.245 124.604  0.00  0.00    -0.395 OA
ATOM     23  H   LIG A   1      -9.046   2.010 125.128  0.00  0.00    +0.209 HD
ENDBRANCH  21  22
ENDBRANCH  20  21
ENDBRANCH  18  20
ENDBRANCH  17  18
ENDBRANCH  16  17
ENDBRANCH  11  16
TORSDOF 6
ENDMDL
MODEL 9
REMARK VINA RESULT:      -6.3      3.001      6.085
REMARK  Name = NuBBE_201
REMARK  11 active torsions:
REMARK  status: ('A' for Active; 'I' for Inactive)
REMARK    1  A    between atoms: C_4  and  C_5
REMARK    2  A    between atoms: C_6  and  C_21
REMARK    3  A    between atoms: C_9  and  C_11
REMARK    4  A    between atoms: C_12  and  C_13
REMARK    5  A    between atoms: C_12  and  C_14
REMARK    6  A    between atoms: C_14  and  C_15
REMARK    7  A    between atoms: C_15  and  C_16
REMARK    8  A    between atoms: C_16  and  C_17
REMARK    9  A    between atoms: C_16  and  C_18
REMARK   10  A    between atoms: C_18  and  C_19
REMARK   11  A    between atoms: C_19  and  O_20
REMARK                            x       y       z     vdW  Elec       q    Type
REMARK                         _______ _______ _______ _____ _____    ______ ____
ROOT
ATOM      1  O   LIG A   1      -6.001  -2.112 122.729  0.00  0.00    -0.293 OA
ATOM      2  C   LIG A   1      -6.542  -1.273 123.455  0.00  0.00    +0.156 C 
ATOM      3  C   LIG A   1      -7.724  -0.536 122.949  0.00  0.00    +0.045 C 
ATOM      4  C   LIG A   1      -8.266   0.490 123.633  0.00  0.00    -0.063 C 
ATOM      5  C   LIG A   1      -9.443   1.226 123.047  0.00  0.00    +0.040 C 
ATOM      6  C   LIG A   1      -7.690   0.958 124.992  0.00  0.00    -0.007 C 
ATOM      7  C   LIG A   1      -8.776   1.577 125.896  0.00  0.00    +0.011 C 
ATOM      8  C   LIG A   1      -8.268   1.885 127.297  0.00  0.00    +0.004 C 
ATOM      9  C   LIG A   1      -7.841   0.608 128.025  0.00  0.00    -0.008 C 
ATOM     10  C   LIG A   1      -7.470   0.973 129.471  0.00  0.00    +0.008 C 
ATOM     11  C   LIG A   1      -6.746  -0.215 127.251  0.00  0.00    -0.025 C 
ATOM     12  C   LIG A   1      -5.343   0.415 127.451  0.00  0.00    +0.012 C 
ATOM     13  C   LIG A   1      -6.646   2.047 124.644  0.00  0.00    +0.016 C 
ATOM     14  C   LIG A   1      -7.111  -0.317 125.710  0.00  0.00    +0.013 C 
ATOM     15  C   LIG A   1      -6.011  -0.947 124.832  0.00  0.00    +0.084 C 
ENDROOT
BRANCH  11  16
ATOM     16  C   LIG A   1      -6.642  -1.668 127.882  0.00  0.00    +0.007 C 
BRANCH  16  17
ATOM     17  C   LIG A   1      -7.958  -2.336 128.345  0.00  0.00    +0.004 C 
BRANCH  17  18
ATOM     18  C   LIG A   1      -8.496  -3.417 127.377  0.00  0.00    -0.012 C 
ATOM     19  C   LIG A   1      -9.388  -4.409 128.139  0.00  0.00    +0.007 C 
BRANCH  18  20
ATOM     20  C   LIG A   1      -9.241  -2.844 126.160  0.00  0.00    +0.031 C 
BRANCH  20  21
ATOM     21  C   LIG A   1      -8.930  -3.540 124.839  0.00  0.00    +0.156 C 
BRANCH  21  22
ATOM     22  O   LIG A   1      -9.953  -3.228 123.905  0.00  0.00    -0.395 OA
ATOM     23  H   LIG A   1     -10.475  -4.040 123.780  0.00  0.00    +0.209 HD
ENDBRANCH  21  22
ENDBRANCH  20  21
ENDBRANCH  18  20
ENDBRANCH  17  18
ENDBRANCH  16  17
ENDBRANCH  11  16
TORSDOF 6
ENDMDL
