MODEL 1
REMARK VINA RESULT:      -7.1      0.000      0.000
REMARK  Name = NuBBE_1848
REMARK  9 active torsions:
REMARK  status: ('A' for Active; 'I' for Inactive)
REMARK    1  A    between atoms: O_1  and  C_2
REMARK    2  A    between atoms: C_3  and  C_4
REMARK    3  A    between atoms: C_4  and  C_5
REMARK    4  A    between atoms: C_5  and  C_6
REMARK    5  A    between atoms: C_6  and  C_7
REMARK    6  A    between atoms: C_9  and  O_10
REMARK    7  A    between atoms: O_10  and  C_11
REMARK    8  A    between atoms: C_12  and  O_13
REMARK    9  A    between atoms: C_19  and  O_20
REMARK                            x       y       z     vdW  Elec       q    Type
REMARK                         _______ _______ _______ _____ _____    ______ ____
ROOT
ATOM      1  C   LIG A   1      -9.120  -0.245 123.490  0.00  0.00    +0.167 C 
ATOM      2  O   LIG A   1     -10.083  -0.395 122.740  0.00  0.00    -0.292 OA
ENDROOT
BRANCH   1   4
ATOM      3  C   LIG A   1      -8.493  -2.629 124.112  0.00  0.00    +0.131 A 
ATOM      4  C   LIG A   1      -8.146  -1.361 123.635  0.00  0.00    +0.059 A 
ATOM      5  C   LIG A   1      -6.806  -1.091 123.311  0.00  0.00    +0.018 A 
ATOM      6  C   LIG A   1      -5.831  -2.084 123.437  0.00  0.00    +0.046 A 
ATOM      7  C   LIG A   1      -6.201  -3.344 123.896  0.00  0.00    +0.120 A 
ATOM      8  C   LIG A   1      -7.520  -3.624 124.240  0.00  0.00    +0.091 A 
BRANCH   3   9
ATOM      9  O   LIG A   1      -9.777  -2.902 124.495  0.00  0.00    -0.506 OA
ATOM     10  H   LIG A   1      -9.765  -3.606 125.167  0.00  0.00    +0.292 HD
ENDBRANCH   3   9
BRANCH   7  11
ATOM     11  O   LIG A   1      -5.287  -4.347 124.033  0.00  0.00    -0.507 OA
ATOM     12  H   LIG A   1      -4.877  -4.283 124.912  0.00  0.00    +0.292 HD
ENDBRANCH   7  11
ENDBRANCH   1   4
BRANCH   1  13
ATOM     13  C   LIG A   1      -8.892   1.042 124.271  0.00  0.00    +0.084 C 
BRANCH  13  14
ATOM     14  C   LIG A   1      -9.350   2.300 123.532  0.00  0.00    +0.043 C 
BRANCH  14  15
ATOM     15  C   LIG A   1      -8.312   2.889 122.605  0.00  0.00    -0.043 A 
ATOM     16  C   LIG A   1      -8.700   3.356 121.337  0.00  0.00    +0.053 A 
ATOM     17  C   LIG A   1      -7.767   3.896 120.454  0.00  0.00    +0.162 A 
ATOM     18  C   LIG A   1      -6.428   3.958 120.852  0.00  0.00    +0.159 A 
ATOM     19  C   LIG A   1      -6.020   3.504 122.100  0.00  0.00    +0.049 A 
ATOM     20  C   LIG A   1      -6.964   2.972 122.981  0.00  0.00    +0.007 A 
BRANCH  17  21
ATOM     21  O   LIG A   1      -8.034   4.383 119.199  0.00  0.00    -0.491 OA
ATOM     22  C   LIG A   1      -9.407   4.414 118.820  0.00  0.00    +0.277 C 
ENDBRANCH  17  21
BRANCH  18  23
ATOM     23  O   LIG A   1      -5.483   4.469 120.004  0.00  0.00    -0.503 OA
ATOM     24  H   LIG A   1      -4.633   4.324 120.464  0.00  0.00    +0.292 HD
ENDBRANCH  18  23
ENDBRANCH  14  15
ENDBRANCH  13  14
ENDBRANCH   1  13
TORSDOF 8
ENDMDL
MODEL 2
REMARK VINA RESULT:      -6.9      1.003      2.042
REMARK  Name = NuBBE_1848
REMARK  9 active torsions:
REMARK  status: ('A' for Active; 'I' for Inactive)
REMARK    1  A    between atoms: O_1  and  C_2
REMARK    2  A    between atoms: C_3  and  C_4
REMARK    3  A    between atoms: C_4  and  C_5
REMARK    4  A    between atoms: C_5  and  C_6
REMARK    5  A    between atoms: C_6  and  C_7
REMARK    6  A    between atoms: C_9  and  O_10
REMARK    7  A    between atoms: O_10  and  C_11
REMARK    8  A    between atoms: C_12  and  O_13
REMARK    9  A    between atoms: C_19  and  O_20
REMARK                            x       y       z     vdW  Elec       q    Type
REMARK                         _______ _______ _______ _____ _____    ______ ____
ROOT
ATOM      1  C   LIG A   1      -9.252  -0.094 124.210  0.00  0.00    +0.167 C 
ATOM      2  O   LIG A   1      -9.890   0.070 125.248  0.00  0.00    -0.292 OA
ENDROOT
BRANCH   1   4
ATOM      3  C   LIG A   1      -8.622  -2.548 124.426  0.00  0.00    +0.131 A 
ATOM      4  C   LIG A   1      -8.283  -1.222 124.138  0.00  0.00    +0.059 A 
ATOM      5  C   LIG A   1      -6.955  -0.909 123.803  0.00  0.00    +0.018 A 
ATOM      6  C   LIG A   1      -5.985  -1.912 123.731  0.00  0.00    +0.046 A 
ATOM      7  C   LIG A   1      -6.348  -3.227 124.004  0.00  0.00    +0.120 A 
ATOM      8  C   LIG A   1      -7.653  -3.553 124.357  0.00  0.00    +0.091 A 
BRANCH   3   9
ATOM      9  O   LIG A   1      -9.891  -2.874 124.817  0.00  0.00    -0.506 OA
ATOM     10  H   LIG A   1     -10.387  -3.201 124.047  0.00  0.00    +0.292 HD
ENDBRANCH   3   9
BRANCH   7  11
ATOM     11  O   LIG A   1      -5.438  -4.241 123.944  0.00  0.00    -0.507 OA
ATOM     12  H   LIG A   1      -5.112  -4.427 124.840  0.00  0.00    +0.292 HD
ENDBRANCH   7  11
ENDBRANCH   1   4
BRANCH   1  13
ATOM     13  C   LIG A   1      -9.422   0.813 122.999  0.00  0.00    +0.084 C 
BRANCH  13  14
ATOM     14  C   LIG A   1      -9.036   2.270 123.262  0.00  0.00    +0.043 C 
BRANCH  14  15
ATOM     15  C   LIG A   1      -8.327   2.943 122.110  0.00  0.00    -0.043 A 
ATOM     16  C   LIG A   1      -6.927   3.070 122.137  0.00  0.00    +0.053 A 
ATOM     17  C   LIG A   1      -6.243   3.693 121.095  0.00  0.00    +0.162 A 
ATOM     18  C   LIG A   1      -6.979   4.199 120.020  0.00  0.00    +0.159 A 
ATOM     19  C   LIG A   1      -8.363   4.085 119.970  0.00  0.00    +0.049 A 
ATOM     20  C   LIG A   1      -9.039   3.451 121.015  0.00  0.00    +0.007 A 
BRANCH  17  21
ATOM     21  O   LIG A   1      -4.884   3.869 121.016  0.00  0.00    -0.491 OA
ATOM     22  C   LIG A   1      -4.335   4.880 121.857  0.00  0.00    +0.277 C 
ENDBRANCH  17  21
BRANCH  18  23
ATOM     23  O   LIG A   1      -6.340   4.830 118.987  0.00  0.00    -0.503 OA
ATOM     24  H   LIG A   1      -5.767   5.494 119.419  0.00  0.00    +0.292 HD
ENDBRANCH  18  23
ENDBRANCH  14  15
ENDBRANCH  13  14
ENDBRANCH   1  13
TORSDOF 8
ENDMDL
MODEL 3
REMARK VINA RESULT:      -6.7      3.121      7.256
REMARK  Name = NuBBE_1848
REMARK  9 active torsions:
REMARK  status: ('A' for Active; 'I' for Inactive)
REMARK    1  A    between atoms: O_1  and  C_2
REMARK    2  A    between atoms: C_3  and  C_4
REMARK    3  A    between atoms: C_4  and  C_5
REMARK    4  A    between atoms: C_5  and  C_6
REMARK    5  A    between atoms: C_6  and  C_7
REMARK    6  A    between atoms: C_9  and  O_10
REMARK    7  A    between atoms: O_10  and  C_11
REMARK    8  A    between atoms: C_12  and  O_13
REMARK    9  A    between atoms: C_19  and  O_20
REMARK                            x       y       z     vdW  Elec       q    Type
REMARK                         _______ _______ _______ _____ _____    ______ ____
ROOT
ATOM      1  C   LIG A   1      -8.976  -1.726 123.353  0.00  0.00    +0.167 C 
ATOM      2  O   LIG A   1     -10.065  -2.148 122.966  0.00  0.00    -0.292 OA
ENDROOT
BRANCH   1   4
ATOM      3  C   LIG A   1      -9.714   0.681 122.996  0.00  0.00    +0.131 A 
ATOM      4  C   LIG A   1      -8.747  -0.256 123.377  0.00  0.00    +0.059 A 
ATOM      5  C   LIG A   1      -7.473   0.191 123.762  0.00  0.00    +0.018 A 
ATOM      6  C   LIG A   1      -7.177   1.556 123.793  0.00  0.00    +0.046 A 
ATOM      7  C   LIG A   1      -8.160   2.472 123.428  0.00  0.00    +0.120 A 
ATOM      8  C   LIG A   1      -9.421   2.047 123.025  0.00  0.00    +0.091 A 
BRANCH   3   9
ATOM      9  O   LIG A   1     -10.943   0.274 122.555  0.00  0.00    -0.506 OA
ATOM     10  H   LIG A   1     -11.374   1.011 122.091  0.00  0.00    +0.292 HD
ENDBRANCH   3   9
BRANCH   7  11
ATOM     11  O   LIG A   1      -7.921   3.814 123.446  0.00  0.00    -0.507 OA
ATOM     12  H   LIG A   1      -8.042   4.168 122.549  0.00  0.00    +0.292 HD
ENDBRANCH   7  11
ENDBRANCH   1   4
BRANCH   1  13
ATOM     13  C   LIG A   1      -7.860  -2.656 123.810  0.00  0.00    +0.084 C 
BRANCH  13  14
ATOM     14  C   LIG A   1      -8.308  -3.696 124.838  0.00  0.00    +0.043 C 
BRANCH  14  15
ATOM     15  C   LIG A   1      -8.123  -3.269 126.276  0.00  0.00    -0.043 A 
ATOM     16  C   LIG A   1      -7.182  -2.271 126.586  0.00  0.00    +0.053 A 
ATOM     17  C   LIG A   1      -6.979  -1.860 127.902  0.00  0.00    +0.162 A 
ATOM     18  C   LIG A   1      -7.728  -2.466 128.914  0.00  0.00    +0.159 A 
ATOM     19  C   LIG A   1      -8.664  -3.453 128.633  0.00  0.00    +0.049 A 
ATOM     20  C   LIG A   1      -8.866  -3.853 127.311  0.00  0.00    +0.007 A 
BRANCH  17  21
ATOM     21  O   LIG A   1      -6.093  -0.898 128.317  0.00  0.00    -0.491 OA
ATOM     22  C   LIG A   1      -5.636   0.006 127.314  0.00  0.00    +0.277 C 
ENDBRANCH  17  21
BRANCH  18  23
ATOM     23  O   LIG A   1      -7.544  -2.097 130.220  0.00  0.00    -0.503 OA
ATOM     24  H   LIG A   1      -6.583  -2.199 130.373  0.00  0.00    +0.292 HD
ENDBRANCH  18  23
ENDBRANCH  14  15
ENDBRANCH  13  14
ENDBRANCH   1  13
TORSDOF 8
ENDMDL
MODEL 4
REMARK VINA RESULT:      -6.7      9.582     11.693
REMARK  Name = NuBBE_1848
REMARK  9 active torsions:
REMARK  status: ('A' for Active; 'I' for Inactive)
REMARK    1  A    between atoms: O_1  and  C_2
REMARK    2  A    between atoms: C_3  and  C_4
REMARK    3  A    between atoms: C_4  and  C_5
REMARK    4  A    between atoms: C_5  and  C_6
REMARK    5  A    between atoms: C_6  and  C_7
REMARK    6  A    between atoms: C_9  and  O_10
REMARK    7  A    between atoms: O_10  and  C_11
REMARK    8  A    between atoms: C_12  and  O_13
REMARK    9  A    between atoms: C_19  and  O_20
REMARK                            x       y       z     vdW  Elec       q    Type
REMARK                         _______ _______ _______ _____ _____    ______ ____
ROOT
ATOM      1  C   LIG A   1     -10.386   5.320 130.075  0.00  0.00    +0.167 C 
ATOM      2  O   LIG A   1     -11.030   4.272 130.049  0.00  0.00    -0.292 OA
ENDROOT
BRANCH   1   4
ATOM      3  C   LIG A   1     -12.086   7.122 130.649  0.00  0.00    +0.131 A 
ATOM      4  C   LIG A   1     -11.096   6.601 129.809  0.00  0.00    +0.059 A 
ATOM      5  C   LIG A   1     -10.769   7.284 128.626  0.00  0.00    +0.018 A 
ATOM      6  C   LIG A   1     -11.405   8.484 128.300  0.00  0.00    +0.046 A 
ATOM      7  C   LIG A   1     -12.374   8.994 129.159  0.00  0.00    +0.120 A 
ATOM      8  C   LIG A   1     -12.725   8.322 130.325  0.00  0.00    +0.091 A 
BRANCH   3   9
ATOM      9  O   LIG A   1     -12.470   6.448 131.775  0.00  0.00    -0.506 OA
ATOM     10  H   LIG A   1     -13.207   6.924 132.195  0.00  0.00    +0.292 HD
ENDBRANCH   3   9
BRANCH   7  11
ATOM     11  O   LIG A   1     -13.020  10.164 128.886  0.00  0.00    -0.507 OA
ATOM     12  H   LIG A   1     -12.361  10.850 128.690  0.00  0.00    +0.292 HD
ENDBRANCH   7  11
ENDBRANCH   1   4
BRANCH   1  13
ATOM     13  C   LIG A   1      -8.893   5.350 130.372  0.00  0.00    +0.084 C 
BRANCH  13  14
ATOM     14  C   LIG A   1      -8.457   6.553 131.210  0.00  0.00    +0.043 C 
BRANCH  14  15
ATOM     15  C   LIG A   1      -6.991   6.555 131.578  0.00  0.00    -0.043 A 
ATOM     16  C   LIG A   1      -6.071   7.229 130.756  0.00  0.00    +0.053 A 
ATOM     17  C   LIG A   1      -4.711   7.243 131.062  0.00  0.00    +0.162 A 
ATOM     18  C   LIG A   1      -4.276   6.564 132.203  0.00  0.00    +0.159 A 
ATOM     19  C   LIG A   1      -5.166   5.891 133.032  0.00  0.00    +0.049 A 
ATOM     20  C   LIG A   1      -6.527   5.890 132.722  0.00  0.00    +0.007 A 
BRANCH  17  21
ATOM     21  O   LIG A   1      -3.730   7.868 130.335  0.00  0.00    -0.491 OA
ATOM     22  C   LIG A   1      -3.602   7.459 128.976  0.00  0.00    +0.277 C 
ENDBRANCH  17  21
BRANCH  18  23
ATOM     23  O   LIG A   1      -2.946   6.545 132.525  0.00  0.00    -0.503 OA
ATOM     24  H   LIG A   1      -2.869   5.865 133.224  0.00  0.00    +0.292 HD
ENDBRANCH  18  23
ENDBRANCH  14  15
ENDBRANCH  13  14
ENDBRANCH   1  13
TORSDOF 8
ENDMDL
MODEL 5
REMARK VINA RESULT:      -6.6      8.869     10.975
REMARK  Name = NuBBE_1848
REMARK  9 active torsions:
REMARK  status: ('A' for Active; 'I' for Inactive)
REMARK    1  A    between atoms: O_1  and  C_2
REMARK    2  A    between atoms: C_3  and  C_4
REMARK    3  A    between atoms: C_4  and  C_5
REMARK    4  A    between atoms: C_5  and  C_6
REMARK    5  A    between atoms: C_6  and  C_7
REMARK    6  A    between atoms: C_9  and  O_10
REMARK    7  A    between atoms: O_10  and  C_11
REMARK    8  A    between atoms: C_12  and  O_13
REMARK    9  A    between atoms: C_19  and  O_20
REMARK                            x       y       z     vdW  Elec       q    Type
REMARK                         _______ _______ _______ _____ _____    ______ ____
ROOT
ATOM      1  C   LIG A   1      -9.202   6.391 131.594  0.00  0.00    +0.167 C 
ATOM      2  O   LIG A   1      -9.399   6.339 132.807  0.00  0.00    -0.292 OA
ENDROOT
BRANCH   1   4
ATOM      3  C   LIG A   1     -11.639   6.755 130.966  0.00  0.00    +0.131 A 
ATOM      4  C   LIG A   1     -10.275   6.940 130.719  0.00  0.00    +0.059 A 
ATOM      5  C   LIG A   1      -9.872   7.640 129.570  0.00  0.00    +0.018 A 
ATOM      6  C   LIG A   1     -10.822   8.171 128.693  0.00  0.00    +0.046 A 
ATOM      7  C   LIG A   1     -12.174   7.991 128.966  0.00  0.00    +0.120 A 
ATOM      8  C   LIG A   1     -12.591   7.283 130.089  0.00  0.00    +0.091 A 
BRANCH   3   9
ATOM      9  O   LIG A   1     -12.060   6.023 132.041  0.00  0.00    -0.506 OA
ATOM     10  H   LIG A   1     -12.579   6.596 132.632  0.00  0.00    +0.292 HD
ENDBRANCH   3   9
BRANCH   7  11
ATOM     11  O   LIG A   1     -13.138   8.492 128.143  0.00  0.00    -0.507 OA
ATOM     12  H   LIG A   1     -12.822   8.451 127.225  0.00  0.00    +0.292 HD
ENDBRANCH   7  11
ENDBRANCH   1   4
BRANCH   1  13
ATOM     13  C   LIG A   1      -7.902   5.917 130.959  0.00  0.00    +0.084 C 
BRANCH  13  14
ATOM     14  C   LIG A   1      -6.662   6.648 131.478  0.00  0.00    +0.043 C 
BRANCH  14  15
ATOM     15  C   LIG A   1      -5.467   6.575 130.556  0.00  0.00    -0.043 A 
ATOM     16  C   LIG A   1      -5.279   5.435 129.755  0.00  0.00    +0.053 A 
ATOM     17  C   LIG A   1      -4.183   5.332 128.900  0.00  0.00    +0.162 A 
ATOM     18  C   LIG A   1      -3.265   6.385 128.860  0.00  0.00    +0.159 A 
ATOM     19  C   LIG A   1      -3.430   7.522 129.641  0.00  0.00    +0.049 A 
ATOM     20  C   LIG A   1      -4.536   7.621 130.488  0.00  0.00    +0.007 A 
BRANCH  17  21
ATOM     21  O   LIG A   1      -3.903   4.272 128.075  0.00  0.00    -0.491 OA
ATOM     22  C   LIG A   1      -3.690   3.018 128.718  0.00  0.00    +0.277 C 
ENDBRANCH  17  21
BRANCH  18  23
ATOM     23  O   LIG A   1      -2.169   6.310 128.042  0.00  0.00    -0.503 OA
ATOM     24  H   LIG A   1      -2.263   5.454 127.579  0.00  0.00    +0.292 HD
ENDBRANCH  18  23
ENDBRANCH  14  15
ENDBRANCH  13  14
ENDBRANCH   1  13
TORSDOF 8
ENDMDL
MODEL 6
REMARK VINA RESULT:      -6.5      1.459      2.621
REMARK  Name = NuBBE_1848
REMARK  9 active torsions:
REMARK  status: ('A' for Active; 'I' for Inactive)
REMARK    1  A    between atoms: O_1  and  C_2
REMARK    2  A    between atoms: C_3  and  C_4
REMARK    3  A    between atoms: C_4  and  C_5
REMARK    4  A    between atoms: C_5  and  C_6
REMARK    5  A    between atoms: C_6  and  C_7
REMARK    6  A    between atoms: C_9  and  O_10
REMARK    7  A    between atoms: O_10  and  C_11
REMARK    8  A    between atoms: C_12  and  O_13
REMARK    9  A    between atoms: C_19  and  O_20
REMARK                            x       y       z     vdW  Elec       q    Type
REMARK                         _______ _______ _______ _____ _____    ______ ____
ROOT
ATOM      1  C   LIG A   1      -9.353  -0.435 123.527  0.00  0.00    +0.167 C 
ATOM      2  O   LIG A   1     -10.066  -0.435 122.525  0.00  0.00    -0.292 OA
ENDROOT
BRANCH   1   4
ATOM      3  C   LIG A   1      -8.563  -2.742 124.246  0.00  0.00    +0.131 A 
ATOM      4  C   LIG A   1      -8.316  -1.494 123.665  0.00  0.00    +0.059 A 
ATOM      5  C   LIG A   1      -7.019  -1.186 123.223  0.00  0.00    +0.018 A 
ATOM      6  C   LIG A   1      -5.989  -2.124 123.335  0.00  0.00    +0.046 A 
ATOM      7  C   LIG A   1      -6.260  -3.366 123.900  0.00  0.00    +0.120 A 
ATOM      8  C   LIG A   1      -7.534  -3.682 124.361  0.00  0.00    +0.091 A 
BRANCH   3   9
ATOM      9  O   LIG A   1      -9.799  -3.047 124.744  0.00  0.00    -0.506 OA
ATOM     10  H   LIG A   1     -10.285  -2.222 124.916  0.00  0.00    +0.292 HD
ENDBRANCH   3   9
BRANCH   7  11
ATOM     11  O   LIG A   1      -5.290  -4.316 124.028  0.00  0.00    -0.507 OA
ATOM     12  H   LIG A   1      -4.791  -4.148 124.845  0.00  0.00    +0.292 HD
ENDBRANCH   7  11
ENDBRANCH   1   4
BRANCH   1  13
ATOM     13  C   LIG A   1      -9.493   0.610 124.625  0.00  0.00    +0.084 C 
BRANCH  13  14
ATOM     14  C   LIG A   1      -9.723   2.028 124.098  0.00  0.00    +0.043 C 
BRANCH  14  15
ATOM     15  C   LIG A   1      -8.495   2.675 123.501  0.00  0.00    -0.043 A 
ATOM     16  C   LIG A   1      -7.411   3.006 124.335  0.00  0.00    +0.053 A 
ATOM     17  C   LIG A   1      -6.267   3.612 123.818  0.00  0.00    +0.162 A 
ATOM     18  C   LIG A   1      -6.220   3.894 122.450  0.00  0.00    +0.159 A 
ATOM     19  C   LIG A   1      -7.277   3.576 121.606  0.00  0.00    +0.049 A 
ATOM     20  C   LIG A   1      -8.416   2.961 122.131  0.00  0.00    +0.007 A 
BRANCH  17  21
ATOM     21  O   LIG A   1      -5.155   3.974 124.536  0.00  0.00    -0.491 OA
ATOM     22  C   LIG A   1      -4.979   3.319 125.789  0.00  0.00    +0.277 C 
ENDBRANCH  17  21
BRANCH  18  23
ATOM     23  O   LIG A   1      -5.118   4.502 121.912  0.00  0.00    -0.503 OA
ATOM     24  H   LIG A   1      -5.217   4.386 120.947  0.00  0.00    +0.292 HD
ENDBRANCH  18  23
ENDBRANCH  14  15
ENDBRANCH  13  14
ENDBRANCH   1  13
TORSDOF 8
ENDMDL
MODEL 7
REMARK VINA RESULT:      -6.4     10.024     12.244
REMARK  Name = NuBBE_1848
REMARK  9 active torsions:
REMARK  status: ('A' for Active; 'I' for Inactive)
REMARK    1  A    between atoms: O_1  and  C_2
REMARK    2  A    between atoms: C_3  and  C_4
REMARK    3  A    between atoms: C_4  and  C_5
REMARK    4  A    between atoms: C_5  and  C_6
REMARK    5  A    between atoms: C_6  and  C_7
REMARK    6  A    between atoms: C_9  and  O_10
REMARK    7  A    between atoms: O_10  and  C_11
REMARK    8  A    between atoms: C_12  and  O_13
REMARK    9  A    between atoms: C_19  and  O_20
REMARK                            x       y       z     vdW  Elec       q    Type
REMARK                         _______ _______ _______ _____ _____    ______ ____
ROOT
ATOM      1  C   LIG A   1     -10.293   5.417 129.992  0.00  0.00    +0.167 C 
ATOM      2  O   LIG A   1     -10.899   4.347 129.973  0.00  0.00    -0.292 OA
ENDROOT
BRANCH   1   4
ATOM      3  C   LIG A   1     -12.064   7.132 130.612  0.00  0.00    +0.131 A 
ATOM      4  C   LIG A   1     -11.054   6.674 129.759  0.00  0.00    +0.059 A 
ATOM      5  C   LIG A   1     -10.757   7.400 128.594  0.00  0.00    +0.018 A 
ATOM      6  C   LIG A   1     -11.442   8.581 128.298  0.00  0.00    +0.046 A 
ATOM      7  C   LIG A   1     -12.430   9.029 129.170  0.00  0.00    +0.120 A 
ATOM      8  C   LIG A   1     -12.752   8.313 130.318  0.00  0.00    +0.091 A 
BRANCH   3   9
ATOM      9  O   LIG A   1     -12.420   6.414 131.719  0.00  0.00    -0.506 OA
ATOM     10  H   LIG A   1     -12.934   6.985 132.317  0.00  0.00    +0.292 HD
ENDBRANCH   3   9
BRANCH   7  11
ATOM     11  O   LIG A   1     -13.124  10.178 128.927  0.00  0.00    -0.507 OA
ATOM     12  H   LIG A   1     -13.225  10.289 127.967  0.00  0.00    +0.292 HD
ENDBRANCH   7  11
ENDBRANCH   1   4
BRANCH   1  13
ATOM     13  C   LIG A   1      -8.794   5.497 130.248  0.00  0.00    +0.084 C 
BRANCH  13  14
ATOM     14  C   LIG A   1      -8.424   6.341 131.469  0.00  0.00    +0.043 C 
BRANCH  14  15
ATOM     15  C   LIG A   1      -6.938   6.453 131.720  0.00  0.00    -0.043 A 
ATOM     16  C   LIG A   1      -6.393   5.922 132.902  0.00  0.00    +0.053 A 
ATOM     17  C   LIG A   1      -5.027   6.016 133.168  0.00  0.00    +0.162 A 
ATOM     18  C   LIG A   1      -4.208   6.658 132.236  0.00  0.00    +0.159 A 
ATOM     19  C   LIG A   1      -4.722   7.190 131.060  0.00  0.00    +0.049 A 
ATOM     20  C   LIG A   1      -6.090   7.084 130.798  0.00  0.00    +0.007 A 
BRANCH  17  21
ATOM     21  O   LIG A   1      -4.390   5.533 134.283  0.00  0.00    -0.491 OA
ATOM     22  C   LIG A   1      -4.672   6.208 135.506  0.00  0.00    +0.277 C 
ENDBRANCH  17  21
BRANCH  18  23
ATOM     23  O   LIG A   1      -2.865   6.781 132.473  0.00  0.00    -0.503 OA
ATOM     24  H   LIG A   1      -2.696   7.744 132.451  0.00  0.00    +0.292 HD
ENDBRANCH  18  23
ENDBRANCH  14  15
ENDBRANCH  13  14
ENDBRANCH   1  13
TORSDOF 8
ENDMDL
MODEL 8
REMARK VINA RESULT:      -6.4      2.890      6.942
REMARK  Name = NuBBE_1848
REMARK  9 active torsions:
REMARK  status: ('A' for Active; 'I' for Inactive)
REMARK    1  A    between atoms: O_1  and  C_2
REMARK    2  A    between atoms: C_3  and  C_4
REMARK    3  A    between atoms: C_4  and  C_5
REMARK    4  A    between atoms: C_5  and  C_6
REMARK    5  A    between atoms: C_6  and  C_7
REMARK    6  A    between atoms: C_9  and  O_10
REMARK    7  A    between atoms: O_10  and  C_11
REMARK    8  A    between atoms: C_12  and  O_13
REMARK    9  A    between atoms: C_19  and  O_20
REMARK                            x       y       z     vdW  Elec       q    Type
REMARK                         _______ _______ _______ _____ _____    ______ ____
ROOT
ATOM      1  C   LIG A   1      -8.544  -1.680 122.876  0.00  0.00    +0.167 C 
ATOM      2  O   LIG A   1      -7.870  -2.057 121.920  0.00  0.00    -0.292 OA
ENDROOT
BRANCH   1   4
ATOM      3  C   LIG A   1      -9.646   0.608 123.010  0.00  0.00    +0.131 A 
ATOM      4  C   LIG A   1      -8.547  -0.232 123.221  0.00  0.00    +0.059 A 
ATOM      5  C   LIG A   1      -7.360   0.308 123.743  0.00  0.00    +0.018 A 
ATOM      6  C   LIG A   1      -7.281   1.663 124.076  0.00  0.00    +0.046 A 
ATOM      7  C   LIG A   1      -8.392   2.477 123.875  0.00  0.00    +0.120 A 
ATOM      8  C   LIG A   1      -9.569   1.964 123.340  0.00  0.00    +0.091 A 
BRANCH   3   9
ATOM      9  O   LIG A   1     -10.793   0.126 122.443  0.00  0.00    -0.506 OA
ATOM     10  H   LIG A   1     -10.610  -0.127 121.522  0.00  0.00    +0.292 HD
ENDBRANCH   3   9
BRANCH   7  11
ATOM     11  O   LIG A   1      -8.365   3.804 124.186  0.00  0.00    -0.507 OA
ATOM     12  H   LIG A   1      -8.758   4.308 123.454  0.00  0.00    +0.292 HD
ENDBRANCH   7  11
ENDBRANCH   1   4
BRANCH   1  13
ATOM     13  C   LIG A   1      -9.375  -2.640 123.715  0.00  0.00    +0.084 C 
BRANCH  13  14
ATOM     14  C   LIG A   1      -8.538  -3.634 124.523  0.00  0.00    +0.043 C 
BRANCH  14  15
ATOM     15  C   LIG A   1      -7.560  -2.991 125.478  0.00  0.00    -0.043 A 
ATOM     16  C   LIG A   1      -8.014  -2.523 126.723  0.00  0.00    +0.053 A 
ATOM     17  C   LIG A   1      -7.139  -1.917 127.624  0.00  0.00    +0.162 A 
ATOM     18  C   LIG A   1      -5.797  -1.775 127.260  0.00  0.00    +0.159 A 
ATOM     19  C   LIG A   1      -5.325  -2.231 126.035  0.00  0.00    +0.049 A 
ATOM     20  C   LIG A   1      -6.206  -2.844 125.143  0.00  0.00    +0.007 A 
BRANCH  17  21
ATOM     21  O   LIG A   1      -7.471  -1.428 128.862  0.00  0.00    -0.491 OA
ATOM     22  C   LIG A   1      -7.830  -2.399 129.842  0.00  0.00    +0.277 C 
ENDBRANCH  17  21
BRANCH  18  23
ATOM     23  O   LIG A   1      -4.915  -1.171 128.115  0.00  0.00    -0.503 OA
ATOM     24  H   LIG A   1      -4.341  -0.630 127.537  0.00  0.00    +0.292 HD
ENDBRANCH  18  23
ENDBRANCH  14  15
ENDBRANCH  13  14
ENDBRANCH   1  13
TORSDOF 8
ENDMDL
MODEL 9
REMARK VINA RESULT:      -6.4     10.128     12.521
REMARK  Name = NuBBE_1848
REMARK  9 active torsions:
REMARK  status: ('A' for Active; 'I' for Inactive)
REMARK    1  A    between atoms: O_1  and  C_2
REMARK    2  A    between atoms: C_3  and  C_4
REMARK    3  A    between atoms: C_4  and  C_5
REMARK    4  A    between atoms: C_5  and  C_6
REMARK    5  A    between atoms: C_6  and  C_7
REMARK    6  A    between atoms: C_9  and  O_10
REMARK    7  A    between atoms: O_10  and  C_11
REMARK    8  A    between atoms: C_12  and  O_13
REMARK    9  A    between atoms: C_19  and  O_20
REMARK                            x       y       z     vdW  Elec       q    Type
REMARK                         _______ _______ _______ _____ _____    ______ ____
ROOT
ATOM      1  C   LIG A   1     -10.389   5.324 129.995  0.00  0.00    +0.167 C 
ATOM      2  O   LIG A   1     -11.029   4.283 130.132  0.00  0.00    -0.292 OA
ENDROOT
BRANCH   1   4
ATOM      3  C   LIG A   1     -12.090   7.108 130.617  0.00  0.00    +0.131 A 
ATOM      4  C   LIG A   1     -11.129   6.590 129.742  0.00  0.00    +0.059 A 
ATOM      5  C   LIG A   1     -10.866   7.259 128.536  0.00  0.00    +0.018 A 
ATOM      6  C   LIG A   1     -11.534   8.445 128.221  0.00  0.00    +0.046 A 
ATOM      7  C   LIG A   1     -12.473   8.953 129.114  0.00  0.00    +0.120 A 
ATOM      8  C   LIG A   1     -12.761   8.294 130.304  0.00  0.00    +0.091 A 
BRANCH   3   9
ATOM      9  O   LIG A   1     -12.413   6.446 131.769  0.00  0.00    -0.506 OA
ATOM     10  H   LIG A   1     -13.382   6.406 131.851  0.00  0.00    +0.292 HD
ENDBRANCH   3   9
BRANCH   7  11
ATOM     11  O   LIG A   1     -13.148  10.109 128.854  0.00  0.00    -0.507 OA
ATOM     12  H   LIG A   1     -13.193  10.239 127.892  0.00  0.00    +0.292 HD
ENDBRANCH   7  11
ENDBRANCH   1   4
BRANCH   1  13
ATOM     13  C   LIG A   1      -8.869   5.361 130.079  0.00  0.00    +0.084 C 
BRANCH  13  14
ATOM     14  C   LIG A   1      -8.327   6.520 130.918  0.00  0.00    +0.043 C 
BRANCH  14  15
ATOM     15  C   LIG A   1      -7.749   6.105 132.251  0.00  0.00    -0.043 A 
ATOM     16  C   LIG A   1      -6.354   6.079 132.423  0.00  0.00    +0.053 A 
ATOM     17  C   LIG A   1      -5.788   5.693 133.637  0.00  0.00    +0.162 A 
ATOM     18  C   LIG A   1      -6.638   5.323 134.683  0.00  0.00    +0.159 A 
ATOM     19  C   LIG A   1      -8.020   5.341 134.538  0.00  0.00    +0.049 A 
ATOM     20  C   LIG A   1      -8.578   5.737 133.321  0.00  0.00    +0.007 A 
BRANCH  17  21
ATOM     21  O   LIG A   1      -4.446   5.634 133.916  0.00  0.00    -0.491 OA
ATOM     22  C   LIG A   1      -3.633   4.984 132.943  0.00  0.00    +0.277 C 
ENDBRANCH  17  21
BRANCH  18  23
ATOM     23  O   LIG A   1      -6.116   4.924 135.884  0.00  0.00    -0.503 OA
ATOM     24  H   LIG A   1      -5.540   4.165 135.664  0.00  0.00    +0.292 HD
ENDBRANCH  18  23
ENDBRANCH  14  15
ENDBRANCH  13  14
ENDBRANCH   1  13
TORSDOF 8
ENDMDL
