MODEL 1
REMARK VINA RESULT:      -7.1      0.000      0.000
REMARK  Name = NuBBE_86
REMARK  13 active torsions:
REMARK  status: ('A' for Active; 'I' for Inactive)
REMARK    1  A    between atoms: C_1  and  C_2
REMARK    2  A    between atoms: C_4  and  C_6
REMARK    3  A    between atoms: C_8  and  O_9
REMARK    4  A    between atoms: O_9  and  C_10
REMARK    5  A    between atoms: C_18  and  C_20
REMARK    6  A    between atoms: C_22  and  O_23
REMARK    7  A    between atoms: O_23  and  C_24
REMARK    8  A    between atoms: C_25  and  O_26
REMARK    9  A    between atoms: O_26  and  C_27
REMARK   10  A    between atoms: C_28  and  O_29
REMARK   11  A    between atoms: O_29  and  C_30
REMARK   12  A    between atoms: C_32  and  C_34
REMARK   13  A    between atoms: C_34  and  O_35
REMARK                            x       y       z     vdW  Elec       q    Type
REMARK                         _______ _______ _______ _____ _____    ______ ____
ROOT
ATOM      1  C   LIG A   1      -9.382  -3.343 124.036  0.00  0.00    +0.011 C 
ATOM      2  C   LIG A   1      -8.249  -2.378 124.386  0.00  0.00    +0.027 C 
ATOM      3  C   LIG A   1      -8.625  -1.514 125.584  0.00  0.00    +0.152 C 
ATOM      4  O   LIG A   1      -8.957  -0.205 125.090  0.00  0.00    -0.363 OA
ATOM      5  C   LIG A   1      -8.609  -0.078 123.699  0.00  0.00    +0.155 C 
ATOM      6  C   LIG A   1      -7.949  -1.391 123.253  0.00  0.00    +0.053 C 
ENDROOT
BRANCH   3   7
ATOM      7  C   LIG A   1      -7.606  -1.357 126.715  0.00  0.00    -0.011 A 
ATOM      8  C   LIG A   1      -7.753  -0.288 127.631  0.00  0.00    +0.056 A 
ATOM      9  C   LIG A   1      -6.892  -0.108 128.727  0.00  0.00    +0.166 A 
ATOM     10  C   LIG A   1      -5.883  -1.038 128.881  0.00  0.00    +0.207 A 
ATOM     11  O   LIG A   1      -4.938  -1.082 129.868  0.00  0.00    -0.449 OA
ATOM     12  C   LIG A   1      -4.191  -2.250 129.497  0.00  0.00    +0.467 C 
ATOM     13  O   LIG A   1      -4.698  -2.903 128.303  0.00  0.00    -0.453 OA
ATOM     14  C   LIG A   1      -5.726  -2.081 127.997  0.00  0.00    +0.170 A 
ATOM     15  C   LIG A   1      -6.550  -2.260 126.911  0.00  0.00    +0.056 A 
BRANCH   9  16
ATOM     16  O   LIG A   1      -6.974   0.891 129.637  0.00  0.00    -0.491 OA
ATOM     17  C   LIG A   1      -7.953   0.740 130.670  0.00  0.00    +0.277 C 
ENDBRANCH   9  16
ENDBRANCH   3   7
BRANCH   5  18
ATOM     18  C   LIG A   1      -7.834   1.212 123.493  0.00  0.00    -0.011 A 
ATOM     19  C   LIG A   1      -7.976   1.985 122.329  0.00  0.00    +0.056 A 
ATOM     20  C   LIG A   1      -7.249   3.181 122.146  0.00  0.00    +0.166 A 
ATOM     21  C   LIG A   1      -6.310   3.582 123.120  0.00  0.00    +0.203 A 
ATOM     22  C   LIG A   1      -6.200   2.838 124.304  0.00  0.00    +0.166 A 
ATOM     23  C   LIG A   1      -6.963   1.681 124.482  0.00  0.00    +0.056 A 
BRANCH  20  24
ATOM     24  O   LIG A   1      -7.560   3.836 120.974  0.00  0.00    -0.491 OA
ATOM     25  C   LIG A   1      -8.919   3.803 120.550  0.00  0.00    +0.277 C 
ENDBRANCH  20  24
BRANCH  21  26
ATOM     26  O   LIG A   1      -5.579   4.723 122.905  0.00  0.00    -0.488 OA
ATOM     27  C   LIG A   1      -4.498   4.641 121.982  0.00  0.00    +0.277 C 
ENDBRANCH  21  26
BRANCH  22  28
ATOM     28  O   LIG A   1      -5.399   3.335 125.302  0.00  0.00    -0.491 OA
ATOM     29  C   LIG A   1      -5.066   2.411 126.329  0.00  0.00    +0.277 C 
ENDBRANCH  22  28
ENDBRANCH   5  18
BRANCH   6  30
ATOM     30  C   LIG A   1      -6.452  -1.315 122.934  0.00  0.00    +0.162 C 
BRANCH  30  31
ATOM     31  O   LIG A   1      -5.817  -2.511 123.382  0.00  0.00    -0.395 OA
ATOM     32  H   LIG A   1      -6.037  -2.619 124.324  0.00  0.00    +0.209 HD
ENDBRANCH  30  31
ENDBRANCH   6  30
TORSDOF 8
ENDMDL
MODEL 2
REMARK VINA RESULT:      -7.0      5.759      9.105
REMARK  Name = NuBBE_86
REMARK  13 active torsions:
REMARK  status: ('A' for Active; 'I' for Inactive)
REMARK    1  A    between atoms: C_1  and  C_2
REMARK    2  A    between atoms: C_4  and  C_6
REMARK    3  A    between atoms: C_8  and  O_9
REMARK    4  A    between atoms: O_9  and  C_10
REMARK    5  A    between atoms: C_18  and  C_20
REMARK    6  A    between atoms: C_22  and  O_23
REMARK    7  A    between atoms: O_23  and  C_24
REMARK    8  A    between atoms: C_25  and  O_26
REMARK    9  A    between atoms: O_26  and  C_27
REMARK   10  A    between atoms: C_28  and  O_29
REMARK   11  A    between atoms: O_29  and  C_30
REMARK   12  A    between atoms: C_32  and  C_34
REMARK   13  A    between atoms: C_34  and  O_35
REMARK                            x       y       z     vdW  Elec       q    Type
REMARK                         _______ _______ _______ _____ _____    ______ ____
ROOT
ATOM      1  C   LIG A   1      -6.302   4.417 135.638  0.00  0.00    +0.011 C 
ATOM      2  C   LIG A   1      -6.676   4.158 134.178  0.00  0.00    +0.027 C 
ATOM      3  C   LIG A   1      -5.992   5.161 133.258  0.00  0.00    +0.152 C 
ATOM      4  O   LIG A   1      -6.979   6.123 132.850  0.00  0.00    -0.363 OA
ATOM      5  C   LIG A   1      -8.299   5.703 133.244  0.00  0.00    +0.155 C 
ATOM      6  C   LIG A   1      -8.177   4.329 133.920  0.00  0.00    +0.053 C 
ENDROOT
BRANCH   3   7
ATOM      7  C   LIG A   1      -5.288   4.635 132.005  0.00  0.00    -0.011 A 
ATOM      8  C   LIG A   1      -4.130   5.300 131.535  0.00  0.00    +0.056 A 
ATOM      9  C   LIG A   1      -3.396   4.848 130.425  0.00  0.00    +0.166 A 
ATOM     10  C   LIG A   1      -3.855   3.702 129.805  0.00  0.00    +0.207 A 
ATOM     11  O   LIG A   1      -3.309   3.066 128.725  0.00  0.00    -0.449 OA
ATOM     12  C   LIG A   1      -4.212   1.964 128.554  0.00  0.00    +0.467 C 
ATOM     13  O   LIG A   1      -5.282   1.939 129.536  0.00  0.00    -0.453 OA
ATOM     14  C   LIG A   1      -4.982   3.047 130.248  0.00  0.00    +0.170 A 
ATOM     15  C   LIG A   1      -5.718   3.487 131.322  0.00  0.00    +0.056 A 
BRANCH   9  16
ATOM     16  O   LIG A   1      -2.286   5.435 129.924  0.00  0.00    -0.491 OA
ATOM     17  C   LIG A   1      -2.485   6.434 128.918  0.00  0.00    +0.277 C 
ENDBRANCH   9  16
ENDBRANCH   3   7
BRANCH   5  18
ATOM     18  C   LIG A   1      -9.239   5.829 132.057  0.00  0.00    -0.011 A 
ATOM     19  C   LIG A   1      -8.812   5.580 130.743  0.00  0.00    +0.056 A 
ATOM     20  C   LIG A   1      -9.693   5.702 129.647  0.00  0.00    +0.166 A 
ATOM     21  C   LIG A   1     -11.015   6.146 129.861  0.00  0.00    +0.203 A 
ATOM     22  C   LIG A   1     -11.458   6.350 131.177  0.00  0.00    +0.166 A 
ATOM     23  C   LIG A   1     -10.580   6.179 132.249  0.00  0.00    +0.056 A 
BRANCH  20  24
ATOM     24  O   LIG A   1      -9.117   5.362 128.442  0.00  0.00    -0.491 OA
ATOM     25  C   LIG A   1      -8.098   4.367 128.465  0.00  0.00    +0.277 C 
ENDBRANCH  20  24
BRANCH  21  26
ATOM     26  O   LIG A   1     -11.844   6.303 128.780  0.00  0.00    -0.488 OA
ATOM     27  C   LIG A   1     -11.783   7.545 128.086  0.00  0.00    +0.277 C 
ENDBRANCH  21  26
BRANCH  22  28
ATOM     28  O   LIG A   1     -12.789   6.625 131.370  0.00  0.00    -0.491 OA
ATOM     29  C   LIG A   1     -13.104   8.000 131.545  0.00  0.00    +0.277 C 
ENDBRANCH  22  28
ENDBRANCH   5  18
BRANCH   6  30
ATOM     30  C   LIG A   1      -8.769   3.146 133.146  0.00  0.00    +0.162 C 
BRANCH  30  31
ATOM     31  O   LIG A   1      -8.009   1.972 133.433  0.00  0.00    -0.395 OA
ATOM     32  H   LIG A   1      -7.797   1.551 132.582  0.00  0.00    +0.209 HD
ENDBRANCH  30  31
ENDBRANCH   6  30
TORSDOF 8
ENDMDL
MODEL 3
REMARK VINA RESULT:      -6.9      1.398      2.658
REMARK  Name = NuBBE_86
REMARK  13 active torsions:
REMARK  status: ('A' for Active; 'I' for Inactive)
REMARK    1  A    between atoms: C_1  and  C_2
REMARK    2  A    between atoms: C_4  and  C_6
REMARK    3  A    between atoms: C_8  and  O_9
REMARK    4  A    between atoms: O_9  and  C_10
REMARK    5  A    between atoms: C_18  and  C_20
REMARK    6  A    between atoms: C_22  and  O_23
REMARK    7  A    between atoms: O_23  and  C_24
REMARK    8  A    between atoms: C_25  and  O_26
REMARK    9  A    between atoms: O_26  and  C_27
REMARK   10  A    between atoms: C_28  and  O_29
REMARK   11  A    between atoms: O_29  and  C_30
REMARK   12  A    between atoms: C_32  and  C_34
REMARK   13  A    between atoms: C_34  and  O_35
REMARK                            x       y       z     vdW  Elec       q    Type
REMARK                         _______ _______ _______ _____ _____    ______ ____
ROOT
ATOM      1  C   LIG A   1      -9.517  -3.539 123.556  0.00  0.00    +0.011 C 
ATOM      2  C   LIG A   1      -8.474  -2.680 124.272  0.00  0.00    +0.027 C 
ATOM      3  C   LIG A   1      -9.110  -1.892 125.411  0.00  0.00    +0.152 C 
ATOM      4  O   LIG A   1      -9.249  -0.529 124.976  0.00  0.00    -0.363 OA
ATOM      5  C   LIG A   1      -8.549  -0.313 123.736  0.00  0.00    +0.155 C 
ATOM      6  C   LIG A   1      -7.851  -1.626 123.350  0.00  0.00    +0.053 C 
ENDROOT
BRANCH   3   7
ATOM      7  C   LIG A   1      -8.413  -1.894 126.773  0.00  0.00    -0.011 A 
ATOM      8  C   LIG A   1      -8.130  -0.658 127.404  0.00  0.00    +0.056 A 
ATOM      9  C   LIG A   1      -7.542  -0.576 128.677  0.00  0.00    +0.166 A 
ATOM     10  C   LIG A   1      -7.253  -1.773 129.304  0.00  0.00    +0.207 A 
ATOM     11  O   LIG A   1      -6.696  -1.950 130.540  0.00  0.00    -0.449 OA
ATOM     12  C   LIG A   1      -6.648  -3.381 130.630  0.00  0.00    +0.467 C 
ATOM     13  O   LIG A   1      -7.185  -4.050 129.458  0.00  0.00    -0.453 OA
ATOM     14  C   LIG A   1      -7.518  -2.982 128.701  0.00  0.00    +0.170 A 
ATOM     15  C   LIG A   1      -8.078  -3.077 127.450  0.00  0.00    +0.056 A 
BRANCH   9  16
ATOM     16  O   LIG A   1      -7.244   0.568 129.335  0.00  0.00    -0.491 OA
ATOM     17  C   LIG A   1      -8.318   1.208 130.032  0.00  0.00    +0.277 C 
ENDBRANCH   9  16
ENDBRANCH   3   7
BRANCH   5  18
ATOM     18  C   LIG A   1      -7.693   0.937 123.856  0.00  0.00    -0.011 A 
ATOM     19  C   LIG A   1      -6.994   1.247 125.034  0.00  0.00    +0.056 A 
ATOM     20  C   LIG A   1      -6.204   2.412 125.136  0.00  0.00    +0.166 A 
ATOM     21  C   LIG A   1      -6.162   3.322 124.058  0.00  0.00    +0.203 A 
ATOM     22  C   LIG A   1      -6.821   2.993 122.864  0.00  0.00    +0.166 A 
ATOM     23  C   LIG A   1      -7.561   1.812 122.772  0.00  0.00    +0.056 A 
BRANCH  20  24
ATOM     24  O   LIG A   1      -5.545   2.522 126.340  0.00  0.00    -0.491 OA
ATOM     25  C   LIG A   1      -4.931   1.345 126.857  0.00  0.00    +0.277 C 
ENDBRANCH  20  24
BRANCH  21  26
ATOM     26  O   LIG A   1      -5.426   4.472 124.191  0.00  0.00    -0.488 OA
ATOM     27  C   LIG A   1      -5.961   5.498 125.021  0.00  0.00    +0.277 C 
ENDBRANCH  21  26
BRANCH  22  28
ATOM     28  O   LIG A   1      -6.634   3.814 121.781  0.00  0.00    -0.491 OA
ATOM     29  C   LIG A   1      -5.622   3.399 120.873  0.00  0.00    +0.277 C 
ENDBRANCH  22  28
ENDBRANCH   5  18
BRANCH   6  30
ATOM     30  C   LIG A   1      -6.320  -1.620 123.430  0.00  0.00    +0.162 C 
BRANCH  30  31
ATOM     31  O   LIG A   1      -5.885  -2.782 124.135  0.00  0.00    -0.395 OA
ATOM     32  H   LIG A   1      -5.122  -3.144 123.651  0.00  0.00    +0.209 HD
ENDBRANCH  30  31
ENDBRANCH   6  30
TORSDOF 8
ENDMDL
MODEL 4
REMARK VINA RESULT:      -6.8      2.311      6.943
REMARK  Name = NuBBE_86
REMARK  13 active torsions:
REMARK  status: ('A' for Active; 'I' for Inactive)
REMARK    1  A    between atoms: C_1  and  C_2
REMARK    2  A    between atoms: C_4  and  C_6
REMARK    3  A    between atoms: C_8  and  O_9
REMARK    4  A    between atoms: O_9  and  C_10
REMARK    5  A    between atoms: C_18  and  C_20
REMARK    6  A    between atoms: C_22  and  O_23
REMARK    7  A    between atoms: O_23  and  C_24
REMARK    8  A    between atoms: C_25  and  O_26
REMARK    9  A    between atoms: O_26  and  C_27
REMARK   10  A    between atoms: C_28  and  O_29
REMARK   11  A    between atoms: O_29  and  C_30
REMARK   12  A    between atoms: C_32  and  C_34
REMARK   13  A    between atoms: C_34  and  O_35
REMARK                            x       y       z     vdW  Elec       q    Type
REMARK                         _______ _______ _______ _____ _____    ______ ____
ROOT
ATOM      1  C   LIG A   1      -5.897  -2.862 123.453  0.00  0.00    +0.011 C 
ATOM      2  C   LIG A   1      -6.734  -2.042 124.436  0.00  0.00    +0.027 C 
ATOM      3  C   LIG A   1      -5.981  -0.792 124.877  0.00  0.00    +0.152 C 
ATOM      4  O   LIG A   1      -5.496  -1.024 126.211  0.00  0.00    -0.363 OA
ATOM      5  C   LIG A   1      -6.063  -2.227 126.762  0.00  0.00    +0.155 C 
ATOM      6  C   LIG A   1      -7.039  -2.809 125.727  0.00  0.00    +0.053 C 
ENDROOT
BRANCH   3   7
ATOM      7  C   LIG A   1      -6.722   0.546 124.860  0.00  0.00    -0.011 A 
ATOM      8  C   LIG A   1      -7.933   0.655 124.135  0.00  0.00    +0.056 A 
ATOM      9  C   LIG A   1      -8.699   1.832 124.114  0.00  0.00    +0.166 A 
ATOM     10  C   LIG A   1      -8.218   2.897 124.851  0.00  0.00    +0.207 A 
ATOM     11  O   LIG A   1      -8.788   4.132 124.996  0.00  0.00    -0.449 OA
ATOM     12  C   LIG A   1      -7.843   4.783 125.858  0.00  0.00    +0.467 C 
ATOM     13  O   LIG A   1      -6.725   3.936 126.232  0.00  0.00    -0.453 OA
ATOM     14  C   LIG A   1      -7.041   2.808 125.558  0.00  0.00    +0.170 A 
ATOM     15  C   LIG A   1      -6.272   1.668 125.575  0.00  0.00    +0.056 A 
BRANCH   9  16
ATOM     16  O   LIG A   1      -9.861   2.004 123.442  0.00  0.00    -0.491 OA
ATOM     17  C   LIG A   1     -10.296   0.914 122.622  0.00  0.00    +0.277 C 
ENDBRANCH   9  16
ENDBRANCH   3   7
BRANCH   5  18
ATOM     18  C   LIG A   1      -6.595  -1.938 128.155  0.00  0.00    -0.011 A 
ATOM     19  C   LIG A   1      -7.205  -0.715 128.476  0.00  0.00    +0.056 A 
ATOM     20  C   LIG A   1      -7.694  -0.455 129.775  0.00  0.00    +0.166 A 
ATOM     21  C   LIG A   1      -7.512  -1.414 130.793  0.00  0.00    +0.203 A 
ATOM     22  C   LIG A   1      -6.946  -2.655 130.464  0.00  0.00    +0.166 A 
ATOM     23  C   LIG A   1      -6.510  -2.906 129.161  0.00  0.00    +0.056 A 
BRANCH  20  24
ATOM     24  O   LIG A   1      -8.313   0.771 129.891  0.00  0.00    -0.491 OA
ATOM     25  C   LIG A   1      -8.313   1.613 128.742  0.00  0.00    +0.277 C 
ENDBRANCH  20  24
BRANCH  21  26
ATOM     26  O   LIG A   1      -7.953  -1.127 132.060  0.00  0.00    -0.488 OA
ATOM     27  C   LIG A   1      -7.044  -0.463 132.932  0.00  0.00    +0.277 C 
ENDBRANCH  21  26
BRANCH  22  28
ATOM     28  O   LIG A   1      -6.926  -3.628 131.432  0.00  0.00    -0.491 OA
ATOM     29  C   LIG A   1      -5.659  -4.230 131.660  0.00  0.00    +0.277 C 
ENDBRANCH  22  28
ENDBRANCH   5  18
BRANCH   6  30
ATOM     30  C   LIG A   1      -8.525  -2.748 126.099  0.00  0.00    +0.162 C 
BRANCH  30  31
ATOM     31  O   LIG A   1      -9.292  -2.513 124.919  0.00  0.00    -0.395 OA
ATOM     32  H   LIG A   1     -10.206  -2.787 125.111  0.00  0.00    +0.209 HD
ENDBRANCH  30  31
ENDBRANCH   6  30
TORSDOF 8
ENDMDL
MODEL 5
REMARK VINA RESULT:      -6.7      1.882      2.160
REMARK  Name = NuBBE_86
REMARK  13 active torsions:
REMARK  status: ('A' for Active; 'I' for Inactive)
REMARK    1  A    between atoms: C_1  and  C_2
REMARK    2  A    between atoms: C_4  and  C_6
REMARK    3  A    between atoms: C_8  and  O_9
REMARK    4  A    between atoms: O_9  and  C_10
REMARK    5  A    between atoms: C_18  and  C_20
REMARK    6  A    between atoms: C_22  and  O_23
REMARK    7  A    between atoms: O_23  and  C_24
REMARK    8  A    between atoms: C_25  and  O_26
REMARK    9  A    between atoms: O_26  and  C_27
REMARK   10  A    between atoms: C_28  and  O_29
REMARK   11  A    between atoms: O_29  and  C_30
REMARK   12  A    between atoms: C_32  and  C_34
REMARK   13  A    between atoms: C_34  and  O_35
REMARK                            x       y       z     vdW  Elec       q    Type
REMARK                         _______ _______ _______ _____ _____    ______ ____
ROOT
ATOM      1  C   LIG A   1      -8.017  -4.395 124.658  0.00  0.00    +0.011 C 
ATOM      2  C   LIG A   1      -7.445  -3.116 125.271  0.00  0.00    +0.027 C 
ATOM      3  C   LIG A   1      -8.201  -2.737 126.539  0.00  0.00    +0.152 C 
ATOM      4  O   LIG A   1      -9.068  -1.637 126.217  0.00  0.00    -0.363 OA
ATOM      5  C   LIG A   1      -8.775  -1.118 124.907  0.00  0.00    +0.155 C 
ATOM      6  C   LIG A   1      -7.586  -1.908 124.339  0.00  0.00    +0.053 C 
ENDROOT
BRANCH   3   7
ATOM      7  C   LIG A   1      -7.392  -2.365 127.783  0.00  0.00    -0.011 A 
ATOM      8  C   LIG A   1      -8.078  -2.033 128.976  0.00  0.00    +0.056 A 
ATOM      9  C   LIG A   1      -7.408  -1.732 130.174  0.00  0.00    +0.166 A 
ATOM     10  C   LIG A   1      -6.028  -1.783 130.141  0.00  0.00    +0.207 A 
ATOM     11  O   LIG A   1      -5.163  -1.546 131.174  0.00  0.00    -0.449 OA
ATOM     12  C   LIG A   1      -3.894  -1.749 130.537  0.00  0.00    +0.467 C 
ATOM     13  O   LIG A   1      -4.004  -2.117 129.136  0.00  0.00    -0.453 OA
ATOM     14  C   LIG A   1      -5.348  -2.100 128.988  0.00  0.00    +0.170 A 
ATOM     15  C   LIG A   1      -5.989  -2.381 127.805  0.00  0.00    +0.056 A 
BRANCH   9  16
ATOM     16  O   LIG A   1      -7.999  -1.405 131.346  0.00  0.00    -0.491 OA
ATOM     17  C   LIG A   1      -8.592  -0.105 131.426  0.00  0.00    +0.277 C 
ENDBRANCH   9  16
ENDBRANCH   3   7
BRANCH   5  18
ATOM     18  C   LIG A   1      -8.652   0.394 124.983  0.00  0.00    -0.011 A 
ATOM     19  C   LIG A   1      -8.714   1.202 123.836  0.00  0.00    +0.056 A 
ATOM     20  C   LIG A   1      -8.596   2.606 123.918  0.00  0.00    +0.166 A 
ATOM     21  C   LIG A   1      -8.346   3.213 125.167  0.00  0.00    +0.203 A 
ATOM     22  C   LIG A   1      -8.330   2.414 126.320  0.00  0.00    +0.166 A 
ATOM     23  C   LIG A   1      -8.494   1.031 126.219  0.00  0.00    +0.056 A 
BRANCH  20  24
ATOM     24  O   LIG A   1      -8.741   3.239 122.702  0.00  0.00    -0.491 OA
ATOM     25  C   LIG A   1      -7.578   3.362 121.889  0.00  0.00    +0.277 C 
ENDBRANCH  20  24
BRANCH  21  26
ATOM     26  O   LIG A   1      -8.189   4.575 125.221  0.00  0.00    -0.488 OA
ATOM     27  C   LIG A   1      -6.858   5.080 125.196  0.00  0.00    +0.277 C 
ENDBRANCH  21  26
BRANCH  22  28
ATOM     28  O   LIG A   1      -8.246   3.045 127.536  0.00  0.00    -0.491 OA
ATOM     29  C   LIG A   1      -7.078   2.750 128.291  0.00  0.00    +0.277 C 
ENDBRANCH  22  28
ENDBRANCH   5  18
BRANCH   6  30
ATOM     30  C   LIG A   1      -6.272  -1.131 124.197  0.00  0.00    +0.162 C 
BRANCH  30  31
ATOM     31  O   LIG A   1      -5.177  -2.032 124.353  0.00  0.00    -0.395 OA
ATOM     32  H   LIG A   1      -5.064  -2.186 125.308  0.00  0.00    +0.209 HD
ENDBRANCH  30  31
ENDBRANCH   6  30
TORSDOF 8
ENDMDL
MODEL 6
REMARK VINA RESULT:      -6.6      5.526      9.016
REMARK  Name = NuBBE_86
REMARK  13 active torsions:
REMARK  status: ('A' for Active; 'I' for Inactive)
REMARK    1  A    between atoms: C_1  and  C_2
REMARK    2  A    between atoms: C_4  and  C_6
REMARK    3  A    between atoms: C_8  and  O_9
REMARK    4  A    between atoms: O_9  and  C_10
REMARK    5  A    between atoms: C_18  and  C_20
REMARK    6  A    between atoms: C_22  and  O_23
REMARK    7  A    between atoms: O_23  and  C_24
REMARK    8  A    between atoms: C_25  and  O_26
REMARK    9  A    between atoms: O_26  and  C_27
REMARK   10  A    between atoms: C_28  and  O_29
REMARK   11  A    between atoms: O_29  and  C_30
REMARK   12  A    between atoms: C_32  and  C_34
REMARK   13  A    between atoms: C_34  and  O_35
REMARK                            x       y       z     vdW  Elec       q    Type
REMARK                         _______ _______ _______ _____ _____    ______ ____
ROOT
ATOM      1  C   LIG A   1      -5.251   5.107 134.978  0.00  0.00    +0.011 C 
ATOM      2  C   LIG A   1      -5.817   4.665 133.628  0.00  0.00    +0.027 C 
ATOM      3  C   LIG A   1      -5.322   5.574 132.509  0.00  0.00    +0.152 C 
ATOM      4  O   LIG A   1      -6.403   6.450 132.147  0.00  0.00    -0.363 OA
ATOM      5  C   LIG A   1      -7.631   6.036 132.776  0.00  0.00    +0.155 C 
ATOM      6  C   LIG A   1      -7.346   4.757 133.577  0.00  0.00    +0.053 C 
ENDROOT
BRANCH   3   7
ATOM      7  C   LIG A   1      -4.780   4.927 131.233  0.00  0.00    -0.011 A 
ATOM      8  C   LIG A   1      -4.613   3.521 131.191  0.00  0.00    +0.056 A 
ATOM      9  C   LIG A   1      -4.173   2.847 130.040  0.00  0.00    +0.166 A 
ATOM     10  C   LIG A   1      -3.911   3.624 128.929  0.00  0.00    +0.207 A 
ATOM     11  O   LIG A   1      -3.488   3.200 127.699  0.00  0.00    -0.449 OA
ATOM     12  C   LIG A   1      -3.398   4.441 126.984  0.00  0.00    +0.467 C 
ATOM     13  O   LIG A   1      -3.778   5.594 127.781  0.00  0.00    -0.453 OA
ATOM     14  C   LIG A   1      -4.064   4.992 128.956  0.00  0.00    +0.170 A 
ATOM     15  C   LIG A   1      -4.479   5.667 130.079  0.00  0.00    +0.056 A 
BRANCH   9  16
ATOM     16  O   LIG A   1      -3.990   1.511 129.932  0.00  0.00    -0.491 OA
ATOM     17  C   LIG A   1      -4.880   0.678 130.683  0.00  0.00    +0.277 C 
ENDBRANCH   9  16
ENDBRANCH   3   7
BRANCH   5  18
ATOM     18  C   LIG A   1      -8.736   5.992 131.735  0.00  0.00    -0.011 A 
ATOM     19  C   LIG A   1      -8.474   5.697 130.388  0.00  0.00    +0.056 A 
ATOM     20  C   LIG A   1      -9.508   5.661 129.427  0.00  0.00    +0.166 A 
ATOM     21  C   LIG A   1     -10.826   5.988 129.810  0.00  0.00    +0.203 A 
ATOM     22  C   LIG A   1     -11.099   6.237 131.163  0.00  0.00    +0.166 A 
ATOM     23  C   LIG A   1     -10.066   6.224 132.103  0.00  0.00    +0.056 A 
BRANCH  20  24
ATOM     24  O   LIG A   1      -9.075   5.297 128.171  0.00  0.00    -0.491 OA
ATOM     25  C   LIG A   1      -8.009   4.355 128.096  0.00  0.00    +0.277 C 
ENDBRANCH  20  24
BRANCH  21  26
ATOM     26  O   LIG A   1     -11.811   5.992 128.855  0.00  0.00    -0.488 OA
ATOM     27  C   LIG A   1     -11.974   7.182 128.090  0.00  0.00    +0.277 C 
ENDBRANCH  21  26
BRANCH  22  28
ATOM     28  O   LIG A   1     -12.411   6.395 131.535  0.00  0.00    -0.491 OA
ATOM     29  C   LIG A   1     -12.864   7.740 131.602  0.00  0.00    +0.277 C 
ENDBRANCH  22  28
ENDBRANCH   5  18
BRANCH   6  30
ATOM     30  C   LIG A   1      -7.984   3.472 133.036  0.00  0.00    +0.162 C 
BRANCH  30  31
ATOM     31  O   LIG A   1      -7.722   2.402 133.943  0.00  0.00    -0.395 OA
ATOM     32  H   LIG A   1      -7.312   2.790 134.736  0.00  0.00    +0.209 HD
ENDBRANCH  30  31
ENDBRANCH   6  30
TORSDOF 8
ENDMDL
MODEL 7
REMARK VINA RESULT:      -6.6      3.200      8.083
REMARK  Name = NuBBE_86
REMARK  13 active torsions:
REMARK  status: ('A' for Active; 'I' for Inactive)
REMARK    1  A    between atoms: C_1  and  C_2
REMARK    2  A    between atoms: C_4  and  C_6
REMARK    3  A    between atoms: C_8  and  O_9
REMARK    4  A    between atoms: O_9  and  C_10
REMARK    5  A    between atoms: C_18  and  C_20
REMARK    6  A    between atoms: C_22  and  O_23
REMARK    7  A    between atoms: O_23  and  C_24
REMARK    8  A    between atoms: C_25  and  O_26
REMARK    9  A    between atoms: O_26  and  C_27
REMARK   10  A    between atoms: C_28  and  O_29
REMARK   11  A    between atoms: O_29  and  C_30
REMARK   12  A    between atoms: C_32  and  C_34
REMARK   13  A    between atoms: C_34  and  O_35
REMARK                            x       y       z     vdW  Elec       q    Type
REMARK                         _______ _______ _______ _____ _____    ______ ____
ROOT
ATOM      1  C   LIG A   1      -2.103   3.128 126.583  0.00  0.00    +0.011 C 
ATOM      2  C   LIG A   1      -3.587   2.851 126.826  0.00  0.00    +0.027 C 
ATOM      3  C   LIG A   1      -4.446   3.989 126.286  0.00  0.00    +0.152 C 
ATOM      4  O   LIG A   1      -4.890   4.770 127.408  0.00  0.00    -0.363 OA
ATOM      5  C   LIG A   1      -4.583   4.108 128.649  0.00  0.00    +0.155 C 
ATOM      6  C   LIG A   1      -3.928   2.758 128.317  0.00  0.00    +0.053 C 
ENDROOT
BRANCH   3   7
ATOM      7  C   LIG A   1      -5.666   3.636 125.433  0.00  0.00    -0.011 A 
ATOM      8  C   LIG A   1      -5.627   3.884 124.040  0.00  0.00    +0.056 A 
ATOM      9  C   LIG A   1      -6.684   3.539 123.181  0.00  0.00    +0.166 A 
ATOM     10  C   LIG A   1      -7.780   2.930 123.761  0.00  0.00    +0.207 A 
ATOM     11  O   LIG A   1      -8.915   2.493 123.136  0.00  0.00    -0.449 OA
ATOM     12  C   LIG A   1      -9.663   1.963 124.239  0.00  0.00    +0.467 C 
ATOM     13  O   LIG A   1      -8.970   2.072 125.511  0.00  0.00    -0.453 OA
ATOM     14  C   LIG A   1      -7.833   2.685 125.114  0.00  0.00    +0.170 A 
ATOM     15  C   LIG A   1      -6.814   3.032 125.969  0.00  0.00    +0.056 A 
BRANCH   9  16
ATOM     16  O   LIG A   1      -6.714   3.750 121.844  0.00  0.00    -0.491 OA
ATOM     17  C   LIG A   1      -5.456   3.984 121.203  0.00  0.00    +0.277 C 
ENDBRANCH   9  16
ENDBRANCH   3   7
BRANCH   5  18
ATOM     18  C   LIG A   1      -5.819   4.100 129.531  0.00  0.00    -0.011 A 
ATOM     19  C   LIG A   1      -5.747   3.822 130.906  0.00  0.00    +0.056 A 
ATOM     20  C   LIG A   1      -6.902   3.815 131.717  0.00  0.00    +0.166 A 
ATOM     21  C   LIG A   1      -8.168   4.027 131.129  0.00  0.00    +0.203 A 
ATOM     22  C   LIG A   1      -8.238   4.351 129.766  0.00  0.00    +0.166 A 
ATOM     23  C   LIG A   1      -7.076   4.396 128.993  0.00  0.00    +0.056 A 
BRANCH  20  24
ATOM     24  O   LIG A   1      -6.634   3.582 133.048  0.00  0.00    -0.491 OA
ATOM     25  C   LIG A   1      -6.698   2.233 133.500  0.00  0.00    +0.277 C 
ENDBRANCH  20  24
BRANCH  21  26
ATOM     26  O   LIG A   1      -9.284   3.971 131.925  0.00  0.00    -0.488 OA
ATOM     27  C   LIG A   1      -9.580   5.118 132.715  0.00  0.00    +0.277 C 
ENDBRANCH  21  26
BRANCH  22  28
ATOM     28  O   LIG A   1      -9.460   4.709 129.255  0.00  0.00    -0.491 OA
ATOM     29  C   LIG A   1      -9.690   6.108 129.158  0.00  0.00    +0.277 C 
ENDBRANCH  22  28
ENDBRANCH   5  18
BRANCH   6  30
ATOM     30  C   LIG A   1      -4.760   1.512 128.642  0.00  0.00    +0.162 C 
BRANCH  30  31
ATOM     31  O   LIG A   1      -4.715   0.617 127.533  0.00  0.00    -0.395 OA
ATOM     32  H   LIG A   1      -3.845   0.180 127.549  0.00  0.00    +0.209 HD
ENDBRANCH  30  31
ENDBRANCH   6  30
TORSDOF 8
ENDMDL
MODEL 8
REMARK VINA RESULT:      -6.6      3.339      7.899
REMARK  Name = NuBBE_86
REMARK  13 active torsions:
REMARK  status: ('A' for Active; 'I' for Inactive)
REMARK    1  A    between atoms: C_1  and  C_2
REMARK    2  A    between atoms: C_4  and  C_6
REMARK    3  A    between atoms: C_8  and  O_9
REMARK    4  A    between atoms: O_9  and  C_10
REMARK    5  A    between atoms: C_18  and  C_20
REMARK    6  A    between atoms: C_22  and  O_23
REMARK    7  A    between atoms: O_23  and  C_24
REMARK    8  A    between atoms: C_25  and  O_26
REMARK    9  A    between atoms: O_26  and  C_27
REMARK   10  A    between atoms: C_28  and  O_29
REMARK   11  A    between atoms: O_29  and  C_30
REMARK   12  A    between atoms: C_32  and  C_34
REMARK   13  A    between atoms: C_34  and  O_35
REMARK                            x       y       z     vdW  Elec       q    Type
REMARK                         _______ _______ _______ _____ _____    ______ ____
ROOT
ATOM      1  C   LIG A   1      -2.038   3.429 126.800  0.00  0.00    +0.011 C 
ATOM      2  C   LIG A   1      -3.520   3.114 127.010  0.00  0.00    +0.027 C 
ATOM      3  C   LIG A   1      -4.396   4.223 126.439  0.00  0.00    +0.152 C 
ATOM      4  O   LIG A   1      -4.887   5.002 127.543  0.00  0.00    -0.363 OA
ATOM      5  C   LIG A   1      -4.592   4.360 128.797  0.00  0.00    +0.155 C 
ATOM      6  C   LIG A   1      -3.894   3.025 128.493  0.00  0.00    +0.053 C 
ENDROOT
BRANCH   3   7
ATOM      7  C   LIG A   1      -5.585   3.830 125.561  0.00  0.00    -0.011 A 
ATOM      8  C   LIG A   1      -5.499   4.018 124.160  0.00  0.00    +0.056 A 
ATOM      9  C   LIG A   1      -6.526   3.633 123.281  0.00  0.00    +0.166 A 
ATOM     10  C   LIG A   1      -7.639   3.045 123.850  0.00  0.00    +0.207 A 
ATOM     11  O   LIG A   1      -8.752   2.579 123.206  0.00  0.00    -0.449 OA
ATOM     12  C   LIG A   1      -9.537   2.094 124.305  0.00  0.00    +0.467 C 
ATOM     13  O   LIG A   1      -8.888   2.261 125.594  0.00  0.00    -0.453 OA
ATOM     14  C   LIG A   1      -7.739   2.860 125.210  0.00  0.00    +0.170 A 
ATOM     15  C   LIG A   1      -6.750   3.246 126.083  0.00  0.00    +0.056 A 
BRANCH   9  16
ATOM     16  O   LIG A   1      -6.509   3.784 121.937  0.00  0.00    -0.491 OA
ATOM     17  C   LIG A   1      -5.265   4.181 121.350  0.00  0.00    +0.277 C 
ENDBRANCH   9  16
ENDBRANCH   3   7
BRANCH   5  18
ATOM     18  C   LIG A   1      -5.848   4.326 129.650  0.00  0.00    -0.011 A 
ATOM     19  C   LIG A   1      -7.118   4.589 129.111  0.00  0.00    +0.056 A 
ATOM     20  C   LIG A   1      -8.279   4.558 129.914  0.00  0.00    +0.166 A 
ATOM     21  C   LIG A   1      -8.162   4.321 131.300  0.00  0.00    +0.203 A 
ATOM     22  C   LIG A   1      -6.902   4.012 131.833  0.00  0.00    +0.166 A 
ATOM     23  C   LIG A   1      -5.773   4.005 131.010  0.00  0.00    +0.056 A 
BRANCH  20  24
ATOM     24  O   LIG A   1      -9.439   4.781 129.205  0.00  0.00    -0.491 OA
ATOM     25  C   LIG A   1      -9.852   6.135 129.039  0.00  0.00    +0.277 C 
ENDBRANCH  20  24
BRANCH  21  26
ATOM     26  O   LIG A   1      -9.296   4.339 132.072  0.00  0.00    -0.488 OA
ATOM     27  C   LIG A   1      -9.667   5.583 132.657  0.00  0.00    +0.277 C 
ENDBRANCH  21  26
BRANCH  22  28
ATOM     28  O   LIG A   1      -6.838   3.629 133.149  0.00  0.00    -0.491 OA
ATOM     29  C   LIG A   1      -6.186   4.547 134.016  0.00  0.00    +0.277 C 
ENDBRANCH  22  28
ENDBRANCH   5  18
BRANCH   6  30
ATOM     30  C   LIG A   1      -4.700   1.760 128.812  0.00  0.00    +0.162 C 
BRANCH  30  31
ATOM     31  O   LIG A   1      -4.637   0.873 127.696  0.00  0.00    -0.395 OA
ATOM     32  H   LIG A   1      -4.814  -0.023 128.030  0.00  0.00    +0.209 HD
ENDBRANCH  30  31
ENDBRANCH   6  30
TORSDOF 8
ENDMDL
MODEL 9
REMARK VINA RESULT:      -6.6      2.640      5.645
REMARK  Name = NuBBE_86
REMARK  13 active torsions:
REMARK  status: ('A' for Active; 'I' for Inactive)
REMARK    1  A    between atoms: C_1  and  C_2
REMARK    2  A    between atoms: C_4  and  C_6
REMARK    3  A    between atoms: C_8  and  O_9
REMARK    4  A    between atoms: O_9  and  C_10
REMARK    5  A    between atoms: C_18  and  C_20
REMARK    6  A    between atoms: C_22  and  O_23
REMARK    7  A    between atoms: O_23  and  C_24
REMARK    8  A    between atoms: C_25  and  O_26
REMARK    9  A    between atoms: O_26  and  C_27
REMARK   10  A    between atoms: C_28  and  O_29
REMARK   11  A    between atoms: O_29  and  C_30
REMARK   12  A    between atoms: C_32  and  C_34
REMARK   13  A    between atoms: C_34  and  O_35
REMARK                            x       y       z     vdW  Elec       q    Type
REMARK                         _______ _______ _______ _____ _____    ______ ____
ROOT
ATOM      1  C   LIG A   1      -5.721  -4.357 130.347  0.00  0.00    +0.011 C 
ATOM      2  C   LIG A   1      -6.037  -2.900 130.009  0.00  0.00    +0.027 C 
ATOM      3  C   LIG A   1      -7.395  -2.496 130.571  0.00  0.00    +0.152 C 
ATOM      4  O   LIG A   1      -8.327  -2.462 129.477  0.00  0.00    -0.363 OA
ATOM      5  C   LIG A   1      -7.644  -2.587 128.216  0.00  0.00    +0.155 C 
ATOM      6  C   LIG A   1      -6.135  -2.658 128.499  0.00  0.00    +0.053 C 
ENDROOT
BRANCH   3   7
ATOM      7  C   LIG A   1      -7.501  -1.174 131.334  0.00  0.00    -0.011 A 
ATOM      8  C   LIG A   1      -6.338  -0.624 131.925  0.00  0.00    +0.056 A 
ATOM      9  C   LIG A   1      -6.342   0.611 132.595  0.00  0.00    +0.166 A 
ATOM     10  C   LIG A   1      -7.548   1.282 132.649  0.00  0.00    +0.207 A 
ATOM     11  O   LIG A   1      -7.798   2.495 133.229  0.00  0.00    -0.449 OA
ATOM     12  C   LIG A   1      -9.199   2.657 132.962  0.00  0.00    +0.467 C 
ATOM     13  O   LIG A   1      -9.774   1.551 132.216  0.00  0.00    -0.453 OA
ATOM     14  C   LIG A   1      -8.688   0.758 132.083  0.00  0.00    +0.170 A 
ATOM     15  C   LIG A   1      -8.703  -0.455 131.438  0.00  0.00    +0.056 A 
BRANCH   9  16
ATOM     16  O   LIG A   1      -5.270   1.191 133.182  0.00  0.00    -0.491 OA
ATOM     17  C   LIG A   1      -4.142   1.455 132.342  0.00  0.00    +0.277 C 
ENDBRANCH   9  16
ENDBRANCH   3   7
BRANCH   5  18
ATOM     18  C   LIG A   1      -8.138  -1.506 127.270  0.00  0.00    -0.011 A 
ATOM     19  C   LIG A   1      -8.233  -0.162 127.664  0.00  0.00    +0.056 A 
ATOM     20  C   LIG A   1      -8.697   0.834 126.777  0.00  0.00    +0.166 A 
ATOM     21  C   LIG A   1      -9.134   0.469 125.486  0.00  0.00    +0.203 A 
ATOM     22  C   LIG A   1      -8.996  -0.864 125.073  0.00  0.00    +0.166 A 
ATOM     23  C   LIG A   1      -8.493  -1.825 125.954  0.00  0.00    +0.056 A 
BRANCH  20  24
ATOM     24  O   LIG A   1      -8.667   2.102 127.316  0.00  0.00    -0.491 OA
ATOM     25  C   LIG A   1      -8.353   2.215 128.701  0.00  0.00    +0.277 C 
ENDBRANCH  20  24
BRANCH  21  26
ATOM     26  O   LIG A   1      -9.624   1.443 124.654  0.00  0.00    -0.488 OA
ATOM     27  C   LIG A   1      -8.678   2.183 123.888  0.00  0.00    +0.277 C 
ENDBRANCH  21  26
BRANCH  22  28
ATOM     28  O   LIG A   1      -9.278  -1.163 123.764  0.00  0.00    -0.491 OA
ATOM     29  C   LIG A   1      -8.184  -1.666 123.008  0.00  0.00    +0.277 C 
ENDBRANCH  22  28
ENDBRANCH   5  18
BRANCH   6  30
ATOM     30  C   LIG A   1      -5.311  -1.445 128.053  0.00  0.00    +0.162 C 
BRANCH  30  31
ATOM     31  O   LIG A   1      -4.222  -1.262 128.957  0.00  0.00    -0.395 OA
ATOM     32  H   LIG A   1      -4.601  -1.154 129.847  0.00  0.00    +0.209 HD
ENDBRANCH  30  31
ENDBRANCH   6  30
TORSDOF 8
ENDMDL
